@<TRIPOS>MOLECULE
BYP
   54    55     1     0     0
SMALL
bcc


@<TRIPOS>ATOM
      1 C22         2.2870    0.6990    1.4160 cx        1 BYP     -0.240000
      2 N1         -3.8430    0.1200   -1.2330 n2        1 BYP     -0.265000
      3 C2         -3.5290    0.2130   -2.5460 c2        1 BYP      0.085000
      4 C6         -5.1600   -0.1820   -0.9480 c2        1 BYP      0.177000
      5 C4         -5.8190   -0.2910   -3.1910 c2        1 BYP      0.241000
      6 C3         -4.4600    0.0190   -3.5800 c2        1 BYP     -0.367000
      7 N5         -6.1650   -0.3760   -1.8640 n2        1 BYP     -0.266000
      8 C11       -10.9690   -1.0900   -3.5190 c1        1 BYP     -0.061000
      9 C10       -10.4480   -0.0820   -4.3800 c2        1 BYP     -0.213000
     10 C9         -9.1150    0.1050   -4.5700 c2        1 BYP     -0.041000
     11 C8         -8.1430   -0.7510   -3.8970 c2        1 BYP     -0.023000
     12 C12       -10.0230   -1.9840   -2.8670 c3        1 BYP     -0.216000
     13 C17        -2.6660    0.6020    2.7090 c3        1 BYP     -0.207000
     14 C16        -3.4550   -0.0200    1.6460 c2        1 BYP      0.007000
     15 C13        -8.5790   -1.7620   -3.0900 c2        1 BYP     -0.101000
     16 C15        -4.7930    0.2650    1.4410 c2        1 BYP     -0.015000
     17 C18        -3.4220    1.4820    3.6170 c2        1 BYP      0.254000
     18 C19        -4.7880    1.7360    3.4180 c2        1 BYP     -0.297000
     19 C20        -5.4550    1.1550    2.3560 c2        1 BYP      0.080000
     20 O21        -2.7020    2.0080    4.6140 oh        1 BYP     -0.173000
     21 N7         -6.7710   -0.5130   -4.1590 nh        1 BYP     -0.250000
     22 BR         -3.9560    0.1580   -5.3620 br        1 BYP      0.119000
     23 C23         0.9040    0.1090    1.5040 cx        1 BYP     -0.037000
     24 C24         2.1120   -0.7900    1.5180 cx        1 BYP     -0.240000
     25 N25        -1.0710   -0.1450   -2.8900 n2        1 BYP     -0.142000
     26 C26        -1.0500   -1.5380   -2.5920 c3        1 BYP     -0.166000
     27 C27        -2.1180    0.5830   -2.8820 c2        1 BYP     -0.037000
     28 O28         0.1340    0.2740    2.6610 oh        1 BYP     -0.353000
     29 H221        2.6180    1.1410    0.4600 hc        1 BYP      0.126500
     30 H222        2.6960    1.2470    2.2840 hc        1 BYP      0.126500
     31 H2         -2.9040   -0.7280    0.9960 ha        1 BYP      0.206000
     32 H9         -8.7380    0.9040   -5.2320 ha        1 BYP      0.139000
     33 H12       -10.2960   -3.0350   -3.1950 hc        1 BYP      0.173000
     34 H17        -1.7990    1.1920    2.2410 hc        1 BYP      0.243000
     35 H16        -2.0990   -0.1920    3.3010 hc        1 BYP      0.243000
     36 H13        -7.8830   -2.4430   -2.5760 ha        1 BYP      0.145000
     37 H19        -6.5310    1.3800    2.2150 ha        1 BYP      0.182000
     38 H20        -5.3300    2.4050    4.1090 ha        1 BYP      0.185000
     39 H7         -6.5240   -0.3160   -5.1070 hn        1 BYP      0.264000
     40 H23        -3.2510    2.5970    5.1720 ho        1 BYP      0.278000
     41 H241        0.2130    0.1310    0.6390 h1        1 BYP      0.146000
     42 H242        2.3980   -1.2970    2.4570 hc        1 BYP      0.126500
     43 H261       -0.2130   -1.7200   -1.8630 h1        1 BYP      0.096000
     44 H262       -2.0020   -1.9520   -2.1640 h1        1 BYP      0.096000
     45 H263       -0.8120   -2.0930   -3.5410 h1        1 BYP      0.096000
     46 H271        2.0430   -2.5540   -1.4460 ha        1 BYP      0.001500
     47 H272       -2.0020    1.6540   -3.1560 h4        1 BYP      0.176000
     48 H273        1.6170   -2.8680   -1.0240 ha        1 BYP      0.001500
     49 H28         0.7340    0.2940    3.4180 ho        1 BYP      0.221000
     50 H11       -10.2420   -1.9500   -1.7570 hc        1 BYP      0.173000
     51 H251        2.3160   -1.4210    0.6320 hc        1 BYP      0.126500
     52 N14        -5.5350   -0.3570    0.4180 nh        1 BYP     -0.232000
     53 H10       -11.1810    0.5630   -4.8950 ha        1 BYP      0.161000
     54 H14        -6.5240   -0.3970    0.5760 hn        1 BYP      0.248000
@<TRIPOS>BOND
     1    1   23 1   
     2    1   24 1   
     3    1   29 1   
     4    1   30 1   
     5    2    3 1   
     6    2    4 1   
     7    3    6 1   
     8    3   27 1   
     9    4    7 1   
    10    4   52 1   
    11    5    6 1   
    12    5    7 1   
    13    5   21 1   
    14    6   22 1   
    15    8    9 1   
    16    8   12 1   
    17    9   10 1   
    18    9   53 1   
    19   10   11 1   
    20   10   32 1   
    21   11   15 1   
    22   11   21 1   
    23   12   15 1   
    24   12   33 1   
    25   12   50 1   
    26   13   14 1   
    27   13   17 1   
    28   13   34 1   
    29   13   35 1   
    30   14   16 1   
    31   14   31 1   
    32   15   36 1   
    33   16   19 1   
    34   16   52 1   
    35   17   18 1   
    36   17   20 1   
    37   18   19 1   
    38   18   38 1   
    39   19   37 1   
    40   20   40 1   
    41   21   39 1   
    42   23   24 1   
    43   23   28 1   
    44   23   41 1   
    45   24   42 1   
    46   24   51 1   
    47   25   26 1   
    48   25   27 1   
    49   26   43 1   
    50   26   44 1   
    51   26   45 1   
    52   27   47 1   
    53   28   49 1   
    54   46   48 1   
    55   52   54 1   
@<TRIPOS>SUBSTRUCTURE
     1 BYP         1 TEMP              0 ****  ****    0 ROOT
