@<TRIPOS>MOLECULE
BYP
   56    56     1     0     0
SMALL
bcc


@<TRIPOS>ATOM
      1 C22       908.3540   39.3480  340.1610 cx        1 BYP     -0.230500
      2 N1         45.7410 -169.5790 -523.4540 n3        1 BYP     -0.140000
      3 C2         46.6260 -169.2190 -522.4980 c1        1 BYP     -0.003000
      4 C6         44.5250 -170.1640 -523.0770 c2        1 BYP      0.052000
      5 C4         45.0600 -170.0600 -520.7960 c2        1 BYP      0.225000
      6 C3         46.3050 -169.4540 -521.1400 c2        1 BYP     -0.383000
      7 N5         44.1540 -170.4110 -521.8170 n2        1 BYP     -0.238000
      8 C11     -1686.6000  330.8780  646.0920 c1        1 BYP      0.532000
      9 C10     -1686.9160  329.5710  646.1300 c2        1 BYP     -0.544000
     10 C9      -1687.6040  328.8240  647.0960 c2        1 BYP      0.300000
     11 C8      -1688.1110  329.3470  648.2590 cu        1 BYP     -0.337000
     12 C12     -1688.3240  330.5280  649.1490 cx        1 BYP     -0.142000
     13 C17        44.0220 -167.9140 -526.7600 c3        1 BYP     -0.176000
     14 C16        44.2520 -168.9760 -525.8080 c1        1 BYP     -0.163000
     15 C13     -1688.7810  329.1500  649.4210 cu        1 BYP      0.177000
     16 C15        43.2050 -169.4710 -525.0370 c2        1 BYP     -0.290000
     17 C18        42.6200 -167.4060 -526.8210 c2        1 BYP      0.220000
     18 C19        41.6190 -167.9190 -525.9950 c2        1 BYP     -0.332000
     19 C20        41.9020 -168.9460 -525.0920 c2        1 BYP      0.115000
     20 O21        42.4220 -166.4350 -527.7210 oh        1 BYP     -0.182000
     21 N7         44.6910 -170.3170 -519.5110 n3        1 BYP     -0.332000
     22 BR         47.5550 -168.9460 -519.8730 br        1 BYP      0.146000
     23 C23       907.1350   40.2300  340.2250 cx        1 BYP     -0.052000
     24 C24       908.4530   40.7950  339.7670 cx        1 BYP     -0.230500
     25 N25       903.1420   39.9750  339.3100 n2        1 BYP      0.194000
     26 C26       903.5160   39.0310  340.2140 c3        1 BYP     -0.283500
     27 C27       902.8880   41.2900  339.6350 c3        1 BYP     -0.283500
     28 O28       906.0880   40.0480  339.3070 oh        1 BYP     -0.376000
     29 H221      908.8190   39.0120  341.1050 hc        1 BYP      0.132250
     30 H222      908.4240   38.5770  339.3720 hc        1 BYP      0.132250
     31 H2         45.9300 -169.3850 -524.4290 hn        1 BYP      0.315000
     32 H9      -1687.7480  327.7350  646.9070 ha        1 BYP      0.187000
     33 H12     -1689.0600  331.3150  648.8750 hc        1 BYP      0.168000
     34 H17        44.3480 -168.2700 -527.7890 hc        1 BYP      0.217000
     35 H16        44.7270 -167.0540 -526.5240 hc        1 BYP      0.217000
     36 H13     -1689.2970  328.4850  650.1010 ha        1 BYP      0.240000
     37 H19        41.0870 -169.3170 -524.4430 ha        1 BYP      0.163000
     38 H20        40.5940 -167.5150 -526.0470 ha        1 BYP      0.178000
     39 H7         43.8250 -170.7500 -519.2930 hn        1 BYP      0.261500
     40 H23        41.4900 -166.1390 -527.7210 ho        1 BYP      0.269000
     41 H241      906.6810   40.5290  341.1890 h1        1 BYP      0.148000
     42 H242      908.9870   41.5020  340.4270 hc        1 BYP      0.132250
     43 H261      903.4270   39.2510  341.3120 h1        1 BYP      0.224667
     44 H262      904.6590   38.8700  339.9580 h1        1 BYP      0.224667
     45 H263      903.0780   38.0190  339.9280 h1        1 BYP      0.224667
     46 H271      902.9120   41.5840  340.7200 h1        1 BYP      0.224667
     47 H272      901.8840   41.5650  339.1590 h1        1 BYP      0.224667
     48 H273      903.6340   41.9240  339.0360 h1        1 BYP      0.224667
     49 H28       906.4790   39.8600  338.4420 ho        1 BYP      0.235000
     50 H11     -1687.4760  330.9570  649.7270 hc        1 BYP      0.168000
     51 H72        45.3190 -170.0920 -518.7740 hn        1 BYP      0.261500
     52 H251      908.5910   41.0490  338.7000 hc        1 BYP      0.132250
     53 N14        43.5350 -170.5790 -524.1360 n4        1 BYP      0.074000
     54 H10     -1686.5560  329.0060  645.2240 ha        1 BYP      0.251000
     55 H14        42.6830 -170.9500 -523.6950 hn        1 BYP      0.263000
     56 H142       43.9830 -171.3210 -524.6930 hn        1 BYP      0.263000
@<TRIPOS>BOND
     1    1   23 1   
     2    1   24 1   
     3    1   29 1   
     4    1   30 1   
     5    2    3 1   
     6    2    4 1   
     7    2   31 1   
     8    3    6 1   
     9    4    7 1   
    10    4   53 1   
    11    5    6 1   
    12    5    7 1   
    13    5   21 1   
    14    6   22 1   
    15    8    9 1   
    16    9   10 1   
    17    9   54 1   
    18   10   11 1   
    19   10   32 1   
    20   11   12 1   
    21   11   15 1   
    22   12   15 1   
    23   12   33 1   
    24   12   50 1   
    25   13   14 1   
    26   13   17 1   
    27   13   34 1   
    28   13   35 1   
    29   14   16 1   
    30   15   36 1   
    31   16   19 1   
    32   16   53 1   
    33   17   18 1   
    34   17   20 1   
    35   18   19 1   
    36   18   38 1   
    37   19   37 1   
    38   20   40 1   
    39   21   39 1   
    40   21   51 1   
    41   23   24 1   
    42   23   28 1   
    43   23   41 1   
    44   24   42 1   
    45   24   52 1   
    46   25   26 1   
    47   25   27 1   
    48   26   43 1   
    49   26   44 1   
    50   26   45 1   
    51   27   46 1   
    52   27   47 1   
    53   27   48 1   
    54   28   49 1   
    55   53   55 1   
    56   53   56 1   
@<TRIPOS>SUBSTRUCTURE
     1 BYP         1 TEMP              0 ****  ****    0 ROOT
