@<TRIPOS>MOLECULE
BYS
   41    43     1     0     0
SMALL
bcc


@<TRIPOS>ATOM
      1 C1          0.3520    0.2110    1.6250 c3        1 BYS     -0.146700
      2 C2          0.2530    1.7540    1.6320 c         1 BYS      0.901600
      3 O3         -0.7530    2.3330    1.1200 o         1 BYS     -0.868800
      4 O4          1.1780    2.4060    2.2090 o         1 BYS     -0.868800
      5 C5         -0.8880   -0.3950    2.2690 c3        1 BYS     -0.060100
      6 C6         -0.8710   -0.4310    3.7580 ca        1 BYS     -0.014300
      7 C7         -0.1950    0.5310    4.5240 ca        1 BYS     -0.136000
      8 C8         -0.2380    0.4800    5.9160 ca        1 BYS     -0.152000
      9 C9         -0.9500   -0.5280    6.5680 ca        1 BYS     -0.180000
     10 C10        -1.6180   -1.4920    5.8150 ca        1 BYS     -0.152000
     11 C11        -1.5770   -1.4450    4.4230 ca        1 BYS     -0.136000
     12 C12         0.5850   -0.3370    0.2160 c3        1 BYS     -0.147700
     13 C13         0.9850   -1.8300    0.2300 c         1 BYS      0.900600
     14 O14         0.1400   -2.7180    0.5560 o         1 BYS     -0.868300
     15 O15         2.1590   -2.1320   -0.1520 o         1 BYS     -0.868300
     16 C16        -0.6340   -0.1360   -0.6740 c3        1 BYS     -0.061100
     17 C17        -0.3470   -0.0540   -2.1340 ca        1 BYS     -0.011300
     18 C18        -1.2460    0.6870   -2.9380 ca        1 BYS     -0.121000
     19 C19        -0.9900    0.7180   -4.2930 ca        1 BYS      0.024100
     20 O20        -1.7140    1.3630   -5.3070 os        1 BYS     -0.354900
     21 C21        -1.0200    1.0950   -6.5390 c3        1 BYS      0.327200
     22 O22         0.1200    0.2650   -6.2520 os        1 BYS     -0.359900
     23 C23         0.1180    0.0540   -4.8650 ca        1 BYS     -0.000900
     24 C24         1.0090   -0.6630   -4.0920 ca        1 BYS     -0.116000
     25 C25         0.7520   -0.7050   -2.7120 ca        1 BYS     -0.130000
     26 HC11        1.2550   -0.0710    2.2340 hc        1 BYS      0.050700
     27 HC51       -1.7820    0.2090    1.9460 hc        1 BYS      0.075700
     28 HC52       -1.0170   -1.4440    1.8770 hc        1 BYS      0.075700
     29 HC71        0.3730    1.3310    4.0060 ha        1 BYS      0.163500
     30 HC81        0.2960    1.2400    6.5030 ha        1 BYS      0.099000
     31 HC91       -0.9800   -0.5640    7.6640 ha        1 BYS      0.091000
     32 H101       -2.1730   -2.2950    6.3200 ha        1 BYS      0.099000
     33 H111       -2.0910   -2.2170    3.8320 ha        1 BYS      0.163500
     34 H121        1.4510    0.2390   -0.2130 hc        1 BYS      0.049700
     35 H161       -1.3370   -1.0010   -0.5070 hc        1 BYS      0.080700
     36 H162       -1.1600    0.8080   -0.3490 hc        1 BYS      0.080700
     37 H181       -2.0940    1.2200   -2.4900 ha        1 BYS      0.151000
     38 H211       -0.6610    2.0640   -6.9680 h2        1 BYS      0.037200
     39 H212       -1.7070    0.5380   -7.2240 h2        1 BYS      0.037200
     40 H241        1.8740   -1.1770   -4.5260 ha        1 BYS      0.132000
     41 H251        1.4430   -1.2740   -2.0530 ha        1 BYS      0.214000
@<TRIPOS>BOND
     1    1    2 1   
     2    1    5 1   
     3    1   12 1   
     4    1   26 1   
     5    2    3 1   
     6    2    4 1   
     7    5    6 1   
     8    5   27 1   
     9    5   28 1   
    10    6    7 ar  
    11    6   11 ar  
    12    7    8 ar  
    13    7   29 1   
    14    8    9 ar  
    15    8   30 1   
    16    9   10 ar  
    17    9   31 1   
    18   10   11 ar  
    19   10   32 1   
    20   11   33 1   
    21   12   13 1   
    22   12   16 1   
    23   12   34 1   
    24   13   14 1   
    25   13   15 1   
    26   16   17 1   
    27   16   35 1   
    28   16   36 1   
    29   17   18 ar  
    30   17   25 ar  
    31   18   19 ar  
    32   18   37 1   
    33   19   20 1   
    34   19   23 ar  
    35   20   21 1   
    36   21   22 1   
    37   21   38 1   
    38   21   39 1   
    39   22   23 1   
    40   23   24 ar  
    41   24   25 ar  
    42   24   40 1   
    43   25   41 1   
@<TRIPOS>SUBSTRUCTURE
     1 BYS         1 TEMP              0 ****  ****    0 ROOT
