@<TRIPOS>MOLECULE
BYS
   41    43     1     0     0
SMALL
bcc


@<TRIPOS>ATOM
      1 C1          1.3390   -0.2240    0.1840 c3        1 BYS     -0.146700
      2 C2          0.5350   -1.2520    1.0120 c         1 BYS      0.901600
      3 O3          1.1360   -2.0800    1.7620 o         1 BYS     -0.868800
      4 O4         -0.7330   -1.2010    0.9530 o         1 BYS     -0.868800
      5 C5          2.2520    0.5830    1.0980 c3        1 BYS     -0.060100
      6 C6          1.5930    1.7140    1.8070 ca        1 BYS     -0.014300
      7 C7          0.2380    1.6850    2.1730 ca        1 BYS     -0.136000
      8 C8         -0.3270    2.7510    2.8690 ca        1 BYS     -0.152000
      9 C9          0.4430    3.8630    3.2120 ca        1 BYS     -0.180000
     10 C10         1.7870    3.9050    2.8460 ca        1 BYS     -0.152000
     11 C11         2.3560    2.8420    2.1490 ca        1 BYS     -0.136000
     12 C12         2.1190   -0.8920   -0.9500 c3        1 BYS     -0.147700
     13 C13         2.6760    0.1380   -1.9590 c         1 BYS      0.900600
     14 O14         3.6170    0.9200   -1.6240 o         1 BYS     -0.868300
     15 O15         2.2040    0.1260   -3.1390 o         1 BYS     -0.868300
     16 C16         3.2490   -1.7620   -0.4180 c3        1 BYS     -0.061100
     17 C17         3.6580   -2.8850   -1.3090 ca        1 BYS     -0.011300
     18 C18         4.2240   -4.0310   -0.7020 ca        1 BYS     -0.121000
     19 C19         4.6360   -5.0440   -1.5430 ca        1 BYS      0.024100
     20 O20         5.2290   -6.2710   -1.2120 os        1 BYS     -0.354900
     21 C21         5.4500   -6.9660   -2.4520 c3        1 BYS      0.327200
     22 O22         5.0000   -6.1300   -3.5330 os        1 BYS     -0.359900
     23 C23         4.4990   -4.9590   -2.9460 ca        1 BYS     -0.000900
     24 C24         3.9390   -3.8510   -3.5520 ca        1 BYS     -0.116000
     25 C25         3.5230   -2.8140   -2.7030 ca        1 BYS     -0.130000
     26 HC11        0.5990    0.4720   -0.3000 hc        1 BYS      0.050700
     27 HC51        2.6760   -0.1150    1.8740 hc        1 BYS      0.075700
     28 HC52        3.1090    0.9830    0.4840 hc        1 BYS      0.075700
     29 HC71       -0.3750    0.8010    1.8980 ha        1 BYS      0.163500
     30 HC81       -1.3890    2.7130    3.1480 ha        1 BYS      0.099000
     31 HC91       -0.0080    4.7000    3.7600 ha        1 BYS      0.091000
     32 H101        2.3980    4.7810    3.1030 ha        1 BYS      0.099000
     33 H111        3.4130    2.8850    1.8480 ha        1 BYS      0.163500
     34 H121        1.3850   -1.5420   -1.5030 hc        1 BYS      0.049700
     35 H161        2.9360   -2.1810    0.5820 hc        1 BYS      0.080700
     36 H162        4.1490   -1.1050   -0.2530 hc        1 BYS      0.080700
     37 H181        4.3110   -4.1050    0.3900 ha        1 BYS      0.151000
     38 H211        6.5480   -7.1460   -2.5710 h2        1 BYS      0.037200
     39 H212        4.8480   -7.9090   -2.4500 h2        1 BYS      0.037200
     40 H241        3.8240   -3.7780   -4.6390 ha        1 BYS      0.132000
     41 H251        3.0690   -1.9020   -3.1500 ha        1 BYS      0.214000
@<TRIPOS>BOND
     1    1    2 1   
     2    1    5 1   
     3    1   12 1   
     4    1   26 1   
     5    2    3 1   
     6    2    4 1   
     7    5    6 1   
     8    5   27 1   
     9    5   28 1   
    10    6    7 ar  
    11    6   11 ar  
    12    7    8 ar  
    13    7   29 1   
    14    8    9 ar  
    15    8   30 1   
    16    9   10 ar  
    17    9   31 1   
    18   10   11 ar  
    19   10   32 1   
    20   11   33 1   
    21   12   13 1   
    22   12   16 1   
    23   12   34 1   
    24   13   14 1   
    25   13   15 1   
    26   16   17 1   
    27   16   35 1   
    28   16   36 1   
    29   17   18 ar  
    30   17   25 ar  
    31   18   19 ar  
    32   18   37 1   
    33   19   20 1   
    34   19   23 ar  
    35   20   21 1   
    36   21   22 1   
    37   21   38 1   
    38   21   39 1   
    39   22   23 1   
    40   23   24 ar  
    41   24   25 ar  
    42   24   40 1   
    43   25   41 1   
@<TRIPOS>SUBSTRUCTURE
     1 BYS         1 TEMP              0 ****  ****    0 ROOT
