@<TRIPOS>MOLECULE
BYS
   41    39     1     0     0
SMALL
bcc


@<TRIPOS>ATOM
      1 C1         -0.7550    0.8830    0.6810 c3        1 BYS     -0.136000
      2 C2         -2.0860    1.3020    0.0630 c2        1 BYS      0.321000
      3 O3         -2.9920    0.4470   -0.1120 o         1 BYS     -0.604000
      4 O4         -2.2280    2.4770   -0.3980 o         1 BYS     -0.604000
      5 C5         -0.9490    0.5990    2.1840 c3        1 BYS     -0.147000
      6 C6         -1.6010    1.8190    2.8630 c2        1 BYS     -0.006000
      7 C7         -2.9240    1.7640    3.2320 c2        1 BYS     -0.123000
      8 C8         -3.5130    2.8410    3.8840 c1        1 BYS     -0.147000
      9 C9         -2.7530    3.9990    4.1720 c1        1 BYS     -0.168500
     10 C10        -1.4210    4.0600    3.8030 c1        1 BYS     -0.168500
     11 C11        -0.8300    2.9820    3.1500 c1        1 BYS     -0.149000
     12 C12        -0.2520   -0.3590   -0.0110 c3        1 BYS     -0.137000
     13 C13        -1.0090   -0.5580   -1.2980 c2        1 BYS      0.319000
     14 O14        -1.6100   -1.6470   -1.5150 o         1 BYS     -0.602000
     15 O15        -1.0690    0.3850   -2.1550 o         1 BYS     -0.602000
     16 C16         1.2610   -0.1980   -0.3190 c3        1 BYS     -0.148000
     17 C17         1.7290   -1.3320   -1.2940 c2        1 BYS     -0.001000
     18 C18         2.0710   -1.0210   -2.6240 c2        1 BYS     -0.092000
     19 C19         2.5620   -2.0360   -3.4830 c1        1 BYS     -0.010000
     20 O20         2.9150   -2.0340   -4.9060 o         1 BYS     -0.221000
     21 C21         3.2810   -3.3570   -5.2690 c3        1 BYS      0.102000
     22 O22         3.1520   -4.1840   -4.1050 os        1 BYS     -0.248000
     23 C23         2.7060   -3.3470   -3.0040 c2        1 BYS     -0.045000
     24 C24         2.3630   -3.6540   -1.6690 c1        1 BYS     -0.130000
     25 C25         1.8760   -2.6500   -0.8180 c1        1 BYS     -0.157000
     26 HC11       -0.1380    1.5640    0.5730 hc        1 BYS      0.090000
     27 HC51       -0.1180    0.4260    2.5810 hc        1 BYS      0.115500
     28 HC52       -1.5310   -0.1820    2.2940 hc        1 BYS      0.115500
     29 HC71       -3.4360    0.9860    3.0400 ha        1 BYS      0.201000
     30 HC81       -4.4590    2.7990    4.1460 ha        1 BYS      0.105000
     31 HC91       -3.1500    4.7220    4.6980 ha        1 BYS      0.092000
     32 H101       -0.8890    4.8680    4.0040 ha        1 BYS      0.092000
     33 H111        0.1750    2.9730    3.0000 ha        1 BYS      0.125000
     34 H121       -0.3890   -1.1580    0.5880 hc        1 BYS      0.090000
     35 H161        1.7610   -0.2550    0.4980 hc        1 BYS      0.119500
     36 H162        1.4130    0.6630   -0.7310 hc        1 BYS      0.119500
     37 H181        1.9220   -0.0830   -2.9800 ha        1 BYS      0.227000
     38 H211        4.2030   -3.3630   -5.5620 h2        1 BYS      0.077500
     39 H212        2.6590   -3.6880   -5.9790 h2        1 BYS      0.077500
     40 H241        2.4640   -4.5700   -1.3370 ha        1 BYS      0.121000
     41 H251        1.5890   -2.8810    0.1170 ha        1 BYS      0.137000
@<TRIPOS>BOND
     1    1    2 1   
     2    1    5 1   
     3    1   12 1   
     4    1   26 1   
     5    2    3 1   
     6    2    4 1   
     7    5    6 1   
     8    5   27 1   
     9    5   28 1   
    10    6    7 1   
    11    6   11 1   
    12    7    8 1   
    13    7   29 1   
    14    8   30 1   
    15    9   10 1   
    16    9   31 1   
    17   10   32 1   
    18   11   33 1   
    19   12   13 1   
    20   12   16 1   
    21   12   34 1   
    22   13   14 1   
    23   13   15 1   
    24   16   17 1   
    25   16   35 1   
    26   16   36 1   
    27   17   18 1   
    28   17   25 1   
    29   18   19 1   
    30   18   37 1   
    31   19   23 1   
    32   20   21 1   
    33   21   22 1   
    34   21   38 1   
    35   21   39 1   
    36   22   23 1   
    37   23   24 1   
    38   24   40 1   
    39   25   41 1   
@<TRIPOS>SUBSTRUCTURE
     1 BYS         1 TEMP              0 ****  ****    0 ROOT
