@<TRIPOS>MOLECULE
BYS
   41    43     1     0     0
SMALL
bcc


@<TRIPOS>ATOM
      1 C1          1.3350   -0.2320    0.1900 c3        1 BYS     -0.146700
      2 C2          0.5460   -1.2610    1.0320 c         1 BYS      0.901600
      3 O3          1.1610   -2.0790    1.7820 o         1 BYS     -0.868800
      4 O4         -0.7220   -1.2210    0.9840 o         1 BYS     -0.868800
      5 C5          2.2490    0.5880    1.0900 c3        1 BYS     -0.060100
      6 C6          1.5880    1.7190    1.7980 ca        1 BYS     -0.014300
      7 C7          0.2370    1.6810    2.1760 ca        1 BYS     -0.136000
      8 C8         -0.3310    2.7470    2.8700 ca        1 BYS     -0.152000
      9 C9          0.4330    3.8680    3.1980 ca        1 BYS     -0.180000
     10 C10         1.7740    3.9180    2.8210 ca        1 BYS     -0.152000
     11 C11         2.3450    2.8540    2.1250 ca        1 BYS     -0.136000
     12 C12         2.1090   -0.9010   -0.9470 c3        1 BYS     -0.147700
     13 C13         2.6490    0.1260   -1.9680 c         1 BYS      0.900600
     14 O14         3.5870    0.9170   -1.6470 o         1 BYS     -0.868300
     15 O15         2.1660    0.1020   -3.1430 o         1 BYS     -0.868300
     16 C16         3.2520   -1.7590   -0.4200 c3        1 BYS     -0.061100
     17 C17         3.6620   -2.8840   -1.3070 ca        1 BYS     -0.011300
     18 C18         4.2430   -4.0210   -0.6970 ca        1 BYS     -0.121000
     19 C19         4.6560   -5.0360   -1.5350 ca        1 BYS      0.024100
     20 O20         5.2620   -6.2560   -1.2020 os        1 BYS     -0.354900
     21 C21         5.4780   -6.9580   -2.4390 c3        1 BYS      0.327200
     22 O22         5.0110   -6.1330   -3.5210 os        1 BYS     -0.359900
     23 C23         4.5050   -4.9620   -2.9380 ca        1 BYS     -0.000900
     24 C24         3.9310   -3.8630   -3.5460 ca        1 BYS     -0.116000
     25 C25         3.5130   -2.8240   -2.7000 ca        1 BYS     -0.130000
     26 HC11        0.5850    0.4540   -0.2920 hc        1 BYS      0.050700
     27 HC51        2.6860   -0.1010    1.8670 hc        1 BYS      0.075700
     28 HC52        3.0980    0.9910    0.4650 hc        1 BYS      0.075700
     29 HC71       -0.3720    0.7910    1.9120 ha        1 BYS      0.163500
     30 HC81       -1.3900    2.7030    3.1590 ha        1 BYS      0.099000
     31 HC91       -0.0190    4.7050    3.7450 ha        1 BYS      0.091000
     32 H101        2.3800    4.8010    3.0660 ha        1 BYS      0.099000
     33 H111        3.3990    2.9050    1.8140 ha        1 BYS      0.163500
     34 H121        1.3760   -1.5620   -1.4890 hc        1 BYS      0.049700
     35 H161        2.9510   -2.1740    0.5860 hc        1 BYS      0.080700
     36 H162        4.1480   -1.0930   -0.2670 hc        1 BYS      0.080700
     37 H181        4.3410   -4.0870    0.3940 ha        1 BYS      0.151000
     38 H211        4.8840   -7.9050   -2.4250 h2        1 BYS      0.037200
     39 H212        6.5760   -7.1290   -2.5670 h2        1 BYS      0.037200
     40 H241        3.8040   -3.7990   -4.6320 ha        1 BYS      0.132000
     41 H251        3.0480   -1.9190   -3.1480 ha        1 BYS      0.214000
@<TRIPOS>BOND
     1    1    2 1   
     2    1    5 1   
     3    1   12 1   
     4    1   26 1   
     5    2    3 1   
     6    2    4 1   
     7    5    6 1   
     8    5   27 1   
     9    5   28 1   
    10    6    7 ar  
    11    6   11 ar  
    12    7    8 ar  
    13    7   29 1   
    14    8    9 ar  
    15    8   30 1   
    16    9   10 ar  
    17    9   31 1   
    18   10   11 ar  
    19   10   32 1   
    20   11   33 1   
    21   12   13 1   
    22   12   16 1   
    23   12   34 1   
    24   13   14 1   
    25   13   15 1   
    26   16   17 1   
    27   16   35 1   
    28   16   36 1   
    29   17   18 ar  
    30   17   25 ar  
    31   18   19 ar  
    32   18   37 1   
    33   19   20 1   
    34   19   23 ar  
    35   20   21 1   
    36   21   22 1   
    37   21   38 1   
    38   21   39 1   
    39   22   23 1   
    40   23   24 ar  
    41   24   25 ar  
    42   24   40 1   
    43   25   41 1   
@<TRIPOS>SUBSTRUCTURE
     1 BYS         1 TEMP              0 ****  ****    0 ROOT
