@<TRIPOS>MOLECULE
BYT
   54    55     1     0     0
SMALL
bcc


@<TRIPOS>ATOM
      1 N01         2.2270    3.1810   -0.0930 n4        1 BYT     -0.829600
      2 C02         2.3280    2.1360   -1.1640 c3        1 BYT     -0.014500
      3 C03         1.1950    1.1060   -1.0730 c3        1 BYT     -0.083400
      4 C04         0.8290    0.5160   -2.4260 c3        1 BYT     -0.090400
      5 C05        -0.2990    1.2770   -3.1000 c3        1 BYT     -0.111400
      6 C06        -0.1750    1.3450   -4.6180 c3        1 BYT      0.117800
      7 N07         0.7950    2.3760   -5.0820 n4        1 BYT     -0.701800
      8 C08         0.6690    2.7460   -6.5330 c         1 BYT      0.548100
      9 O09        -0.2380    2.2320   -7.1710 o         1 BYT     -0.432100
     10 C10         1.7060    3.7190   -7.0210 c3        1 BYT     -0.155400
     11 C11         1.4180    4.1320   -8.4510 c3        1 BYT     -0.080400
     12 C12         2.4700    5.1070   -8.9370 c3        1 BYT     -0.083400
     13 C13         2.1550    5.5710  -10.3470 c3        1 BYT     -0.070400
     14 C14         3.1360    6.6250  -10.8020 c3        1 BYT     -0.010600
     15 S15         2.9230    8.1040   -9.8240 ss        1 BYT     -0.308200
     16 C16         3.4680    9.2270  -11.0730 c3        1 BYT     -0.037300
     17 C17         3.2890    8.5810  -12.4410 c3        1 BYT      0.064700
     18 N18         2.1590    9.0540  -13.2340 n         1 BYT     -0.517900
     19 C19         1.2160    7.9960  -13.3810 c         1 BYT      0.754500
     20 O20         0.0810    8.1140  -13.8730 o         1 BYT     -0.608500
     21 N21         1.7980    6.7560  -12.9820 n         1 BYT     -0.524900
     22 C22         3.0470    7.0120  -12.2810 c3        1 BYT      0.064700
     23 C23         2.2980    2.8520   -2.5490 c         1 BYT      0.902600
     24 O24         1.4720    3.7990   -2.6960 o         1 BYT     -0.799300
     25 O25         3.0500    2.4030   -3.4500 o         1 BYT     -0.799300
     26 H1          1.9070    2.7790    0.7880 hn        1 BYT      0.458800
     27 H2          3.1380    3.6260    0.0360 hn        1 BYT      0.458800
     28 H4          3.3230    1.6150   -1.0490 hx        1 BYT      0.119700
     29 H5          1.5290    0.2760   -0.3940 hc        1 BYT      0.063200
     30 H6          0.2750    1.5600   -0.6150 hc        1 BYT      0.063200
     31 H7          1.7400    0.4760   -3.0820 hc        1 BYT      0.074700
     32 H8          0.5030   -0.5480   -2.2670 hc        1 BYT      0.074700
     33 H9         -0.3740    2.3180   -2.6780 hc        1 BYT      0.083700
     34 H10        -1.2750    0.7640   -2.8800 hc        1 BYT      0.083700
     35 H11         0.1510    0.3510   -5.0350 hx        1 BYT      0.103700
     36 H12        -1.1830    1.5990   -5.0610 hx        1 BYT      0.103700
     37 H13         1.7670    2.0450   -4.9080 hn        1 BYT      0.495300
     38 H14         1.7180    4.6250   -6.3540 hc        1 BYT      0.106200
     39 H15         2.7200    3.2350   -6.9530 hc        1 BYT      0.106200
     40 H16         1.4010    3.2250   -9.1120 hc        1 BYT      0.067700
     41 H17         0.4020    4.6040   -8.5100 hc        1 BYT      0.067700
     42 H18         3.4800    4.6200   -8.9140 hc        1 BYT      0.058700
     43 H19         2.5100    5.9980   -8.2530 hc        1 BYT      0.058700
     44 H20         1.1080    5.9780  -10.3720 hc        1 BYT      0.061200
     45 H21         2.2000    4.6920  -11.0450 hc        1 BYT      0.061200
     46 H22         4.1780    6.2470  -10.6180 h1        1 BYT      0.082700
     47 H23         4.5470    9.4730  -10.9150 h1        1 BYT      0.087700
     48 H24         2.8890   10.1760  -10.9600 h1        1 BYT      0.087700
     49 H25         4.2190    8.7440  -13.0570 h1        1 BYT      0.094700
     50 H26         1.7930    9.9570  -13.0410 hn        1 BYT      0.320500
     51 H27         1.1790    6.0670  -12.6240 hn        1 BYT      0.314500
     52 H28         3.8570    6.4630  -12.8430 h1        1 BYT      0.091700
     53 H013        1.5540    3.8960   -0.4200 hn        1 BYT      0.458800
     54 H072        0.6950    3.2370   -4.5030 hn        1 BYT      0.495300
@<TRIPOS>BOND
     1    1    2 1   
     2    1   26 1   
     3    1   27 1   
     4    1   53 1   
     5    2    3 1   
     6    2   23 1   
     7    2   28 1   
     8    3    4 1   
     9    3   29 1   
    10    3   30 1   
    11    4    5 1   
    12    4   31 1   
    13    4   32 1   
    14    5    6 1   
    15    5   33 1   
    16    5   34 1   
    17    6    7 1   
    18    6   35 1   
    19    6   36 1   
    20    7    8 1   
    21    7   37 1   
    22    7   54 1   
    23    8    9 2   
    24    8   10 1   
    25   10   11 1   
    26   10   38 1   
    27   10   39 1   
    28   11   12 1   
    29   11   40 1   
    30   11   41 1   
    31   12   13 1   
    32   12   42 1   
    33   12   43 1   
    34   13   14 1   
    35   13   44 1   
    36   13   45 1   
    37   14   15 1   
    38   14   22 1   
    39   14   46 1   
    40   15   16 1   
    41   16   17 1   
    42   16   47 1   
    43   16   48 1   
    44   17   18 1   
    45   17   22 1   
    46   17   49 1   
    47   18   19 1   
    48   18   50 1   
    49   19   20 2   
    50   19   21 1   
    51   21   22 1   
    52   21   51 1   
    53   22   52 1   
    54   23   24 1   
    55   23   25 1   
@<TRIPOS>SUBSTRUCTURE
     1 BYT         1 TEMP              0 ****  ****    0 ROOT
