@<TRIPOS>MOLECULE
BYT
   54    55     1     0     0
SMALL
bcc


@<TRIPOS>ATOM
      1 N01         2.5420    3.0660   -0.1570 nz        1 BYT     -0.829600
      2 C02         2.4890    2.0260   -1.2360 c3        1 BYT     -0.014500
      3 C03         1.2810    1.0940   -1.0790 c3        1 BYT     -0.083400
      4 C04         0.7840    0.5480   -2.4080 c3        1 BYT     -0.090400
      5 C05        -0.3160    1.4080   -3.0080 c3        1 BYT     -0.111400
      6 C06        -0.2800    1.4790   -4.5300 c3        1 BYT      0.117800
      7 N07         0.7420    2.4310   -5.0500 ny        1 BYT     -0.701800
      8 C08         0.5560    2.8250   -6.4870 c         1 BYT      0.548100
      9 O09        -0.4370    2.4070   -7.0650 o         1 BYT     -0.432100
     10 C10         1.6470    3.6980   -7.0400 c3        1 BYT     -0.155400
     11 C11         1.2900    4.1810   -8.4330 c3        1 BYT     -0.080400
     12 C12         2.4010    5.0470   -8.9890 c3        1 BYT     -0.083400
     13 C13         2.0220    5.5850  -10.3560 c3        1 BYT     -0.070400
     14 C14         3.0760    6.5350  -10.8740 c3        1 BYT     -0.010600
     15 S15         3.1180    7.9980   -9.8510 ss        1 BYT     -0.308200
     16 C16         3.6800    9.0900  -11.1210 c3        1 BYT     -0.037300
     17 C17         3.3110    8.5100  -12.4800 c3        1 BYT      0.064700
     18 N18         2.1790    9.1310  -13.1590 ns        1 BYT     -0.517900
     19 C19         1.1110    8.1910  -13.2450 c         1 BYT      0.754500
     20 O20        -0.0400    8.4500  -13.6320 o         1 BYT     -0.608500
     21 N21         1.5800    6.8820  -12.9240 ns        1 BYT     -0.524900
     22 C22         2.9060    6.9740  -12.3310 c3        1 BYT      0.064700
     23 C23         2.4330    2.7550   -2.6140 c         1 BYT      0.902600
     24 O24         1.6820    3.7680   -2.7040 o         1 BYT     -0.799300
     25 O25         3.0870    2.2530   -3.5610 o         1 BYT     -0.799300
     26 H1          3.4940    3.4320   -0.0820 hn        1 BYT      0.458800
     27 H2          2.2460    2.6840    0.7410 hn        1 BYT      0.458800
     28 H4          3.4420    1.4230   -1.1850 hx        1 BYT      0.119700
     29 H5          0.4320    1.6190   -0.5620 hc        1 BYT      0.063200
     30 H6          1.5860    0.2330   -0.4250 hc        1 BYT      0.063200
     31 H7          0.3810   -0.4860   -2.2330 hc        1 BYT      0.074700
     32 H8          1.6460    0.4390   -3.1200 hc        1 BYT      0.074700
     33 H9         -1.3160    0.9750   -2.7290 hc        1 BYT      0.083700
     34 H10        -0.2780    2.4470   -2.5770 hc        1 BYT      0.083700
     35 H11        -1.2890    1.8190   -4.9080 hx        1 BYT      0.103700
     36 H12        -0.0650    0.4650   -4.9710 hx        1 BYT      0.103700
     37 H13         0.7490    3.2910   -4.4610 hn        1 BYT      0.495800
     38 H14         2.6040    3.1060   -7.0690 hc        1 BYT      0.106200
     39 H15         1.8140    4.5780   -6.3590 hc        1 BYT      0.106200
     40 H16         1.1150    3.3000   -9.1070 hc        1 BYT      0.067700
     41 H17         0.3320    4.7640   -8.3950 hc        1 BYT      0.067700
     42 H18         2.6000    5.9070   -8.2930 hc        1 BYT      0.058700
     43 H19         3.3470    4.4490   -9.0640 hc        1 BYT      0.058700
     44 H20         1.0310    6.1070  -10.2810 hc        1 BYT      0.061200
     45 H21         1.9070    4.7270  -11.0720 hc        1 BYT      0.061200
     46 H22         4.0800    6.0360  -10.7910 h1        1 BYT      0.082700
     47 H23         4.7890    9.2080  -11.0540 h1        1 BYT      0.087700
     48 H24         3.2260   10.0940  -10.9380 h1        1 BYT      0.087700
     49 H25         4.1970    8.5870  -13.1730 h1        1 BYT      0.095700
     50 H26         1.9360   10.0640  -12.9170 hn        1 BYT      0.320500
     51 H27         0.9200    6.2550  -12.5280 hn        1 BYT      0.314500
     52 H28         3.5960    6.3550  -12.9740 h1        1 BYT      0.091700
     53 H013        1.9130    3.8370   -0.4380 hn        1 BYT      0.458800
     54 H072        1.6910    2.0180   -4.9390 hn        1 BYT      0.495800
@<TRIPOS>BOND
     1    1    2 1   
     2    1   26 1   
     3    1   27 1   
     4    1   53 1   
     5    2    3 1   
     6    2   23 1   
     7    2   28 1   
     8    3    4 1   
     9    3   29 1   
    10    3   30 1   
    11    4    5 1   
    12    4   31 1   
    13    4   32 1   
    14    5    6 1   
    15    5   33 1   
    16    5   34 1   
    17    6    7 1   
    18    6   35 1   
    19    6   36 1   
    20    7    8 1   
    21    7   37 1   
    22    7   54 1   
    23    8    9 2   
    24    8   10 1   
    25   10   11 1   
    26   10   38 1   
    27   10   39 1   
    28   11   12 1   
    29   11   40 1   
    30   11   41 1   
    31   12   13 1   
    32   12   42 1   
    33   12   43 1   
    34   13   14 1   
    35   13   44 1   
    36   13   45 1   
    37   14   15 1   
    38   14   22 1   
    39   14   46 1   
    40   15   16 1   
    41   16   17 1   
    42   16   47 1   
    43   16   48 1   
    44   17   18 1   
    45   17   22 1   
    46   17   49 1   
    47   18   19 1   
    48   18   50 1   
    49   19   20 2   
    50   19   21 1   
    51   21   22 1   
    52   21   51 1   
    53   22   52 1   
    54   23   24 1   
    55   23   25 1   
@<TRIPOS>SUBSTRUCTURE
     1 BYT         1 TEMP              0 ****  ****    0 ROOT
