@<TRIPOS>MOLECULE
BYT
   52    53     1     0     0
SMALL
bcc


@<TRIPOS>ATOM
      1 N01         0.1290   -0.3390    0.0010 n3        1 BYT     -0.891800
      2 C02         1.4280    0.3010    0.1720 c3        1 BYT      0.018500
      3 C03         1.6290    1.5150   -0.7340 c3        1 BYT     -0.064400
      4 C04         1.6710    1.1440   -2.2010 c3        1 BYT     -0.073400
      5 C05         2.0310    2.3460   -3.0480 c3        1 BYT     -0.099400
      6 C06         2.1250    1.9510   -4.5210 c3        1 BYT      0.083000
      7 N07         2.6120    3.0080   -5.3710 n         1 BYT     -0.564900
      8 C08         2.0580    3.3030   -6.5960 c         1 BYT      0.651100
      9 O09         1.1730    2.5880   -7.1110 o         1 BYT     -0.620100
     10 C10         2.6110    4.5260   -7.3140 c3        1 BYT     -0.153400
     11 C11         1.9740    4.6850   -8.6770 c3        1 BYT     -0.072400
     12 C12         2.5560    5.8760   -9.4080 c3        1 BYT     -0.082400
     13 C13         1.9280    6.0260  -10.7800 c3        1 BYT     -0.072400
     14 C14         2.5010    7.2150  -11.5150 c3        1 BYT     -0.009600
     15 S15         1.9430    8.7310  -10.7530 ss        1 BYT     -0.284200
     16 C16         2.0990    9.7150  -12.2090 c3        1 BYT     -0.047300
     17 C17         1.9900    8.8160  -13.4340 c3        1 BYT      0.054700
     18 N18         0.7200    8.8590  -14.1550 n         1 BYT     -0.512900
     19 C19         0.0670    7.5940  -14.0090 c         1 BYT      0.748500
     20 O20        -1.0910    7.3530  -14.3930 o         1 BYT     -0.615500
     21 N21         0.9660    6.6220  -13.4790 n         1 BYT     -0.515900
     22 C22         2.1710    7.2910  -13.0060 c3        1 BYT      0.060700
     23 C23         1.7490    0.7340    1.6420 c         1 BYT      0.887600
     24 O24         0.9020    0.4630    2.5410 o         1 BYT     -0.844300
     25 O25         2.8500    1.3150    1.8510 o         1 BYT     -0.844300
     26 H1         -0.5850    0.3630    0.0860 hn        1 BYT      0.330800
     27 H2          0.0010   -0.9630    0.7820 hn        1 BYT      0.330800
     28 H4          2.2020   -0.4750   -0.1020 h1        1 BYT      0.040700
     29 H5          0.8150    2.2660   -0.5590 hc        1 BYT      0.046700
     30 H6          2.5990    1.9930   -0.4300 hc        1 BYT      0.046700
     31 H7          2.4290    0.3320   -2.3590 hc        1 BYT      0.041200
     32 H8          0.6770    0.7370   -2.5230 hc        1 BYT      0.041200
     33 H9          3.0100    2.7670   -2.6950 hc        1 BYT      0.038700
     34 H10         1.2560    3.1460   -2.9150 hc        1 BYT      0.038700
     35 H11         1.1120    1.6190   -4.8890 h1        1 BYT      0.057200
     36 H12         2.8280    1.0730   -4.6190 h1        1 BYT      0.057200
     37 H13         3.2430    3.6560   -4.9640 hn        1 BYT      0.302500
     38 H14         2.4100    5.4380   -6.6910 hc        1 BYT      0.058700
     39 H15         3.7230    4.4230   -7.4220 hc        1 BYT      0.058700
     40 H16         0.8650    4.8060   -8.5570 hc        1 BYT      0.061200
     41 H17         2.1340    3.7480   -9.2730 hc        1 BYT      0.061200
     42 H18         3.6660    5.7490   -9.5110 hc        1 BYT      0.046200
     43 H19         2.3810    6.8120   -8.8130 hc        1 BYT      0.046200
     44 H20         0.8170    6.1350  -10.6650 hc        1 BYT      0.058700
     45 H21         2.1210    5.0930  -11.3760 hc        1 BYT      0.058700
     46 H22         3.6210    7.1840  -11.4240 h1        1 BYT      0.081700
     47 H23         3.0890   10.2330  -12.2160 h1        1 BYT      0.080200
     48 H24         1.3100   10.5070  -12.1780 h1        1 BYT      0.080200
     49 H25         2.7970    9.0860  -14.1720 h1        1 BYT      0.085700
     50 H26         0.1430    9.6570  -14.0140 hn        1 BYT      0.308500
     51 H27         0.5650    5.9140  -12.9070 hn        1 BYT      0.320500
     52 H28         3.0330    6.8520  -13.5870 h1        1 BYT      0.085700
@<TRIPOS>BOND
     1    1    2 1   
     2    1   26 1   
     3    1   27 1   
     4    2    3 1   
     5    2   23 1   
     6    2   28 1   
     7    3    4 1   
     8    3   29 1   
     9    3   30 1   
    10    4    5 1   
    11    4   31 1   
    12    4   32 1   
    13    5    6 1   
    14    5   33 1   
    15    5   34 1   
    16    6    7 1   
    17    6   35 1   
    18    6   36 1   
    19    7    8 1   
    20    7   37 1   
    21    8    9 2   
    22    8   10 1   
    23   10   11 1   
    24   10   38 1   
    25   10   39 1   
    26   11   12 1   
    27   11   40 1   
    28   11   41 1   
    29   12   13 1   
    30   12   42 1   
    31   12   43 1   
    32   13   14 1   
    33   13   44 1   
    34   13   45 1   
    35   14   15 1   
    36   14   22 1   
    37   14   46 1   
    38   15   16 1   
    39   16   17 1   
    40   16   47 1   
    41   16   48 1   
    42   17   18 1   
    43   17   22 1   
    44   17   49 1   
    45   18   19 1   
    46   18   50 1   
    47   19   20 2   
    48   19   21 1   
    49   21   22 1   
    50   21   51 1   
    51   22   52 1   
    52   23   24 1   
    53   23   25 1   
@<TRIPOS>SUBSTRUCTURE
     1 BYT         1 TEMP              0 ****  ****    0 ROOT
