@<TRIPOS>MOLECULE
BYZ
    9     6     1     0     0
SMALL
bcc


@<TRIPOS>ATOM
      1 BR4        -2.7660    0.0000   -0.1360 br        1 BYZ     -0.015700
      2 C4         -0.8550    0.0000   -0.1360 ce        1 BYZ     -0.206100
      3 C5         -0.0520    0.0000    0.9680 cg        1 BYZ      0.182000
      4 N1          1.2310   -0.0000    0.5510 n1        1 BYZ     -0.550600
      5 N2          1.2310   -0.0000   -0.8210 ne        1 BYZ     -0.236600
      6 C3         -0.0510   -0.0000   -1.2400 c1        1 BYZ      0.173000
      7 H1         -0.3540    0.0000    1.8960 DU        1 BYZ      0.218000
      8 H2          1.9690   -0.0000    1.0870 DU        1 BYZ      0.218000
      9 H3         -0.3520   -0.0000   -2.1680 DU        1 BYZ      0.218000
@<TRIPOS>BOND
     1    1    2 1   
     2    2    3 1   
     3    2    6 2   
     4    3    4 3   
     5    4    5 1   
     6    5    6 2   
@<TRIPOS>SUBSTRUCTURE
     1 BYZ         1 TEMP              0 ****  ****    0 ROOT
