@<TRIPOS>MOLECULE
BYZ
    9     9     1     0     0
SMALL
bcc


@<TRIPOS>ATOM
      1 BR4         1.4400    0.0310    0.0010 br        1 BYZ     -0.030100
      2 C4         -0.3840   -0.0050    0.0010 cc        1 BYZ     -0.227200
      3 C5         -1.2320   -1.1290    0.0010 cd        1 BYZ     -0.108300
      4 N1         -2.5330   -0.6330    0.0010 na        1 BYZ     -0.017600
      5 N2         -2.5720    0.7010    0.0010 nd        1 BYZ     -0.511800
      6 C3         -1.2860    1.1310    0.0010 cc        1 BYZ      0.328200
      7 H1         -1.0060   -2.1950    0.0010 h4        1 BYZ      0.187000
      8 H2         -3.3750   -1.1600    0.0010 hn        1 BYZ      0.325700
      9 H3         -1.0210    2.1890    0.0010 h4        1 BYZ      0.054100
@<TRIPOS>BOND
     1    1    2 1   
     2    2    3 2   
     3    2    6 1   
     4    3    4 1   
     5    3    7 1   
     6    4    5 1   
     7    4    8 1   
     8    5    6 2   
     9    6    9 1   
@<TRIPOS>SUBSTRUCTURE
     1 BYZ         1 TEMP              0 ****  ****    0 ROOT
