@<TRIPOS>MOLECULE
BZ0
   41    43     1     0     0
SMALL
bcc


@<TRIPOS>ATOM
      1 CAW         4.4720   -0.3250   -0.5150 ca        1 BZ0     -0.114500
      2 CAX         5.2990   -1.2830   -1.0990 ca        1 BZ0     -0.127000
      3 CBA         5.4480   -2.5350   -0.5020 ca        1 BZ0     -0.118000
      4 CAZ         4.7710   -2.8290    0.6810 ca        1 BZ0     -0.127000
      5 CAY         3.9380   -1.8750    1.2650 ca        1 BZ0     -0.114500
      6 CAV         3.7830   -0.6210    0.6660 ca        1 BZ0     -0.126300
      7 CAU         2.9290    0.4270    1.3170 c3        1 BZ0      0.132300
      8 NAN         1.8230    0.9170    0.5120 n         1 BZ0     -0.391000
      9 CAO         0.6700    0.1320    0.2790 cc        1 BZ0      0.357600
     10 NAP         0.6670   -1.2040    0.6460 nh        1 BZ0     -0.821600
     11 CAM         1.9720    2.1850   -0.1080 c         1 BZ0      0.817500
     12 OAL         3.0550    2.8070   -0.0360 o         1 BZ0     -0.647500
     13 NAD         0.8820    2.7400   -0.7790 n         1 BZ0     -0.575500
     14 CAE        -0.3490    2.0820   -0.9050 c         1 BZ0      0.724700
     15 OAA        -1.2740    2.6700   -1.4990 o         1 BZ0     -0.638500
     16 CAF        -0.4400    0.7200   -0.3590 cd        1 BZ0     -0.265600
     17 NAG        -1.6500    0.0310   -0.5900 n         1 BZ0     -0.417100
     18 OAC        -1.9980   -0.6120    1.6000 o         1 BZ0     -0.623100
     19 CA0        -2.4580   -0.4160    0.4540 c         1 BZ0      0.659700
     20 CAT        -3.8740   -0.7460    0.1260 ca        1 BZ0     -0.145600
     21 CAS        -4.8440   -0.5060    1.1080 ca        1 BZ0     -0.088500
     22 CAR        -6.1820   -0.7980    0.8500 ca        1 BZ0     -0.138000
     23 CAI        -6.5550   -1.3370   -0.3820 ca        1 BZ0     -0.106000
     24 CAJ        -5.5870   -1.5880   -1.3550 ca        1 BZ0     -0.138000
     25 CAK        -4.2470   -1.2930   -1.1060 ca        1 BZ0     -0.088500
     26 HAY         3.4150   -2.1100    2.2050 ha        1 BZ0      0.139500
     27 HAZ         4.8930   -3.8130    1.1570 ha        1 BZ0      0.136500
     28 HBA         6.1020   -3.2910   -0.9630 ha        1 BZ0      0.136000
     29 HAX         5.8370   -1.0480   -2.0290 ha        1 BZ0      0.136500
     30 HAW         4.3620    0.6720   -0.9720 ha        1 BZ0      0.139500
     31 HAU1        2.5080    0.0380    2.2900 h1        1 BZ0      0.083700
     32 HAU2        3.5920    1.3120    1.5650 h1        1 BZ0      0.083700
     33 HAP1        1.4140   -1.5480    1.2060 hn        1 BZ0      0.437300
     34 HAP2       -0.2260   -1.6060    0.8400 hn        1 BZ0      0.437300
     35 HAD         0.9970    3.6530   -1.1650 hn        1 BZ0      0.357500
     36 HAG        -2.1250    0.3420   -1.4150 hn        1 BZ0      0.326500
     37 HAS        -4.5360   -0.0950    2.0830 ha        1 BZ0      0.147000
     38 HAK        -3.4940   -1.5080   -1.8790 ha        1 BZ0      0.147000
     39 HAR        -6.9430   -0.6040    1.6200 ha        1 BZ0      0.138000
     40 HAI        -7.6110   -1.5670   -0.5850 ha        1 BZ0      0.136000
     41 HAJ        -5.8800   -2.0200   -2.3240 ha        1 BZ0      0.138000
@<TRIPOS>BOND
     1    1    2 ar  
     2    1    6 ar  
     3    1   30 1   
     4    2    3 ar  
     5    2   29 1   
     6    3    4 ar  
     7    3   28 1   
     8    4    5 ar  
     9    4   27 1   
    10    5    6 ar  
    11    5   26 1   
    12    6    7 1   
    13    7    8 1   
    14    7   31 1   
    15    7   32 1   
    16    8    9 1   
    17    8   11 1   
    18    9   10 1   
    19    9   16 2   
    20   10   33 1   
    21   10   34 1   
    22   11   12 2   
    23   11   13 1   
    24   13   14 1   
    25   13   35 1   
    26   14   15 2   
    27   14   16 1   
    28   16   17 1   
    29   17   19 1   
    30   17   36 1   
    31   18   19 2   
    32   19   20 1   
    33   20   21 ar  
    34   20   25 ar  
    35   21   22 ar  
    36   21   37 1   
    37   22   23 ar  
    38   22   39 1   
    39   23   24 ar  
    40   23   40 1   
    41   24   25 ar  
    42   24   41 1   
    43   25   38 1   
@<TRIPOS>SUBSTRUCTURE
     1 BZ0         1 TEMP              0 ****  ****    0 ROOT
