@<TRIPOS>MOLECULE
BZ0
   43    45     1     0     0
SMALL
bcc


@<TRIPOS>ATOM
      1 CAW         0.1040   -0.4550    0.4290 ca        1 BZ0     -0.134000
      2 CAX         1.3090    0.1950    0.7040 ca        1 BZ0     -0.108000
      3 CBA         1.3340    1.2840    1.5750 ca        1 BZ0     -0.073000
      4 CAZ         0.1520    1.7250    2.1790 ca        1 BZ0     -0.108000
      5 CAY        -1.0520    1.0760    1.9150 ca        1 BZ0     -0.134000
      6 CAV        -1.0790   -0.0220    1.0380 ca        1 BZ0     -0.226300
      7 CAU        -2.3950   -0.6070    0.6380 c3        1 BZ0      0.098300
      8 NAN        -2.5990   -2.0070    1.0410 n         1 BZ0     -0.346000
      9 CAO        -2.4730   -2.4250    2.3460 cc        1 BZ0      0.276600
     10 NAP        -2.0620   -1.4010    3.3410 n4        1 BZ0     -0.764400
     11 CAM        -2.9560   -2.9550   -0.0030 c         1 BZ0      0.815500
     12 OAL        -3.0300   -2.5690   -1.1720 o         1 BZ0     -0.482500
     13 NAD        -3.2080   -4.2800    0.3680 n         1 BZ0     -0.542500
     14 CAE        -3.1220   -4.7390    1.6690 c         1 BZ0      0.739700
     15 OAA        -3.3550   -5.9210    1.9680 o         1 BZ0     -0.564500
     16 CAF        -2.7220   -3.7440    2.7230 cd        1 BZ0     -0.250200
     17 NAG        -2.6300   -4.3070    4.0570 n4        1 BZ0     -0.547600
     18 OAC        -3.5630   -2.6230    5.3260 o         1 BZ0     -0.541100
     19 CA0        -3.7180   -3.8100    5.0360 c         1 BZ0      0.624700
     20 CAT        -4.6870   -4.7620    5.5120 ca        1 BZ0     -0.231600
     21 CAS        -5.3860   -4.3990    6.6900 ca        1 BZ0     -0.045000
     22 CAR        -6.3360   -5.2600    7.2260 ca        1 BZ0     -0.127000
     23 CAI        -6.6120   -6.4790    6.6010 ca        1 BZ0     -0.002000
     24 CAJ        -5.9360   -6.8350    5.4260 ca        1 BZ0     -0.127000
     25 CAK        -4.9810   -5.9890    4.8790 ca        1 BZ0     -0.045000
     26 HAY        -1.9880    1.4820    2.3300 ha        1 BZ0      0.147500
     27 HAZ         0.1690    2.6070    2.8420 ha        1 BZ0      0.176000
     28 HBA         2.2830    1.8150    1.7710 ha        1 BZ0      0.180000
     29 HAX         2.2370   -0.1380    0.2080 ha        1 BZ0      0.176000
     30 HAW         0.0850   -1.2840   -0.2960 ha        1 BZ0      0.147500
     31 HAU1       -2.4770   -0.5600   -0.4960 h1        1 BZ0      0.126200
     32 HAU2       -3.2540   -0.0060    1.0600 h1        1 BZ0      0.126200
     33 HAP1       -1.1400   -0.9900    3.0640 hn        1 BZ0      0.500133
     34 HAP2       -2.7560   -0.6310    3.3490 hn        1 BZ0      0.500133
     35 HAD        -3.4660   -4.9230   -0.3670 hn        1 BZ0      0.414500
     36 HAG        -2.7190   -5.3430    3.9650 hn        1 BZ0      0.481800
     37 HAS        -5.1700   -3.4340    7.1810 ha        1 BZ0      0.164000
     38 HAK        -4.5000   -6.2940    3.9330 ha        1 BZ0      0.164000
     39 HAR        -6.8750   -4.9760    8.1470 ha        1 BZ0      0.186500
     40 HAI        -7.3680   -7.1630    7.0300 ha        1 BZ0      0.187000
     41 HAJ        -6.1680   -7.7930    4.9290 ha        1 BZ0      0.186500
     42 HAP3       -2.0050   -1.7850    4.2950 hn        1 BZ0      0.500133
     43 HAG2       -1.7050   -4.1150    4.4590 hn        1 BZ0      0.481800
@<TRIPOS>BOND
     1    1    2 ar  
     2    1    6 ar  
     3    1   30 1   
     4    2    3 ar  
     5    2   29 1   
     6    3    4 ar  
     7    3   28 1   
     8    4    5 ar  
     9    4   27 1   
    10    5    6 ar  
    11    5   26 1   
    12    6    7 1   
    13    7    8 1   
    14    7   31 1   
    15    7   32 1   
    16    8    9 1   
    17    8   11 1   
    18    9   10 1   
    19    9   16 2   
    20   10   33 1   
    21   10   34 1   
    22   10   42 1   
    23   11   12 2   
    24   11   13 1   
    25   13   14 1   
    26   13   35 1   
    27   14   15 2   
    28   14   16 1   
    29   16   17 1   
    30   17   19 1   
    31   17   36 1   
    32   17   43 1   
    33   18   19 2   
    34   19   20 1   
    35   20   21 ar  
    36   20   25 ar  
    37   21   22 ar  
    38   21   37 1   
    39   22   23 ar  
    40   22   39 1   
    41   23   24 ar  
    42   23   40 1   
    43   24   25 ar  
    44   24   41 1   
    45   25   38 1   
@<TRIPOS>SUBSTRUCTURE
     1 BZ0         1 TEMP              0 ****  ****    0 ROOT
