@<TRIPOS>MOLECULE
BZ0
   41    38     1     0     0
SMALL
bcc


@<TRIPOS>ATOM
      1 CAW         0.2720   -5.0240    1.6510 c1        1 BZ0     -0.132000
      2 CAX        -0.5530   -6.0780    1.9920 c1        1 BZ0     -0.119000
      3 CBA        -1.8060   -6.1960    1.4080 c1        1 BZ0     -0.119000
      4 CAZ        -2.2280   -5.2630    0.4900 c1        1 BZ0     -0.119000
      5 CAY        -1.3930   -4.1940    0.1450 c1        1 BZ0     -0.119000
      6 CAV        -0.1530   -4.0780    0.7220 c1        1 BZ0     -0.124000
      7 CAU         0.7890   -2.9470    0.2920 c3        1 BZ0      0.008000
      8 NAN         0.2310   -1.6790    0.6900 n         1 BZ0     -0.280000
      9 CAO         0.5470   -0.4920   -0.0550 c2        1 BZ0      0.267000
     10 NAP         1.2000   -0.5950   -1.2960 nh        1 BZ0     -0.322000
     11 CAM        -0.5690   -1.5830    1.9310 c2        1 BZ0      0.408000
     12 OAL        -0.9460   -2.5990    2.4920 o         1 BZ0     -0.370000
     13 NAD        -0.9210   -0.2660    2.4840 n         1 BZ0     -0.355000
     14 CAE        -0.5540    0.9320    1.7780 c2        1 BZ0      0.362000
     15 OAA        -0.7800    2.0230    2.2720 o         1 BZ0     -0.369000
     16 CAF         0.1770    0.8370    0.4820 c2        1 BZ0     -0.252000
     17 NAG         0.6710    2.0420   -0.1610 n         1 BZ0     -0.263000
     18 OAC        -1.4480    2.7530   -0.7070 o         1 BZ0     -0.375000
     19 CA0        -0.2560    2.9750   -0.7490 c2        1 BZ0      0.333000
     20 CAT         0.2480    4.2780   -1.3240 c2        1 BZ0     -0.129000
     21 CAS         0.4430    4.4020   -2.6980 c2        1 BZ0     -0.077000
     22 CAR         0.8970    5.5980   -3.2290 c1        1 BZ0     -0.140000
     23 CAI         1.1570    6.6650   -2.4000 c1        1 BZ0     -0.119000
     24 CAJ         0.9630    6.5430   -1.0240 c1        1 BZ0     -0.119000
     25 CAK         0.5080    5.3460   -0.4920 c1        1 BZ0     -0.099000
     26 HAY        -1.6870   -3.5410   -0.4970 ha        1 BZ0      0.139500
     27 HAZ        -3.0890   -5.3440    0.0890 ha        1 BZ0      0.139500
     28 HBA        -2.4020   -6.9580    1.6540 ha        1 BZ0      0.139500
     29 HAX        -0.2560   -6.7350    2.6380 ha        1 BZ0      0.139500
     30 HAW         1.1530   -4.9420    2.0620 ha        1 BZ0      0.132000
     31 HAU1        0.8980   -2.9650   -0.6880 h1        1 BZ0      0.127000
     32 HAU2        1.6550   -3.0680    0.7160 h1        1 BZ0      0.127000
     33 HAP1        0.8830   -1.1540   -1.9230 hn        1 BZ0      0.228000
     34 HAP2        1.9110   -0.0430   -1.4890 hn        1 BZ0      0.228000
     35 HAD        -1.4140   -0.2110    3.2480 hn        1 BZ0      0.271000
     36 HAG         1.5630    2.1690   -0.2600 hn        1 BZ0      0.236000
     37 HAS         0.2620    3.6650   -3.2720 ha        1 BZ0      0.150000
     38 HAK         0.3770    5.2600    0.4460 ha        1 BZ0      0.149000
     39 HAR         1.0330    5.6840   -4.1940 ha        1 BZ0      0.138000
     40 HAI         1.4740    7.5010   -2.7730 ha        1 BZ0      0.139500
     41 HAJ         1.1420    7.2810   -0.4510 ha        1 BZ0      0.139500
@<TRIPOS>BOND
     1    1    6 1   
     2    1   30 1   
     3    2    3 1   
     4    2   29 1   
     5    3   28 1   
     6    4    5 1   
     7    4   27 1   
     8    5   26 1   
     9    6    7 1   
    10    7    8 1   
    11    7   31 1   
    12    7   32 1   
    13    8    9 1   
    14    8   11 1   
    15    9   10 1   
    16    9   16 1   
    17   10   33 1   
    18   10   34 1   
    19   11   12 1   
    20   11   13 1   
    21   13   14 1   
    22   13   35 1   
    23   14   15 1   
    24   14   16 1   
    25   16   17 1   
    26   17   19 1   
    27   17   36 1   
    28   18   19 1   
    29   19   20 1   
    30   20   21 1   
    31   20   25 1   
    32   21   22 1   
    33   21   37 1   
    34   22   39 1   
    35   23   24 1   
    36   23   40 1   
    37   24   41 1   
    38   25   38 1   
@<TRIPOS>SUBSTRUCTURE
     1 BZ0         1 TEMP              0 ****  ****    0 ROOT
