@<TRIPOS>MOLECULE
BZ0
   43    45     1     0     0
SMALL
bcc


@<TRIPOS>ATOM
      1 CAW         0.1360   -0.4700    0.4520 ca        1 BZ0     -0.134000
      2 CAX         1.3320    0.1900    0.7400 ca        1 BZ0     -0.108000
      3 CBA         1.3360    1.2900    1.5970 ca        1 BZ0     -0.073000
      4 CAZ         0.1410    1.7310    2.1750 ca        1 BZ0     -0.108000
      5 CAY        -1.0540    1.0720    1.8970 ca        1 BZ0     -0.134000
      6 CAV        -1.0600   -0.0370    1.0340 ca        1 BZ0     -0.226300
      7 CAU        -2.3650   -0.6340    0.6180 c3        1 BZ0      0.098300
      8 NAN        -2.5680   -2.0310    1.0350 n         1 BZ0     -0.346000
      9 CAO        -2.4630   -2.4310    2.3480 cc        1 BZ0      0.276600
     10 NAP        -2.0750   -1.3920    3.3360 nz        1 BZ0     -0.764400
     11 CAM        -2.9020   -2.9940   -0.0030 c         1 BZ0      0.815500
     12 OAL        -2.9580   -2.6220   -1.1770 o         1 BZ0     -0.482500
     13 NAD        -3.1530   -4.3150    0.3810 ns        1 BZ0     -0.542500
     14 CAE        -3.0870   -4.7570    1.6890 c         1 BZ0      0.739700
     15 OAA        -3.3180   -5.9370    1.9980 o         1 BZ0     -0.564500
     16 CAF        -2.7110   -3.7470    2.7370 cd        1 BZ0     -0.250200
     17 NAG        -2.6390   -4.2920    4.0790 ny        1 BZ0     -0.547600
     18 OAC        -3.6040   -2.5980    5.3100 o         1 BZ0     -0.541100
     19 CA0        -3.7480   -3.7900    5.0330 c         1 BZ0      0.624700
     20 CAT        -4.7180   -4.7420    5.5040 ca        1 BZ0     -0.231600
     21 CAS        -5.4410   -4.3690    6.6640 ca        1 BZ0     -0.045000
     22 CAR        -6.3950   -5.2290    7.1940 ca        1 BZ0     -0.127000
     23 CAI        -6.6520   -6.4580    6.5810 ca        1 BZ0     -0.002000
     24 CAJ        -5.9530   -6.8240    5.4220 ca        1 BZ0     -0.127000
     25 CAK        -4.9940   -5.9790    4.8810 ca        1 BZ0     -0.045000
     26 HAY        -2.0000    1.4780    2.2910 ha        1 BZ0      0.147500
     27 HAZ         0.1410    2.6220    2.8270 ha        1 BZ0      0.176000
     28 HBA         2.2780    1.8280    1.8030 ha        1 BZ0      0.180000
     29 HAX         2.2710   -0.1440    0.2650 ha        1 BZ0      0.176000
     30 HAW         0.1340   -1.3090   -0.2630 ha        1 BZ0      0.147500
     31 HAU1       -2.4280   -0.6020   -0.5170 h1        1 BZ0      0.126200
     32 HAU2       -3.2350   -0.0330    1.0180 h1        1 BZ0      0.126200
     33 HAP1       -1.1520   -0.9790    3.0710 hn        1 BZ0      0.500133
     34 HAP2       -2.7740   -0.6270    3.3230 hn        1 BZ0      0.500133
     35 HAD        -3.3940   -4.9690   -0.3510 hn        1 BZ0      0.414500
     36 HAG        -2.7210   -5.3300    3.9980 hn        1 BZ0      0.481800
     37 HAS        -5.2390   -3.3960    7.1470 ha        1 BZ0      0.164000
     38 HAK        -4.4950   -6.2930    3.9480 ha        1 BZ0      0.164000
     39 HAR        -6.9510   -4.9370    8.1030 ha        1 BZ0      0.186500
     40 HAI        -7.4110   -7.1410    7.0050 ha        1 BZ0      0.187000
     41 HAJ        -6.1710   -7.7900    4.9340 ha        1 BZ0      0.186500
     42 HAP3       -2.0340   -1.7640    4.2960 hn        1 BZ0      0.500133
     43 HAG2       -1.7220   -4.0900    4.4950 hn        1 BZ0      0.481800
@<TRIPOS>BOND
     1    1    2 ar  
     2    1    6 ar  
     3    1   30 1   
     4    2    3 ar  
     5    2   29 1   
     6    3    4 ar  
     7    3   28 1   
     8    4    5 ar  
     9    4   27 1   
    10    5    6 ar  
    11    5   26 1   
    12    6    7 1   
    13    7    8 1   
    14    7   31 1   
    15    7   32 1   
    16    8    9 1   
    17    8   11 1   
    18    9   10 1   
    19    9   16 2   
    20   10   33 1   
    21   10   34 1   
    22   10   42 1   
    23   11   12 2   
    24   11   13 1   
    25   13   14 1   
    26   13   35 1   
    27   14   15 2   
    28   14   16 1   
    29   16   17 1   
    30   17   19 1   
    31   17   36 1   
    32   17   43 1   
    33   18   19 2   
    34   19   20 1   
    35   20   21 ar  
    36   20   25 ar  
    37   21   22 ar  
    38   21   37 1   
    39   22   23 ar  
    40   22   39 1   
    41   23   24 ar  
    42   23   40 1   
    43   24   25 ar  
    44   24   41 1   
    45   25   38 1   
@<TRIPOS>SUBSTRUCTURE
     1 BZ0         1 TEMP              0 ****  ****    0 ROOT
