@<TRIPOS>MOLECULE
BZ0
   43    45     1     0     0
SMALL
bcc


@<TRIPOS>ATOM
      1 CAW         0.1120   -0.4440    0.4470 ca        1 BZ0     -0.134000
      2 CAX         1.3260    0.1880    0.7250 ca        1 BZ0     -0.108000
      3 CBA         1.3690    1.2620    1.6140 ca        1 BZ0     -0.073000
      4 CAZ         0.1950    1.7060    2.2330 ca        1 BZ0     -0.108000
      5 CAY        -1.0170    1.0740    1.9660 ca        1 BZ0     -0.134000
      6 CAV        -1.0630   -0.0090    1.0710 ca        1 BZ0     -0.226300
      7 CAU        -2.3870   -0.5720    0.6700 c3        1 BZ0      0.098300
      8 NAN        -2.6040   -1.9760    1.0510 n         1 BZ0     -0.346000
      9 CAO        -2.4740   -2.4170    2.3490 cc        1 BZ0      0.276600
     10 NAP        -2.0450   -1.4140    3.3570 n4        1 BZ0     -0.764400
     11 CAM        -2.9790   -2.9030   -0.0060 c         1 BZ0      0.815500
     12 OAL        -3.0560   -2.4960   -1.1670 o         1 BZ0     -0.482500
     13 NAD        -3.2430   -4.2310    0.3450 n         1 BZ0     -0.542500
     14 CAE        -3.1540   -4.7120    1.6380 c         1 BZ0      0.739700
     15 OAA        -3.3980   -5.8960    1.9180 o         1 BZ0     -0.564500
     16 CAF        -2.7360   -3.7400    2.7050 cd        1 BZ0     -0.250200
     17 NAG        -2.6410   -4.3250    4.0290 n4        1 BZ0     -0.547600
     18 OAC        -3.5460   -2.6530    5.3320 o         1 BZ0     -0.541100
     19 CA0        -3.7170   -3.8330    5.0240 c         1 BZ0      0.624700
     20 CAT        -4.6930   -4.7820    5.4900 ca        1 BZ0     -0.231600
     21 CAS        -5.3810   -4.4310    6.6780 ca        1 BZ0     -0.045000
     22 CAR        -6.3370   -5.2900    7.2060 ca        1 BZ0     -0.127000
     23 CAI        -6.6310   -6.4950    6.5630 ca        1 BZ0     -0.002000
     24 CAJ        -5.9660   -6.8380    5.3780 ca        1 BZ0     -0.127000
     25 CAK        -5.0050   -5.9950    4.8380 ca        1 BZ0     -0.045000
     26 HAY        -1.9460    1.4840    2.3940 ha        1 BZ0      0.147500
     27 HAZ         0.2270    2.5760    2.9100 ha        1 BZ0      0.176000
     28 HBA         2.3250    1.7790    1.8120 ha        1 BZ0      0.180000
     29 HAX         2.2470   -0.1470    0.2170 ha        1 BZ0      0.176000
     30 HAW         0.0790   -1.2610   -0.2920 ha        1 BZ0      0.147500
     31 HAU1       -2.4770   -0.5050   -0.4620 h1        1 BZ0      0.126200
     32 HAU2       -3.2370    0.0320    1.1090 h1        1 BZ0      0.126200
     33 HAP1       -1.1210   -1.0090    3.0810 hn        1 BZ0      0.500133
     34 HAP2       -2.7300   -0.6380    3.3830 hn        1 BZ0      0.500133
     35 HAD        -3.5130   -4.8590   -0.3990 hn        1 BZ0      0.414500
     36 HAG        -1.7110   -4.1510    4.4280 hn        1 BZ0      0.481800
     37 HAS        -5.1510   -3.4770    7.1840 ha        1 BZ0      0.164000
     38 HAK        -4.5350   -6.2890    3.8850 ha        1 BZ0      0.164000
     39 HAR        -6.8660   -5.0150    8.1360 ha        1 BZ0      0.186500
     40 HAI        -7.3920   -7.1780    6.9860 ha        1 BZ0      0.187000
     41 HAJ        -6.2130   -7.7860    4.8670 ha        1 BZ0      0.186500
     42 HAP3       -1.9860   -1.8150    4.3040 hn        1 BZ0      0.500133
     43 HAG2       -2.7430   -5.3590    3.9200 hn        1 BZ0      0.481800
@<TRIPOS>BOND
     1    1    2 ar  
     2    1    6 ar  
     3    1   30 1   
     4    2    3 ar  
     5    2   29 1   
     6    3    4 ar  
     7    3   28 1   
     8    4    5 ar  
     9    4   27 1   
    10    5    6 ar  
    11    5   26 1   
    12    6    7 1   
    13    7    8 1   
    14    7   31 1   
    15    7   32 1   
    16    8    9 1   
    17    8   11 1   
    18    9   10 1   
    19    9   16 2   
    20   10   33 1   
    21   10   34 1   
    22   10   42 1   
    23   11   12 2   
    24   11   13 1   
    25   13   14 1   
    26   13   35 1   
    27   14   15 2   
    28   14   16 1   
    29   16   17 1   
    30   17   19 1   
    31   17   36 1   
    32   17   43 1   
    33   18   19 2   
    34   19   20 1   
    35   20   21 ar  
    36   20   25 ar  
    37   21   22 ar  
    38   21   37 1   
    39   22   23 ar  
    40   22   39 1   
    41   23   24 ar  
    42   23   40 1   
    43   24   25 ar  
    44   24   41 1   
    45   25   38 1   
@<TRIPOS>SUBSTRUCTURE
     1 BZ0         1 TEMP              0 ****  ****    0 ROOT
