@<TRIPOS>MOLECULE
BZ1
   44    45     1     0     0
SMALL
bcc


@<TRIPOS>ATOM
      1 C3         -4.5600   -0.2720   -0.2190 c3        1 BZ1     -0.102400
      2 C9          0.6200    0.6540   -0.0360 cc        1 BZ1     -0.066300
      3 C10         0.4650   -0.7440   -0.2140 cd        1 BZ1     -0.467600
      4 C11        -0.4920    1.6630   -0.0670 c3        1 BZ1      0.214800
      5 C12        -1.7310    1.0570   -0.8040 c3        1 BZ1      0.216800
      6 C4         -5.7010   -0.4720    0.7620 c3        1 BZ1      0.129400
      7 C5          1.0370    5.1020   -0.4130 c3        1 BZ1     -0.105100
      8 S2          1.9000   -1.4810   -0.0680 ss        1 BZ1      0.547200
      9 N2          4.6120   -0.2780    2.0390 n3        1 BZ1     -1.027700
     10 O3          4.7600    1.3850    0.2320 o         1 BZ1     -0.653800
     11 O4          5.1180   -0.9510   -0.2620 o         1 BZ1     -0.653800
     12 C7          2.7890   -0.1650    0.2260 cd        1 BZ1     -0.505600
     13 C8          1.9630    0.9810    0.2150 cc        1 BZ1     -0.076000
     14 S3         -1.0280   -1.4650   -0.5620 sy        1 BZ1      1.542200
     15 O2         -1.2360   -2.5120    0.3580 o         1 BZ1     -0.649800
     16 O5         -1.0080   -1.8570   -1.9090 o         1 BZ1     -0.649800
     17 N3         -2.0660   -0.2470   -0.3030 n3        1 BZ1     -0.805500
     18 C2         -3.2320   -0.3690    0.5320 c3        1 BZ1      0.225800
     19 O1         -6.9060   -0.2610    0.0290 os        1 BZ1     -0.419600
     20 C1         -8.0650   -0.4740    0.8150 c3        1 BZ1      0.115700
     21 H31        -4.6220   -1.0480   -1.0250 hc        1 BZ1      0.066200
     22 H32        -4.6630    0.7290   -0.7130 hc        1 BZ1      0.066200
     23 H11        -0.7970    1.8420    1.0110 h1        1 BZ1      0.074700
     24 H121       -2.5990    1.7620   -0.6800 h1        1 BZ1      0.076200
     25 H122       -1.5080    0.9760   -1.9080 h1        1 BZ1      0.076200
     26 H41        -5.6910   -1.5120    1.1860 h1        1 BZ1      0.027200
     27 H42        -5.6440    0.2670    1.6070 h1        1 BZ1      0.027200
     28 H51         1.9760    4.7520   -0.9060 hc        1 BZ1      0.046033
     29 H52         0.3920    5.5900   -1.1830 hc        1 BZ1      0.046033
     30 H53         1.3040    5.8620    0.3600 hc        1 BZ1      0.046033
     31 H61         0.9910    3.5160    1.0520 h1        1 BZ1      0.030700
     32 H62        -0.5990    4.3510    0.7960 h1        1 BZ1      0.030700
     33 HN21        4.4720    0.3910    2.7540 hn        1 BZ1      0.450300
     34 HN22        4.9040   -1.1550    2.3900 hn        1 BZ1      0.450300
     35 H8          2.3450    1.9990    0.3620 ha        1 BZ1      0.182000
     36 HN1         0.4640    2.8290   -1.4420 hn        1 BZ1      0.376800
     37 H21        -3.2080    0.4360    1.3230 h1        1 BZ1      0.058200
     38 H22        -3.1850   -1.3690    1.0600 h1        1 BZ1      0.058200
     39 H11A       -8.0910    0.2340    1.6800 h1        1 BZ1      0.034033
     40 H12        -8.9150   -0.2730    0.1170 h1        1 BZ1      0.034033
     41 H13        -8.1020   -1.5280    1.1860 h1        1 BZ1      0.034033
     42 N1         -0.1630    2.9430   -0.6680 n3        1 BZ1     -0.827200
     43 S1          4.4400    0.0370    0.4800 sy        1 BZ1      1.562200
     44 C6          0.3100    3.9510    0.2620 c3        1 BZ1      0.166800
@<TRIPOS>BOND
     1    1    6 1   
     2    1   18 1   
     3    1   21 1   
     4    1   22 1   
     5    2    3 2   
     6    2    4 1   
     7    2   13 1   
     8    3    8 1   
     9    3   14 1   
    10    4    5 1   
    11    4   23 1   
    12    4   42 1   
    13    5   17 1   
    14    5   24 1   
    15    5   25 1   
    16    6   19 1   
    17    6   26 1   
    18    6   27 1   
    19    7   28 1   
    20    7   29 1   
    21    7   30 1   
    22    7   44 1   
    23    8   12 1   
    24    9   33 1   
    25    9   34 1   
    26    9   43 1   
    27   10   43 2   
    28   11   43 2   
    29   12   13 2   
    30   12   43 1   
    31   13   35 1   
    32   14   15 2   
    33   14   16 2   
    34   14   17 1   
    35   17   18 1   
    36   18   37 1   
    37   18   38 1   
    38   19   20 1   
    39   20   39 1   
    40   20   40 1   
    41   20   41 1   
    42   31   44 1   
    43   32   44 1   
    44   36   42 1   
    45   42   44 1   
@<TRIPOS>SUBSTRUCTURE
     1 BZ1         1 TEMP              0 ****  ****    0 ROOT
