@<TRIPOS>MOLECULE
BZ1
   44    39     1     0     0
SMALL
bcc


@<TRIPOS>ATOM
      1 C3          2.6520    0.3430   -2.4000 c3        1 BZ1     -0.181000
      2 C9         -1.5920    0.0520    1.0340 c1        1 BZ1     -0.037500
      3 C10        -1.4190    1.2990    0.2250 c1        1 BZ1     -1.207500
      4 C11        -0.7490   -1.2230    0.6380 c2        1 BZ1      0.011000
      5 C12         0.0680   -1.1530   -0.6590 c3        1 BZ1     -0.061000
      6 S1         -4.3760    2.5230    3.0150 ss        1 BZ1      2.892500
      7 C4          4.1800    0.6510   -2.3810 c3        1 BZ1     -0.021000
      8 C5         -2.3760   -4.4540    1.4820 c3        1 BZ1     -0.217000
      9 C6         -1.3290   -3.3210    1.5240 c3        1 BZ1     -0.069000
     10 S2         -2.3450    2.3930    0.8330 ss        1 BZ1      1.078000
     11 N2         -3.8990    3.9910    3.5120 n2        1 BZ1     -0.952000
     12 O3         -4.7740    1.6880    4.1360 o         1 BZ1     -0.931000
     13 O4         -5.6030    2.5990    2.2750 o         1 BZ1     -0.931000
     14 C7         -3.0970    1.7510    2.0630 c1        1 BZ1     -1.207500
     15 C8         -2.6490    0.3460    2.1880 c1        1 BZ1     -0.037500
     16 S3         -0.1680    1.3220   -1.0030 ss        1 BZ1      2.892500
     17 O2          0.6490    2.4790   -0.7980 o         1 BZ1     -0.931000
     18 O5         -0.7880    1.4060   -2.2980 o         1 BZ1     -0.931000
     19 N3          0.6860    0.0690   -0.9730 n2        1 BZ1     -0.818000
     20 N1         -1.6570   -2.3300    0.5300 n3        1 BZ1     -0.304000
     21 C2          2.1420    0.1800   -0.9600 c3        1 BZ1     -0.011000
     22 O1          4.6220    0.9080   -3.6900 os        1 BZ1     -0.277000
     23 C1          5.9660    1.3500   -3.7650 c3        1 BZ1     -0.074000
     24 H31         2.4930   -0.4840   -2.8970 hc        1 BZ1      0.103500
     25 H32         2.1740    1.0840   -2.8340 hc        1 BZ1      0.103500
     26 H11        -0.1250   -1.4120    1.3760 h4        1 BZ1      0.117000
     27 H121        0.7550   -1.8260   -0.6110 h1        1 BZ1      0.106500
     28 H122       -0.5370   -1.3880   -1.4110 h1        1 BZ1      0.106500
     29 H41         4.6620   -0.1150   -2.0200 h1        1 BZ1      0.067500
     30 H42         4.3490    1.4310   -1.8240 h1        1 BZ1      0.067500
     31 H51        -3.2810   -4.0680    1.5570 hc        1 BZ1      0.083667
     32 H52        -2.2980   -4.9390    0.6340 hc        1 BZ1      0.083667
     33 H53        -2.2220   -5.0710    2.2250 hc        1 BZ1      0.083667
     34 H61        -1.3320   -2.9010    2.4240 h1        1 BZ1      0.068000
     35 H62        -0.4350   -3.6920    1.3370 h1        1 BZ1      0.068000
     36 HN21       -3.4970    4.0890    4.3210 hn        1 BZ1      0.245000
     37 HN22       -4.0400    4.7150    2.9850 hn        1 BZ1      0.245000
     38 H8         -2.9780   -0.3000    2.8360 DU        1 BZ1      0.192000
     39 HN1        -1.5910   -2.6960   -0.2960 hn        1 BZ1      0.169000
     40 H21         2.4080    0.9680   -0.4240 h1        1 BZ1      0.098000
     41 H22         2.5250   -0.6220   -0.5690 h1        1 BZ1      0.098000
     42 H11A        6.5670    0.6170   -3.5070 h1        1 BZ1      0.073667
     43 H12         6.1660    1.6290   -4.6780 h1        1 BZ1      0.073667
     44 H13         6.0940    2.1110   -3.1540 h1        1 BZ1      0.073667
@<TRIPOS>BOND
     1    1    7 1   
     2    1   21 1   
     3    1   24 1   
     4    1   25 1   
     5    2    3 1   
     6    2   15 1   
     7    3   10 1   
     8    4    5 1   
     9    4   20 1   
    10    4   26 1   
    11    5   19 1   
    12    5   27 1   
    13    5   28 1   
    14    6   12 1   
    15    6   13 1   
    16    7   22 1   
    17    7   29 1   
    18    7   30 1   
    19    8    9 1   
    20    8   31 1   
    21    8   32 1   
    22    8   33 1   
    23    9   20 1   
    24    9   34 1   
    25    9   35 1   
    26   10   14 1   
    27   11   36 1   
    28   11   37 1   
    29   14   15 1   
    30   16   17 1   
    31   16   18 1   
    32   19   21 1   
    33   20   39 1   
    34   21   40 1   
    35   21   41 1   
    36   22   23 1   
    37   23   42 1   
    38   23   43 1   
    39   23   44 1   
@<TRIPOS>SUBSTRUCTURE
     1 BZ1         1 TEMP              0 ****  ****    0 ROOT
