@<TRIPOS>MOLECULE
BZ1
   46    46     1     0     0
SMALL
bcc


@<TRIPOS>ATOM
      1 C3          0.0570    0.2670    0.1170 c3        1 BZ1     -0.199000
      2 C9         -4.2970   -0.0100    3.2230 c2        1 BZ1     -0.015000
      3 C10        -4.2510    1.2320    2.5190 c2        1 BZ1     -1.141000
      4 C11        -3.3090   -1.0990    3.1000 c3        1 BZ1     -0.151000
      5 C12        -2.4970   -1.0120    1.8050 c3        1 BZ1     -0.022000
      6 C4          1.5140    0.6780    0.1240 c3        1 BZ1     -0.225000
      7 C5         -4.6360   -6.1280    2.0980 c3        1 BZ1     -0.255000
      8 S2         -5.4890    2.1480    2.9070 ss        1 BZ1      1.236000
      9 C7         -6.2050    1.1360    3.9760 c2        1 BZ1     -1.430000
     10 C8         -5.4130   -0.0610    4.0560 c2        1 BZ1     -0.050000
     11 S3         -2.9920    1.5610    1.3820 s6        1 BZ1      2.866000
     12 O2         -2.3740    2.7530    1.7860 o         1 BZ1     -0.904500
     13 O5         -3.5910    1.5710    0.1230 o         1 BZ1     -0.904500
     14 N3         -1.9750    0.3100    1.5570 n3        1 BZ1     -0.832000
     15 C2         -0.5520    0.4890    1.5120 c3        1 BZ1     -0.009000
     16 O1          1.5040    0.2140   -2.2090 oh        1 BZ1     -0.100000
     17 C1          2.1920    0.6070   -1.1780 c2        1 BZ1      0.300000
     18 H31        -0.3110    1.5420    1.8500 h1        1 BZ1      0.115000
     19 H32        -0.4990    0.8640   -0.6550 hc        1 BZ1      0.122500
     20 H11        -2.3670   -4.7690    1.3730 hn        1 BZ1      0.143500
     21 H121       -3.1550   -1.3140    0.9360 h1        1 BZ1      0.126000
     22 H122       -2.6230   -1.0710    3.9910 hc        1 BZ1      0.137500
     23 H41         2.1060    0.0380    0.8500 hc        1 BZ1      0.195000
     24 H42        -0.0380   -0.8140   -0.1700 hc        1 BZ1      0.122500
     25 H51        -3.7820   -6.8440    2.1720 hc        1 BZ1      0.089333
     26 H52        -5.1190   -6.2580    1.1000 hc        1 BZ1      0.089333
     27 H53        -5.3820   -6.3890    2.8870 hc        1 BZ1      0.089333
     28 H61        -3.5640   -4.2320    0.4200 hn        1 BZ1      0.143500
     29 H62        -3.7190   -4.6010    3.3260 h1        1 BZ1      0.079500
     30 HN21       -7.3960    2.7830    6.6250 hn        1 BZ1      0.254000
     31 HN22       -7.2370    1.2470    7.1900 hn        1 BZ1      0.254000
     32 H8         -5.6870   -0.9260    4.6750 ha        1 BZ1      0.198000
     33 HN1        -5.0620   -4.0130    2.2490 h1        1 BZ1      0.079500
     34 H21        -1.6630   -1.7680    1.8610 h1        1 BZ1      0.126000
     35 H22        -0.0550   -0.2220    2.2350 h1        1 BZ1      0.115000
     36 H11A        1.6240    1.7460    0.4950 hc        1 BZ1      0.195000
     37 H12         3.2680    0.8880   -1.2730 h4        1 BZ1      0.207000
     38 H13         2.0190    0.1960   -3.0550 ho        1 BZ1      0.327000
     39 S1         -7.5850    1.1850    4.7540 s6        1 BZ1      2.880000
     40 H23        -5.9600    1.9940    6.4750 hn        1 BZ1      0.254000
     41 H123       -3.8270   -2.1010    3.1070 hc        1 BZ1      0.137500
     42 N1         -3.1910   -4.1970    1.3510 n3        1 BZ1     -0.364000
     43 C6         -4.1660   -4.6960    2.2950 c3        1 BZ1     -0.093000
     44 N2         -6.9670    1.8770    6.4340 n4        1 BZ1     -0.511000
     45 O3         -8.0590   -0.0330    5.1780 o         1 BZ1     -0.839000
     46 O4         -8.4110    2.2160    4.3720 o         1 BZ1     -0.839000
@<TRIPOS>BOND
     1    1    6 1   
     2    1   15 1   
     3    1   19 1   
     4    1   24 1   
     5    2    3 1   
     6    2    4 1   
     7    2   10 1   
     8    3    8 1   
     9    3   11 1   
    10    4    5 1   
    11    4   22 1   
    12    4   41 1   
    13    5   14 1   
    14    5   21 1   
    15    5   34 1   
    16    6   17 1   
    17    6   23 1   
    18    6   36 1   
    19    7   25 1   
    20    7   26 1   
    21    7   27 1   
    22    7   43 1   
    23    8    9 1   
    24    9   10 1   
    25    9   39 1   
    26   10   32 1   
    27   11   12 1   
    28   11   13 1   
    29   11   14 1   
    30   14   15 1   
    31   15   18 1   
    32   15   35 1   
    33   16   17 1   
    34   16   38 1   
    35   17   37 1   
    36   20   42 1   
    37   28   42 1   
    38   29   43 1   
    39   30   44 1   
    40   31   44 1   
    41   33   43 1   
    42   39   44 1   
    43   39   45 1   
    44   39   46 1   
    45   40   44 1   
    46   42   43 1   
@<TRIPOS>SUBSTRUCTURE
     1 BZ1         1 TEMP              0 ****  ****    0 ROOT
