@<TRIPOS>MOLECULE
BZ2
   17    18     1     0     0
SMALL
bcc


@<TRIPOS>ATOM
      1 OAA        -3.1740   -1.1930    0.0010 o         1 BZ2     -0.797300
      2 OAB        -3.3630    1.0410   -0.0010 o         1 BZ2     -0.797300
      3 CAC         3.3750    0.6260    0.0010 ca        1 BZ2     -0.165000
      4 CAD         3.2860   -0.7730    0.0020 ca        1 BZ2     -0.150000
      5 CAE         2.2370    1.4300    0.0000 ca        1 BZ2     -0.110000
      6 CAF         2.0520   -1.4220    0.0020 ca        1 BZ2     -0.126000
      7 CAG        -0.3890    1.2650   -0.0000 cc        1 BZ2     -0.234200
      8 OAH        -0.4060   -1.0340    0.0010 os        1 BZ2     -0.174200
      9 CAI        -2.7000   -0.0310    0.0000 c         1 BZ2      0.933800
     10 CAJ        -1.1870    0.1370    0.0000 cd        1 BZ2      0.029900
     11 CAK         0.9870    0.8180    0.0000 ca        1 BZ2     -0.085800
     12 CAL         0.9210   -0.6160    0.0010 ca        1 BZ2      0.039100
     13 HAC         4.3680    1.0970    0.0010 ha        1 BZ2      0.108000
     14 HAD         4.2080   -1.3700    0.0020 ha        1 BZ2      0.111000
     15 HAE         2.3220    2.5250   -0.0010 ha        1 BZ2      0.121000
     16 HAF         1.9720   -2.5160    0.0030 ha        1 BZ2      0.135000
     17 HAG        -0.7360    2.2930   -0.0010 ha        1 BZ2      0.164000
@<TRIPOS>BOND
     1    1    9 1   
     2    2    9 1   
     3    3    4 ar  
     4    3    5 ar  
     5    3   13 1   
     6    4    6 ar  
     7    4   14 1   
     8    5   11 ar  
     9    5   15 1   
    10    6   12 ar  
    11    6   16 1   
    12    7   10 2   
    13    7   11 1   
    14    7   17 1   
    15    8   10 1   
    16    8   12 1   
    17    9   10 1   
    18   11   12 ar  
@<TRIPOS>SUBSTRUCTURE
     1 BZ2         1 TEMP              0 ****  ****    0 ROOT
