@<TRIPOS>MOLECULE
BZ2
   17    18     1     0     0
SMALL
bcc


@<TRIPOS>ATOM
      1 OAA        -0.0050    0.0170    0.1590 o         1 BZ2     -0.797300
      2 OAB         1.8490    0.0300   -1.1000 o         1 BZ2     -0.797300
      3 CAC         4.7900    0.0020    4.9760 ca        1 BZ2     -0.165000
      4 CAD         3.5280   -0.0050    5.5840 ca        1 BZ2     -0.150000
      5 CAE         4.9330    0.0110    3.5890 ca        1 BZ2     -0.110000
      6 CAF         2.3570   -0.0040    4.8270 ca        1 BZ2     -0.126000
      7 CAG         3.5030    0.0200    1.3820 cc        1 BZ2     -0.234200
      8 OAH         1.4900    0.0070    2.4940 os        1 BZ2     -0.174200
      9 CAI         1.2400    0.0220    0.0030 c         1 BZ2      0.933800
     10 CAJ         2.1280    0.0170    1.2400 cd        1 BZ2      0.029900
     11 CAK         3.7880    0.0120    2.8000 ca        1 BZ2     -0.085800
     12 CAL         2.5050    0.0050    3.4450 ca        1 BZ2      0.039100
     13 HAC         5.6880    0.0010    5.6100 ha        1 BZ2      0.108000
     14 HAD         3.4590   -0.0120    6.6800 ha        1 BZ2      0.111000
     15 HAE         5.9290    0.0170    3.1270 ha        1 BZ2      0.121000
     16 HAF         1.3640   -0.0100    5.2930 ha        1 BZ2      0.135000
     17 HAG         4.2290    0.0270    0.5750 ha        1 BZ2      0.164000
@<TRIPOS>BOND
     1    1    9 1   
     2    2    9 1   
     3    3    4 ar  
     4    3    5 ar  
     5    3   13 1   
     6    4    6 ar  
     7    4   14 1   
     8    5   11 ar  
     9    5   15 1   
    10    6   12 ar  
    11    6   16 1   
    12    7   10 2   
    13    7   11 1   
    14    7   17 1   
    15    8   10 1   
    16    8   12 1   
    17    9   10 1   
    18   11   12 ar  
@<TRIPOS>SUBSTRUCTURE
     1 BZ2         1 TEMP              0 ****  ****    0 ROOT
