@<TRIPOS>MOLECULE
BZ2
   17    14     1     0     0
SMALL
bcc


@<TRIPOS>ATOM
      1 OAA        -1.1510   -0.4470   -4.0790 o         1 BZ2     -0.532000
      2 OAB        -2.9800    0.1080   -3.0300 o         1 BZ2     -0.532000
      3 CAC         1.3000   -0.1810    2.2790 c1        1 BZ2     -0.157500
      4 CAD         1.3290    1.1720    1.9650 c1        1 BZ2     -0.157500
      5 CAE         0.6640   -1.0770    1.4320 c1        1 BZ2     -0.110000
      6 CAF         0.7210    1.6280    0.8040 c1        1 BZ2     -0.126000
      7 CAG        -0.6430   -1.2740   -0.7490 c1        1 BZ2     -0.246000
      8 OAH        -0.5990    0.8970   -1.2560 os        1 BZ2     -0.085000
      9 CAI        -1.7650   -0.2200   -3.0040 c2        1 BZ2      0.384000
     10 CAJ        -1.0400   -0.3320   -1.6810 c2        1 BZ2      0.005000
     11 CAK         0.0480   -0.6160    0.2560 c1        1 BZ2     -0.074000
     12 CAL         0.0770    0.7210   -0.0550 c1        1 BZ2     -0.006000
     13 HAC         1.7270   -0.5020    3.0960 ha        1 BZ2      0.109500
     14 HAD         1.7720    1.8020    2.5640 ha        1 BZ2      0.109500
     15 HAE         0.6330   -2.0260    1.6590 ha        1 BZ2      0.121000
     16 HAF         0.7420    2.5780    0.5830 ha        1 BZ2      0.135000
     17 HAG        -0.8350   -2.2300   -0.7830 DU        1 BZ2      0.164000
@<TRIPOS>BOND
     1    1    9 1   
     2    2    9 1   
     3    3    4 1   
     4    3   13 1   
     5    4   14 1   
     6    5   11 1   
     7    5   15 1   
     8    6   12 1   
     9    6   16 1   
    10    7   10 1   
    11    7   11 1   
    12    8   10 1   
    13    8   12 1   
    14    9   10 1   
@<TRIPOS>SUBSTRUCTURE
     1 BZ2         1 TEMP              0 ****  ****    0 ROOT
