@<TRIPOS>MOLECULE
BZ3
   20    21     1     0     0
SMALL
bcc


@<TRIPOS>ATOM
      1 CAA         3.7610    0.1340    0.0010 c3        1 BZ3      0.115700
      2 CAB        -3.1960   -0.3400   -0.0010 cc        1 BZ3     -0.098100
      3 CAC         1.1570    1.1580    0.0000 ca        1 BZ3     -0.178000
      4 CAD        -2.2350   -1.3470   -0.0010 cd        1 BZ3     -0.196200
      5 CAE        -0.1420    1.6470   -0.0000 ca        1 BZ3     -0.114000
      6 CAF         0.3680   -1.1710   -0.0000 ca        1 BZ3     -0.115000
      7 NAG        -2.5830    0.9150   -0.0010 na        1 BZ3     -0.198400
      8 OAH         2.6770   -0.7830    0.0000 os        1 BZ3     -0.331900
      9 CAI         1.4040   -0.2310    0.0000 ca        1 BZ3      0.094100
     10 CAJ        -0.9420   -0.7010   -0.0000 ca        1 BZ3     -0.062800
     11 CAK        -1.1960    0.7250   -0.0000 ca        1 BZ3     -0.074200
     12 HAA         3.7440    0.7700    0.9180 h1        1 BZ3      0.041033
     13 HAAA        4.6640   -0.5300    0.0010 h1        1 BZ3      0.041033
     14 HAAB        3.7440    0.7700   -0.9170 h1        1 BZ3      0.041033
     15 HAC         1.9940    1.8700    0.0000 ha        1 BZ3      0.135000
     16 HAD        -2.4110   -2.4180   -0.0010 ha        1 BZ3      0.158000
     17 HAE        -0.3320    2.7280   -0.0000 ha        1 BZ3      0.132000
     18 HAF         0.5920   -2.2460   -0.0000 ha        1 BZ3      0.152000
     19 HNAG       -3.0390    1.7850   -0.0010 hn        1 BZ3      0.296700
     20 HAB        -4.2850   -0.4220   -0.0010 h4        1 BZ3      0.163000
@<TRIPOS>BOND
     1    1    8 1   
     2    1   12 1   
     3    1   13 1   
     4    1   14 1   
     5    2    4 2   
     6    2    7 1   
     7    2   20 1   
     8    3    5 ar  
     9    3    9 ar  
    10    3   15 1   
    11    4   10 1   
    12    4   16 1   
    13    5   11 ar  
    14    5   17 1   
    15    6    9 ar  
    16    6   10 ar  
    17    6   18 1   
    18    7   11 1   
    19    7   19 1   
    20    8    9 1   
    21   10   11 ar  
@<TRIPOS>SUBSTRUCTURE
     1 BZ3         1 TEMP              0 ****  ****    0 ROOT
