@<TRIPOS>MOLECULE
BZ3
   20    15     1     0     0
SMALL
bcc


@<TRIPOS>ATOM
      1 CAA        -2.9020    0.3740   -2.0810 c3        1 BZ3      0.114700
      2 CAB         2.2170    0.4180    2.4930 cg        1 BZ3     -0.020200
      3 CAC        -0.1410   -1.2010   -1.1450 c1        1 BZ3     -0.075500
      4 CAD         1.2460    1.2580    1.9310 ch        1 BZ3     -0.209000
      5 CAE         0.9190   -1.5350   -0.3000 c1        1 BZ3     -0.056500
      6 CAF        -0.3650    0.9520   -0.0410 c1        1 BZ3     -0.105500
      7 NAG         2.2800   -0.7390    1.7260 n2        1 BZ3     -0.326600
      8 OAH        -1.4760    0.5140   -2.1640 os        1 BZ3     -0.315400
      9 CAI        -0.7850    0.0510   -1.0130 c1        1 BZ3      0.081600
     10 CAJ         0.7130    0.6160    0.8210 ch        1 BZ3     -0.050000
     11 CAK         1.3500   -0.6210    0.6900 cg        1 BZ3      0.021800
     12 HAA        -3.1360   -0.1450   -1.2640 h1        1 BZ3      0.042033
     13 HAAA       -3.3270    1.2860   -2.0340 h1        1 BZ3      0.042033
     14 HAAB       -3.2340   -0.1040   -2.8820 h1        1 BZ3      0.042033
     15 HAB         2.7130    0.5900    3.2930 DU        1 BZ3      0.189000
     16 HAC        -0.4390   -1.8360   -1.8320 ha        1 BZ3      0.089500
     17 HAD         0.9840    2.1530    2.2680 DU        1 BZ3      0.189000
     18 HAE         1.3610   -2.3960   -0.3920 ha        1 BZ3      0.076500
     19 HAF        -0.8190    1.8290    0.0510 ha        1 BZ3      0.082500
     20 HNAG        2.8410   -1.4640    1.8750 DU        1 BZ3      0.189000
@<TRIPOS>BOND
     1    1    8 1   
     2    1   12 1   
     3    1   13 1   
     4    1   14 1   
     5    2    4 3   
     6    2    7 1   
     7    3    9 3   
     8    3   16 1   
     9    4   10 1   
    10    5   11 3   
    11    5   18 1   
    12    6   10 3   
    13    6   19 1   
    14    7   11 1   
    15    8    9 1   
@<TRIPOS>SUBSTRUCTURE
     1 BZ3         1 TEMP              0 ****  ****    0 ROOT
