@<TRIPOS>MOLECULE
BZ5
   38    38     1     0     0
SMALL
bcc


@<TRIPOS>ATOM
      1 CAK         0.1060   -0.0700    0.4160 c3        1 BZ5     -0.112000
      2 CAT         1.5440    0.0910   -0.0930 c2        1 BZ5      0.025000
      3 CAI         2.5980   -0.0540    0.8660 c2        1 BZ5     -0.191000
      4 CAH         3.9120    0.0650    0.6030 c2        1 BZ5     -0.079000
      5 CAR         3.5870    0.7480   -3.0130 c1        1 BZ5     -0.243000
      6 CAJ         2.6620    0.5660   -2.2710 c1        1 BZ5     -0.067000
      7 CAU         1.5800    0.3580   -1.4330 c2        1 BZ5     -0.410000
      8 SAO        -0.0640    0.4170   -2.0680 ss        1 BZ5      0.842000
      9 CAS        -0.7170    0.1310   -0.7580 c1        1 BZ5     -0.696000
     10 CAQ         6.0450   -2.3210    1.3620 c2        1 BZ5      0.231000
     11 CAX         5.3790   -1.5490    3.6720 c3        1 BZ5      0.030000
     12 CAP         4.0760   -1.2450    4.5360 c2        1 BZ5      0.369000
     13 CA0         5.0530   -1.5200    2.1630 c3        1 BZ5     -0.166000
     14 OAC         3.0300   -0.9310    3.9110 o         1 BZ5     -0.546000
     15 OAB         4.1850   -1.3830    5.7770 o         1 BZ5     -0.546000
     16 OAF         6.3110   -0.5310    4.0080 oh        1 BZ5     -0.292000
     17 CAM         5.8940   -2.8850    4.1080 c2        1 BZ5     -0.215000
     18 CAV         6.2010   -3.8810    3.2670 c2        1 BZ5     -0.052000
     19 OAD         6.6310   -5.1360    3.6650 oh        1 BZ5     -0.292000
     20 CAW         6.0980   -3.7890    1.7710 c3        1 BZ5      0.034000
     21 OAE         7.1840   -4.4090    1.1020 oh        1 BZ5     -0.311000
     22 CAA         4.9350   -0.0820    1.6680 c3        1 BZ5     -0.129000
     23 HAK        -0.0330   -1.0870    0.8700 hc        1 BZ5      0.157500
     24 HAS        -0.1060    0.6820    1.2220 hc        1 BZ5      0.157500
     25 HAI         2.2810   -0.2870    1.9090 ha        1 BZ5      0.197000
     26 HAR         4.2850    0.2860   -0.4100 ha        1 BZ5      0.122000
     27 HAA1        5.9330    0.2730    1.3010 hc        1 BZ5      0.114500
     28 HAA2        4.6390    0.5540    2.5520 hc        1 BZ5      0.114500
     29 HAJ         4.4100    0.9020   -3.6600 ha        1 BZ5      0.219000
     30 HA0         4.0430   -2.0180    2.0610 hc        1 BZ5      0.150000
     31 HAW         5.1390   -4.2870    1.4380 h1        1 BZ5      0.102000
     32 HAF         7.1170   -0.7210    3.5140 ho        1 BZ5      0.171000
     33 HAM1        6.3750   -0.9810    6.3220 ha        1 BZ5     -0.000500
     34 HAM2        5.9600   -2.9860    5.2060 ha        1 BZ5      0.168000
     35 HAV         6.9680   -1.0350    6.6510 ha        1 BZ5     -0.000500
     36 HAD         6.6460   -5.1450    4.6320 ho        1 BZ5      0.220000
     37 HAE         7.3670   -5.2350    1.5700 ho        1 BZ5      0.211000
     38 OAN         6.7420   -1.8710    0.4510 o         1 BZ5     -0.284000
@<TRIPOS>BOND
     1    1    2 1   
     2    1    9 1   
     3    1   23 1   
     4    1   24 1   
     5    2    3 1   
     6    2    7 1   
     7    3    4 1   
     8    3   25 1   
     9    4   22 1   
    10    4   26 1   
    11    5    6 1   
    12    5   29 1   
    13    6    7 1   
    14    7    8 1   
    15    8    9 1   
    16   10   13 1   
    17   10   20 1   
    18   10   38 1   
    19   11   12 1   
    20   11   13 1   
    21   11   16 1   
    22   11   17 1   
    23   12   14 1   
    24   12   15 1   
    25   13   22 1   
    26   13   30 1   
    27   16   32 1   
    28   17   18 1   
    29   17   34 1   
    30   18   19 1   
    31   18   20 1   
    32   19   36 1   
    33   20   21 1   
    34   20   31 1   
    35   21   37 1   
    36   22   27 1   
    37   22   28 1   
    38   33   35 1   
@<TRIPOS>SUBSTRUCTURE
     1 BZ5         1 TEMP              0 ****  ****    0 ROOT
