@<TRIPOS>MOLECULE
BZ5
   38    39     1     0     0
SMALL
bcc


@<TRIPOS>ATOM
      1 CAK         0.3250    1.0900   -0.7260 c2        1 BZ5     -0.106000
      2 CAT         1.4040    0.0290   -0.5180 c3        1 BZ5     -0.093000
      3 CAI         2.3080    0.3100    0.6240 c2        1 BZ5     -0.189000
      4 CAH         2.7810   -0.6570    1.4180 c2        1 BZ5     -0.107000
      5 CAR         3.9140   -1.4510   -2.9550 c1        1 BZ5      0.217000
      6 CAJ         3.2780   -0.9170   -1.9370 c2        1 BZ5     -0.441000
      7 CAU         2.1560   -0.0550   -1.8320 c2        1 BZ5     -0.350000
      8 SAO         1.5020    0.9450   -2.9050 ss        1 BZ5      0.877000
      9 CAS         0.3610    1.5450   -1.9780 c1        1 BZ5     -0.719000
     10 CAQ         5.2420   -2.2910    1.7680 c2        1 BZ5      0.220000
     11 CAX         5.4690   -1.3260    4.0910 c3        1 BZ5     -0.009000
     12 CAP         4.6290   -1.0560    5.4150 c2        1 BZ5      0.364000
     13 CA0         4.5190   -1.6580    2.9170 c3        1 BZ5     -0.161000
     14 OAC         3.3920   -1.2850    5.3550 o         1 BZ5     -0.540000
     15 OAB         5.2720   -0.6920    6.4260 o         1 BZ5     -0.540000
     16 OAF         6.1950   -0.1400    3.8200 oh        1 BZ5     -0.287000
     17 CAM         6.4040   -2.4900    4.4170 c3        1 BZ5     -0.184000
     18 CAV         7.1370   -3.0300    3.2000 c3        1 BZ5      0.016000
     19 OAD         7.9280   -4.1330    3.6140 oh        1 BZ5     -0.322000
     20 CAW         6.1180   -3.4750    2.1350 c3        1 BZ5     -0.074000
     21 OAE         6.7940   -4.0390    1.0250 oh        1 BZ5     -0.337000
     22 CAA         3.7320   -0.4150    2.5250 c3        1 BZ5     -0.136000
     23 HAK         0.8770   -0.9610   -0.3660 hc        1 BZ5      0.143000
     24 HAS        -0.3350    1.3530    0.0990 ha        1 BZ5      0.159000
     25 HAI         2.5870    1.3660    0.7620 ha        1 BZ5      0.138000
     26 HAR         2.4750   -1.7080    1.2750 ha        1 BZ5      0.110000
     27 HAA1        4.4460    0.4100    2.2600 hc        1 BZ5      0.132500
     28 HAA2        3.1650   -0.0890    3.4480 hc        1 BZ5      0.132500
     29 HAJ         3.7400   -1.2100   -0.9390 ha        1 BZ5      0.260000
     30 HA0         3.7900   -2.4240    3.3230 hc        1 BZ5      0.154000
     31 HAW         5.4810   -4.3090    2.5460 h1        1 BZ5      0.142000
     32 HAF         6.7980   -0.3410    3.0940 ho        1 BZ5      0.157000
     33 HAM1        7.1460   -2.1340    5.1790 hc        1 BZ5      0.122000
     34 HAM2        5.8070   -3.3140    4.8870 hc        1 BZ5      0.122000
     35 HAV         7.8170   -2.2490    2.7550 h1        1 BZ5      0.065000
     36 HAD         8.2180   -4.5790    2.8070 ho        1 BZ5      0.203000
     37 HAE         6.9260   -3.3370    0.3730 ho        1 BZ5      0.214000
     38 OAN         5.1840   -1.9340    0.5820 o         1 BZ5     -0.355000
@<TRIPOS>BOND
     1    1    2 1   
     2    1    9 1   
     3    1   24 1   
     4    2    3 1   
     5    2    7 1   
     6    2   23 1   
     7    3    4 1   
     8    3   25 1   
     9    4   22 1   
    10    4   26 1   
    11    5    6 1   
    12    6    7 1   
    13    6   29 1   
    14    7    8 1   
    15    8    9 1   
    16   10   13 1   
    17   10   20 1   
    18   10   38 1   
    19   11   12 1   
    20   11   13 1   
    21   11   16 1   
    22   11   17 1   
    23   12   14 1   
    24   12   15 1   
    25   13   22 1   
    26   13   30 1   
    27   16   32 1   
    28   17   18 1   
    29   17   33 1   
    30   17   34 1   
    31   18   19 1   
    32   18   20 1   
    33   18   35 1   
    34   19   36 1   
    35   20   21 1   
    36   20   31 1   
    37   21   37 1   
    38   22   27 1   
    39   22   28 1   
@<TRIPOS>SUBSTRUCTURE
     1 BZ5         1 TEMP              0 ****  ****    0 ROOT
