@<TRIPOS>MOLECULE
BZ5
   38    33     1     0     0
SMALL
bcc


@<TRIPOS>ATOM
      1 CAK         0.1800   -5.2690   -1.0310 c1        1 BZ5     -0.114000
      2 CAT        -0.4490   -3.7940   -0.7530 c1        1 BZ5     -0.077000
      3 CAI         0.1370   -2.5870   -0.4240 c1        1 BZ5     -0.079000
      4 CAH        -0.6760   -1.4490   -0.1770 c1        1 BZ5     -0.071000
      5 CAR        -2.0760   -1.5510   -0.2680 c1        1 BZ5     -0.117000
      6 CAJ        -2.6680   -2.7650   -0.5990 c1        1 BZ5     -0.117000
      7 CAU        -1.8750   -3.8890   -0.8430 c1        1 BZ5     -0.288000
      8 SAO        -2.2430   -5.3830   -1.1730 s         1 BZ5      0.395000
      9 CAS        -0.9070   -6.1860   -1.2760 c1        1 BZ5     -0.401000
     10 OAN        -1.9380    1.4430    1.3160 o         1 BZ5     -0.320000
     11 CAQ        -0.8980    1.8620    0.8920 c1        1 BZ5      0.227000
     12 CAX         1.5800    1.4620    0.4110 c3        1 BZ5      0.007000
     13 CAP         2.6190    0.5730   -0.3090 c2        1 BZ5      0.321000
     14 CA0         0.1350    0.8840    0.2600 c2        1 BZ5     -0.143000
     15 OAC         3.3860   -0.1040    0.3390 o         1 BZ5     -0.552500
     16 OAB         2.7740    0.6720   -1.5850 o         1 BZ5     -0.552500
     17 OAF         2.0320    1.3810    1.7580 oh        1 BZ5     -0.361000
     18 CAM         1.6360    2.8930   -0.1010 c3        1 BZ5     -0.187000
     19 CAV         0.5900    3.8010    0.5020 c3        1 BZ5      0.009000
     20 OAD         0.6750    5.0910   -0.1520 oh        1 BZ5     -0.322000
     21 CAW        -0.8130    3.2920    0.3750 c3        1 BZ5     -0.057000
     22 OAE        -1.8170    4.2020    1.0460 oh        1 BZ5     -0.318000
     23 CAA         0.0180   -0.5480    0.8360 c3        1 BZ5     -0.118000
     24 HAK         1.1570   -5.5020   -1.0320 DU        1 BZ5      0.160000
     25 HAS        -0.8150   -7.1350   -1.5900 DU        1 BZ5      0.160000
     26 HAI         1.1010   -2.5180   -0.3630 ha        1 BZ5      0.203000
     27 HAR        -2.6370   -0.7700   -0.0850 ha        1 BZ5      0.127000
     28 HAA1       -0.5150   -0.5250    1.6780 hc        1 BZ5      0.113000
     29 HAA2        0.9440   -0.9080    1.0330 hc        1 BZ5      0.113000
     30 HAJ        -3.6050   -2.8290   -0.6590 ha        1 BZ5      0.127000
     31 HA0        -0.0790    0.7240   -0.6800 ha        1 BZ5      0.139000
     32 HAW        -1.1060    3.3380   -0.5340 h1        1 BZ5      0.125000
     33 HAF         2.7570    1.9020    1.8630 ho        1 BZ5      0.233000
     34 HAM1        2.4850    3.2450    0.0920 hc        1 BZ5      0.104000
     35 HAM2        1.5210    2.8820   -1.0300 hc        1 BZ5      0.104000
     36 HAV         0.7830    3.9130    1.4080 h1        1 BZ5      0.128000
     37 HAD         1.0490    5.6920    0.4100 ho        1 BZ5      0.191000
     38 HAE        -2.4430    4.4590    0.4420 ho        1 BZ5      0.209000
@<TRIPOS>BOND
     1    1    2 1   
     2    1    9 1   
     3    2    7 1   
     4    3    4 1   
     5    3   26 1   
     6    4   23 1   
     7    5    6 1   
     8    5   27 1   
     9    6   30 1   
    10    8    9 1   
    11   10   11 1   
    12   11   21 1   
    13   12   13 1   
    14   12   14 1   
    15   12   17 1   
    16   12   18 1   
    17   13   15 1   
    18   13   16 1   
    19   14   23 1   
    20   14   31 1   
    21   17   33 1   
    22   18   19 1   
    23   18   34 1   
    24   18   35 1   
    25   19   20 1   
    26   19   21 1   
    27   19   36 1   
    28   20   37 1   
    29   21   22 1   
    30   21   32 1   
    31   22   38 1   
    32   23   28 1   
    33   23   29 1   
@<TRIPOS>SUBSTRUCTURE
     1 BZ5         1 TEMP              0 ****  ****    0 ROOT
