@<TRIPOS>MOLECULE
BZ5
   38    40     1     0     0
SMALL
bcc


@<TRIPOS>ATOM
      1 CAK         3.7220   -1.6600    1.4120 cc        1 BZ5     -0.102200
      2 CAT         3.0370   -0.9160    0.3790 ca        1 BZ5     -0.088800
      3 CAI         1.6800   -0.9510    0.0460 ca        1 BZ5     -0.079000
      4 CAH         1.2170   -0.1470   -0.9960 ca        1 BZ5     -0.079300
      5 CAR         2.1110    0.6880   -1.6950 ca        1 BZ5     -0.113000
      6 CAJ         3.4600    0.7290   -1.3720 ca        1 BZ5     -0.121000
      7 CAU         3.9350   -0.0730   -0.3330 ca        1 BZ5     -0.061100
      8 SAO         5.5110   -0.2320    0.2780 ss        1 BZ5     -0.072500
      9 CAS         5.0530   -1.3720    1.4490 cd        1 BZ5     -0.159400
     10 CAQ        -1.6630    1.6470   -0.4530 c         1 BZ5      0.572100
     11 CAX        -2.3120   -0.7390   -0.0570 c3        1 BZ5      0.025800
     12 CAP        -1.7040   -2.1190    0.3830 c         1 BZ5      0.903600
     13 CA0        -1.1440    0.2540   -0.2540 c3        1 BZ5     -0.150700
     14 OAC        -1.0020   -2.1530    1.4270 o         1 BZ5     -0.817300
     15 OAB        -1.9550   -3.0980   -0.3720 o         1 BZ5     -0.817300
     16 OAF        -3.0350   -0.8560   -1.2710 oh        1 BZ5     -0.635800
     17 CAM        -3.2660   -0.2610    1.0360 c3        1 BZ5     -0.074400
     18 CAV        -3.7840    1.1400    0.7520 c3        1 BZ5      0.131100
     19 OAD        -4.6390    1.5220    1.8210 oh        1 BZ5     -0.605800
     20 CAW        -2.6060    2.1260    0.6370 c3        1 BZ5     -0.005900
     21 OAE        -3.1000    3.4360    0.4100 oh        1 BZ5     -0.615800
     22 CAA        -0.2220   -0.1950   -1.3830 c3        1 BZ5     -0.032100
     23 HAK         3.1910   -2.3600    2.0640 ha        1 BZ5      0.164000
     24 HAS         5.7860   -1.7960    2.1310 h4        1 BZ5      0.156000
     25 HAI         0.9730   -1.6030    0.6010 ha        1 BZ5      0.205000
     26 HAR         1.7260    1.3220   -2.5090 ha        1 BZ5      0.132000
     27 HAA1       -0.4040    0.4370   -2.2920 hc        1 BZ5      0.073700
     28 HAA2       -0.4830   -1.2580   -1.6550 hc        1 BZ5      0.073700
     29 HAJ         4.1460    1.3850   -1.9250 ha        1 BZ5      0.122000
     30 HA0        -0.5750    0.2390    0.7250 hc        1 BZ5      0.103700
     31 HAW        -2.0590    2.1840    1.6200 h1        1 BZ5      0.095700
     32 HAF        -2.9670   -1.7840   -1.5560 ho        1 BZ5      0.434000
     33 HAM1       -4.1350   -0.9650    1.0940 hc        1 BZ5      0.070200
     34 HAM2       -2.7300   -0.2880    2.0200 hc        1 BZ5      0.070200
     35 HAV        -4.3700    1.1510   -0.2100 h1        1 BZ5      0.048700
     36 HAD        -4.7990    2.4690    1.7130 ho        1 BZ5      0.402000
     37 HAE        -3.1040    3.5850   -0.5450 ho        1 BZ5      0.416000
     38 OAN        -1.3980    2.3930   -1.4040 o         1 BZ5     -0.566100
@<TRIPOS>BOND
     1    1    2 1   
     2    1    9 2   
     3    1   23 1   
     4    2    3 ar  
     5    2    7 ar  
     6    3    4 ar  
     7    3   25 1   
     8    4    5 ar  
     9    4   22 1   
    10    5    6 ar  
    11    5   26 1   
    12    6    7 ar  
    13    6   29 1   
    14    7    8 1   
    15    8    9 1   
    16    9   24 1   
    17   10   13 1   
    18   10   20 1   
    19   10   38 2   
    20   11   12 1   
    21   11   13 1   
    22   11   16 1   
    23   11   17 1   
    24   12   14 1   
    25   12   15 1   
    26   13   22 1   
    27   13   30 1   
    28   16   32 1   
    29   17   18 1   
    30   17   33 1   
    31   17   34 1   
    32   18   19 1   
    33   18   20 1   
    34   18   35 1   
    35   19   36 1   
    36   20   21 1   
    37   20   31 1   
    38   21   37 1   
    39   22   27 1   
    40   22   28 1   
@<TRIPOS>SUBSTRUCTURE
     1 BZ5         1 TEMP              0 ****  ****    0 ROOT
