@<TRIPOS>MOLECULE
BZ8
   36    32     1     0     0
SMALL
bcc


@<TRIPOS>ATOM
      1 N1         -2.8590   -0.1200   -3.7990 nc        1 BZ8     -0.135100
      2 N2         -1.4170   -0.0250   -3.8870 nd        1 BZ8     -0.258000
      3 C3         -0.8510    0.0510   -2.4670 cd        1 BZ8      0.332300
      4 C4         -1.9300    0.0030   -1.5600 cc        1 BZ8     -0.069400
      5 C6          0.4790    0.2110   -2.1320 ch        1 BZ8     -0.175000
      6 C7         -1.8300   -0.0570   -0.1730 cg        1 BZ8     -0.067000
      7 C16        -1.7110    1.1120    0.5650 c1        1 BZ8     -0.076000
      8 C15        -1.5660    1.0510    1.9520 c1        1 BZ8     -0.076000
      9 C14        -1.5400   -0.1780    2.5930 c1        1 BZ8      0.131600
     10 C13        -1.6590   -1.3480    1.8540 c1        1 BZ8     -0.103500
     11 C12        -1.8040   -1.2870    0.4690 c1        1 BZ8     -0.022500
     12 C21         0.9150    1.1950   -3.0100 c1        1 BZ8      0.176600
     13 C22         2.1640    1.0930   -3.6010 c1        1 BZ8     -0.249500
     14 C23         2.9790    0.0090   -3.3160 c1        1 BZ8      0.165600
     15 C24         2.5410   -0.9780   -2.4340 c1        1 BZ8     -0.042100
     16 C25         1.2930   -0.8740   -1.8450 c1        1 BZ8      0.021500
     17 O29         4.1820   -0.1620   -4.0140 oh        1 BZ8     -0.459600
     18 O30         0.0760    2.3120   -3.3010 oh        1 BZ8     -0.458600
     19 O33        -1.3420   -0.2430    4.0280 os        1 BZ8     -0.311400
     20 S1         -3.2280   -0.1060   -2.3790 ss        1 BZ8      0.101200
     21 C34         0.0350   -0.0480    4.4400 c3        1 BZ8      0.127400
     22 CL          3.5940   -2.3080   -2.0180 cl        1 BZ8     -0.075900
     23 CAA         0.2120   -0.5390    5.8650 c3        1 BZ8     -0.101100
     24 H25         0.9860   -1.5630   -1.2300 ha        1 BZ8      0.104500
     25 H12        -1.8890   -2.1150   -0.0530 ha        1 BZ8      0.083500
     26 H16        -1.7290    1.9760    0.1140 ha        1 BZ8      0.086500
     27 H13        -1.6420   -2.2070    2.3010 ha        1 BZ8      0.096500
     28 H15        -1.4830    1.8730    2.4700 ha        1 BZ8      0.086500
     29 H22         2.4670    1.7820   -4.2140 ha        1 BZ8      0.084500
     30 H30         0.2010    2.5650   -4.1470 ho        1 BZ8      0.424000
     31 H29         4.7180    0.4930   -3.8310 ho        1 BZ8      0.425000
     32 H341        0.2590    0.9080    4.3940 h1        1 BZ8      0.040700
     33 H342        0.6260   -0.5500    3.8480 h1        1 BZ8      0.040700
     34 HAA1       -0.6210   -0.4010    6.3640 hc        1 BZ8      0.050700
     35 HAA2        0.9420   -0.0360    6.2970 hc        1 BZ8      0.050700
     36 HAA3        0.4330   -1.4900    5.8570 hc        1 BZ8      0.050700
@<TRIPOS>BOND
     1    1    2 2   
     2    1   20 1   
     3    2    3 1   
     4    3    4 2   
     5    3    5 1   
     6    4    6 1   
     7    4   20 1   
     8    5   12 3   
     9    6   11 3   
    10    7    8 3   
    11    7   26 1   
    12    8   28 1   
    13    9   10 3   
    14    9   19 1   
    15   10   27 1   
    16   11   25 1   
    17   12   18 1   
    18   13   14 3   
    19   13   29 1   
    20   14   17 1   
    21   15   16 3   
    22   15   22 1   
    23   16   24 1   
    24   17   31 1   
    25   18   30 1   
    26   19   21 1   
    27   21   23 1   
    28   21   32 1   
    29   21   33 1   
    30   23   34 1   
    31   23   35 1   
    32   23   36 1   
@<TRIPOS>SUBSTRUCTURE
     1 BZ8         1 TEMP              0 ****  ****    0 ROOT
