@<TRIPOS>MOLECULE
BZ8
   36    38     1     0     0
SMALL
bcc


@<TRIPOS>ATOM
      1 N1          0.0590   -0.3070   -0.0290 nc        1 BZ8     -0.134100
      2 N2          1.2910   -0.2030   -0.1080 nd        1 BZ8     -0.258000
      3 C3          1.9360   -0.1390    1.1590 cd        1 BZ8      0.333800
      4 C4          1.0280   -0.2170    2.2240 cc        1 BZ8     -0.065400
      5 C6          3.3820   -0.0000    1.2360 ca        1 BZ8     -0.177500
      6 C7          1.3100   -0.2160    3.6360 ca        1 BZ8     -0.070000
      7 C16         2.3950   -0.9500    4.1470 ca        1 BZ8     -0.068500
      8 C15         2.6600   -0.9700    5.5080 ca        1 BZ8     -0.186000
      9 C14         1.8320   -0.2410    6.3850 ca        1 BZ8      0.147100
     10 C13         0.7480    0.4960    5.8910 ca        1 BZ8     -0.186000
     11 C12         0.4940    0.5010    4.5220 ca        1 BZ8     -0.068500
     12 C21         4.2350   -1.0260    0.7690 ca        1 BZ8      0.190100
     13 C22         5.6260   -0.8800    0.8060 ca        1 BZ8     -0.252000
     14 C23         6.1780    0.3040    1.3160 ca        1 BZ8      0.187100
     15 C24         5.3380    1.3310    1.7860 ca        1 BZ8     -0.111600
     16 C25         3.9510    1.1720    1.7370 ca        1 BZ8     -0.025000
     17 O29         7.5470    0.3690    1.3180 oh        1 BZ8     -0.487100
     18 O30         3.6430   -2.1730    0.3050 oh        1 BZ8     -0.477100
     19 O33         2.1830   -0.3270    7.7140 os        1 BZ8     -0.326900
     20 S1         -0.5260   -0.3550    1.5530 ss        1 BZ8      0.098200
     21 C34         1.3580    0.4030    8.6340 c3        1 BZ8      0.127400
     22 Cl          5.9890    2.7740    2.4100 cl        1 BZ8     -0.089400
     23 CAA         1.9420    0.1490   10.0050 c3        1 BZ8     -0.101100
     24 H25         3.2940    1.9810    2.0970 ha        1 BZ8      0.160000
     25 H12        -0.3590    1.0790    4.1330 ha        1 BZ8      0.143500
     26 H16         3.0390   -1.5140    3.4530 ha        1 BZ8      0.143500
     27 H13         0.0960    1.0690    6.5640 ha        1 BZ8      0.148500
     28 H15         3.5050   -1.5440    5.9150 ha        1 BZ8      0.148500
     29 H22         6.2940   -1.6730    0.4400 ha        1 BZ8      0.160000
     30 H30         4.3360   -2.7430   -0.0640 ho        1 BZ8      0.427000
     31 H29         7.8140    1.2300    1.6790 ho        1 BZ8      0.435000
     32 H341        1.3880    1.4940    8.3750 h1        1 BZ8      0.039700
     33 H342        0.3040    0.0270    8.5650 h1        1 BZ8      0.039700
     34 HAA1        2.9990    0.5050   10.0510 hc        1 BZ8      0.050700
     35 HAA2        1.3370    0.6960   10.7660 hc        1 BZ8      0.050700
     36 HAA3        1.9290   -0.9420   10.2390 hc        1 BZ8      0.050700
@<TRIPOS>BOND
     1    1    2 2   
     2    1   20 1   
     3    2    3 1   
     4    3    4 2   
     5    3    5 1   
     6    4    6 1   
     7    4   20 1   
     8    5   12 ar  
     9    5   16 ar  
    10    6    7 ar  
    11    6   11 ar  
    12    7    8 ar  
    13    7   26 1   
    14    8    9 ar  
    15    8   28 1   
    16    9   10 ar  
    17    9   19 1   
    18   10   11 ar  
    19   10   27 1   
    20   11   25 1   
    21   12   13 ar  
    22   12   18 1   
    23   13   14 ar  
    24   13   29 1   
    25   14   15 ar  
    26   14   17 1   
    27   15   16 ar  
    28   15   22 1   
    29   16   24 1   
    30   17   31 1   
    31   18   30 1   
    32   19   21 1   
    33   21   23 1   
    34   21   32 1   
    35   21   33 1   
    36   23   34 1   
    37   23   35 1   
    38   23   36 1   
@<TRIPOS>SUBSTRUCTURE
     1 BZ8         1 TEMP              0 ****  ****    0 ROOT
