@<TRIPOS>MOLECULE
BZ8
   36    38     1     0     0
SMALL
bcc


@<TRIPOS>ATOM
      1 N1         -1.5490    3.9370   -0.4970 nc        1 BZ8     -0.135100
      2 N2         -2.1800    2.8830   -0.3310 nd        1 BZ8     -0.266000
      3 C3         -1.3480    1.7530   -0.1070 cd        1 BZ8      0.290800
      4 C4          0.0150    2.0850   -0.1160 cc        1 BZ8     -0.051400
      5 C6         -1.9290    0.4250    0.0370 ca        1 BZ8     -0.225500
      6 C7          1.1430    1.2160    0.0990 ca        1 BZ8     -0.079000
      7 C16         1.0970    0.2140    1.0850 ca        1 BZ8     -0.065000
      8 C15         2.1870   -0.6140    1.3070 ca        1 BZ8     -0.185500
      9 C14         3.3510   -0.4490    0.5300 ca        1 BZ8      0.152100
     10 C13         3.4110    0.5440   -0.4580 ca        1 BZ8     -0.185500
     11 C12         2.3090    1.3700   -0.6640 ca        1 BZ8     -0.065000
     12 C21        -2.3880   -0.0460    1.2850 ca        1 BZ8      0.184100
     13 C22        -2.9510   -1.3230    1.4140 ca        1 BZ8     -0.192000
     14 C23        -3.0620   -2.1350    0.2780 ca        1 BZ8      0.180100
     15 C24        -2.6160   -1.6690   -0.9760 ca        1 BZ8     -0.109600
     16 C25        -2.0600   -0.3950   -1.0870 ca        1 BZ8     -0.018000
     17 O29        -3.6190   -3.3700    0.4820 oh        1 BZ8     -0.484100
     18 O30        -2.2920    0.6790    2.4460 oh        1 BZ8     -0.489100
     19 O33         4.3720   -1.3210    0.8290 os        1 BZ8     -0.325900
     20 S1          0.1260    3.7530   -0.4100 ss        1 BZ8      0.111200
     21 C34         5.5690   -1.1870    0.0480 c3        1 BZ8      0.127400
     22 CL         -2.7500   -2.6430   -2.3660 cl        1 BZ8     -0.090400
     23 CAA         6.5160   -2.2480    0.5590 c3        1 BZ8     -0.101100
     24 H25        -1.7170   -0.0290   -2.0680 ha        1 BZ8      0.157000
     25 H12         2.3570    2.1500   -1.4400 ha        1 BZ8      0.143000
     26 H16         0.1800    0.0870    1.6860 ha        1 BZ8      0.143000
     27 H13         4.3120    0.6820   -1.0720 ha        1 BZ8      0.150500
     28 H15         2.1580   -1.3970    2.0780 ha        1 BZ8      0.150500
     29 H22        -3.3040   -1.6820    2.3910 ha        1 BZ8      0.175000
     30 H30        -2.0250    1.5830    2.2210 ho        1 BZ8      0.432000
     31 H29        -3.6610   -3.8330   -0.3700 ho        1 BZ8      0.434000
     32 H341        5.3250   -1.3470   -1.0350 h1        1 BZ8      0.040700
     33 H342        5.9930   -0.1590    0.1930 h1        1 BZ8      0.040700
     34 HAA1        7.4710   -2.1910   -0.0150 hc        1 BZ8      0.051700
     35 HAA2        6.7300   -2.0910    1.6440 hc        1 BZ8      0.051700
     36 HAA3        6.0710   -3.2640    0.4320 hc        1 BZ8      0.051700
@<TRIPOS>BOND
     1    1    2 2   
     2    1   20 1   
     3    2    3 1   
     4    3    4 2   
     5    3    5 1   
     6    4    6 1   
     7    4   20 1   
     8    5   12 ar  
     9    5   16 ar  
    10    6    7 ar  
    11    6   11 ar  
    12    7    8 ar  
    13    7   26 1   
    14    8    9 ar  
    15    8   28 1   
    16    9   10 ar  
    17    9   19 1   
    18   10   11 ar  
    19   10   27 1   
    20   11   25 1   
    21   12   13 ar  
    22   12   18 1   
    23   13   14 ar  
    24   13   29 1   
    25   14   15 ar  
    26   14   17 1   
    27   15   16 ar  
    28   15   22 1   
    29   16   24 1   
    30   17   31 1   
    31   18   30 1   
    32   19   21 1   
    33   21   23 1   
    34   21   32 1   
    35   21   33 1   
    36   23   34 1   
    37   23   35 1   
    38   23   36 1   
@<TRIPOS>SUBSTRUCTURE
     1 BZ8         1 TEMP              0 ****  ****    0 ROOT
