@<TRIPOS>MOLECULE
BZ8
   36    38     1     0     0
SMALL
bcc


@<TRIPOS>ATOM
      1 N1          0.0570   -0.2830   -0.0300 nc        1 BZ8     -0.134100
      2 N2          1.2900   -0.1850   -0.1080 nd        1 BZ8     -0.258000
      3 C3          1.9340   -0.1280    1.1590 cd        1 BZ8      0.333800
      4 C4          1.0260   -0.2030    2.2240 cc        1 BZ8     -0.065400
      5 C6          3.3810    0.0020    1.2360 ca        1 BZ8     -0.177500
      6 C7          1.3090   -0.2060    3.6360 ca        1 BZ8     -0.070000
      7 C16         2.3890   -0.9490    4.1450 ca        1 BZ8     -0.068500
      8 C15         2.6540   -0.9730    5.5060 ca        1 BZ8     -0.186000
      9 C14         1.8310   -0.2400    6.3850 ca        1 BZ8      0.147100
     10 C13         0.7520    0.5050    5.8920 ca        1 BZ8     -0.186000
     11 C12         0.4980    0.5150    4.5230 ca        1 BZ8     -0.068500
     12 C21         4.2280   -1.0280    0.7670 ca        1 BZ8      0.190100
     13 C22         5.6200   -0.8910    0.8040 ca        1 BZ8     -0.252000
     14 C23         6.1790    0.2890    1.3160 ca        1 BZ8      0.187100
     15 C24         5.3450    1.3200    1.7890 ca        1 BZ8     -0.111600
     16 C25         3.9580    1.1700    1.7400 ca        1 BZ8     -0.025000
     17 O29         7.5480    0.3450    1.3190 oh        1 BZ8     -0.487100
     18 O30         3.6290   -2.1710    0.3010 oh        1 BZ8     -0.477100
     19 O33         2.1820   -0.3310    7.7130 os        1 BZ8     -0.326900
     20 S1         -0.5280   -0.3300    1.5520 ss        1 BZ8      0.098200
     21 C34         1.3630    0.4030    8.6350 c3        1 BZ8      0.127400
     22 CL          6.0050    2.7580    2.4160 cl        1 BZ8     -0.089400
     23 CAA         1.9450    0.1420   10.0050 c3        1 BZ8     -0.101100
     24 H25         3.3060    1.9820    2.1010 ha        1 BZ8      0.160000
     25 H12        -0.3510    1.1000    4.1360 ha        1 BZ8      0.143500
     26 H16         3.0290   -1.5160    3.4490 ha        1 BZ8      0.143500
     27 H13         0.1040    1.0820    6.5660 ha        1 BZ8      0.148500
     28 H15         3.4950   -1.5540    5.9120 ha        1 BZ8      0.148500
     29 H22         6.2830   -1.6870    0.4360 ha        1 BZ8      0.160000
     30 H30         4.3190   -2.7440   -0.0690 ho        1 BZ8      0.427000
     31 H29         7.8210    1.2040    1.6820 ho        1 BZ8      0.435000
     32 H341        1.3990    1.4940    8.3780 h1        1 BZ8      0.039700
     33 H342        0.3050    0.0340    8.5660 h1        1 BZ8      0.039700
     34 HAA1        3.0040    0.4910   10.0520 hc        1 BZ8      0.050700
     35 HAA2        1.3430    0.6910   10.7670 hc        1 BZ8      0.050700
     36 HAA3        1.9240   -0.9500   10.2370 hc        1 BZ8      0.050700
@<TRIPOS>BOND
     1    1    2 2   
     2    1   20 1   
     3    2    3 1   
     4    3    4 2   
     5    3    5 1   
     6    4    6 1   
     7    4   20 1   
     8    5   12 ar  
     9    5   16 ar  
    10    6    7 ar  
    11    6   11 ar  
    12    7    8 ar  
    13    7   26 1   
    14    8    9 ar  
    15    8   28 1   
    16    9   10 ar  
    17    9   19 1   
    18   10   11 ar  
    19   10   27 1   
    20   11   25 1   
    21   12   13 ar  
    22   12   18 1   
    23   13   14 ar  
    24   13   29 1   
    25   14   15 ar  
    26   14   17 1   
    27   15   16 ar  
    28   15   22 1   
    29   16   24 1   
    30   17   31 1   
    31   18   30 1   
    32   19   21 1   
    33   21   23 1   
    34   21   32 1   
    35   21   33 1   
    36   23   34 1   
    37   23   35 1   
    38   23   36 1   
@<TRIPOS>SUBSTRUCTURE
     1 BZ8         1 TEMP              0 ****  ****    0 ROOT
