@<TRIPOS>MOLECULE
BZ9
   59    59     1     0     0
SMALL
bcc


@<TRIPOS>ATOM
      1 N1          0.5250    0.8410    1.5840 na        1 BZ9     -0.644000
      2 C4          1.0180   -1.0020    2.8530 cc        1 BZ9     -0.021000
      3 C5         -4.2630   -0.8180    4.8420 c1        1 BZ9     -0.125500
      4 C6         -3.1460   -0.8500    4.4100 cg        1 BZ9     -0.178300
      5 C7         -1.8330   -0.9100    3.9210 ce        1 BZ9     -0.016700
      6 C8         -1.3430   -0.0420    3.0140 cf        1 BZ9     -0.081000
      7 C10         5.6520    0.2540   -1.6070 ca        1 BZ9     -0.137000
      8 C13         6.5760   -1.3140   -4.8100 cg        1 BZ9     -0.167300
      9 C15         7.8690   -3.2430   -4.2080 c1        1 BZ9     -0.012800
     10 C17         6.5890    0.0920   -0.5750 ca        1 BZ9      0.037100
     11 C20         3.9000    0.6100    0.0450 ca        1 BZ9      0.179400
     12 C21        10.0560    0.4780   -0.3530 ce        1 BZ9     -0.191000
     13 C22        11.5680    3.7870   -1.2820 c1        1 BZ9     -0.109500
     14 C24         9.1650    3.0120   -1.8530 cg        1 BZ9      0.000000
     15 C26         8.8510    0.7230   -0.9210 c2        1 BZ9      0.199100
     16 C28        10.4360   -0.7200    0.4080 ce        1 BZ9      0.158600
     17 C35         8.4220   -4.3830   -4.4830 c2        1 BZ9     -0.250100
     18 C32        10.3840   -2.5230   -1.1710 cf        1 BZ9      0.941500
     19 N27        10.0400   -2.0050   -0.0150 ne        1 BZ9     -0.645300
     20 N31        11.1650   -1.8770   -2.1530 n1        1 BZ9     -0.919400
     21 C30        11.8470   -1.3410   -2.9590 c1        1 BZ9      0.504800
     22 C29        11.1080   -0.5510    1.5700 c2        1 BZ9     -0.214000
     23 C23        10.4750    3.3290   -1.4900 cg        1 BZ9     -0.187000
     24 N25         8.4880    1.9180   -1.6110 nh        1 BZ9     -0.427800
     25 C18         6.2060    0.1890    0.7700 ca        1 BZ9     -0.043300
     26 C36         7.1710    0.0260    1.8810 c3        1 BZ9     -0.066800
     27 C19         4.8630    0.4480    1.0630 ca        1 BZ9     -0.179000
     28 C14         7.3200   -2.0930   -3.9080 ce        1 BZ9     -0.052800
     29 C12         5.9410   -0.6330   -5.5640 c1        1 BZ9     -0.132500
     30 C11         4.3240    0.5070   -1.3050 ca        1 BZ9     -0.123000
     31 C9          1.8520    0.3930    1.2320 cc        1 BZ9      0.780100
     32 N2          2.1920   -0.6690    2.1530 na        1 BZ9     -0.704000
     33 C3          0.0070   -0.1120    2.5150 cd        1 BZ9      0.017000
     34 H5          1.0070   -1.8190    3.5770 h4        1 BZ9      0.182000
     35 H6         -5.2510   -0.7910    5.2260 ha        1 BZ9      0.169500
     36 H7         -1.2120   -1.7260    4.3320 ha        1 BZ9      0.137000
     37 H8         -1.9730    0.7740    2.6180 ha        1 BZ9      0.144000
     38 H13         5.3820   -0.0280   -6.2310 ha        1 BZ9      0.169500
     39 H15         5.9750    0.1520   -2.6560 ha        1 BZ9      0.150000
     40 H22        10.8550    1.2380   -0.4260 ha        1 BZ9      0.164000
     41 H24         7.5470    1.9110   -1.9670 hn        1 BZ9      0.469800
     42 H35         9.7310   -3.9980   -2.4290 hn        1 BZ9      0.408800
     43 H35A        9.4450   -4.4590   -4.8830 ha        1 BZ9      0.139000
     44 H30        11.3400    0.4530    1.9460 ha        1 BZ9      0.126000
     45 H29        11.4450   -1.3870    2.1950 ha        1 BZ9      0.126000
     46 H23        12.5280    4.2030   -1.1060 ha        1 BZ9      0.166500
     47 H36         6.8010   -0.7420    2.6050 hc        1 BZ9      0.057033
     48 H36A        8.1740   -0.2980    1.5040 hc        1 BZ9      0.057033
     49 H36B        7.2910    0.9940    2.4300 hc        1 BZ9      0.057033
     50 H19         4.5750    0.5560    2.1210 ha        1 BZ9      0.147000
     51 H14         7.4280   -1.6670   -2.8850 ha        1 BZ9      0.171000
     52 H12         3.5960    0.6370   -2.1220 ha        1 BZ9      0.150000
     53 HN16        2.8520   -1.3610    1.8890 hn        1 BZ9      0.446800
     54 HN1        -0.0650    1.1910    0.8640 hn        1 BZ9      0.444800
     55 H221        7.8950   -5.3400   -4.3490 ha        1 BZ9      0.139000
     56 H231        9.3980   -4.2720   -0.8210 hn        1 BZ9      0.408800
     57 N16         2.5630    0.9610    0.2830 nf        1 BZ9     -0.678100
     58 O33         7.8840   -0.2950   -0.9400 os        1 BZ9     -0.263200
     59 N34        10.0300   -3.8690   -1.4820 nh        1 BZ9     -0.881800
@<TRIPOS>BOND
     1    1   31 1   
     2    1   33 1   
     3    1   54 1   
     4    2   32 1   
     5    2   33 2   
     6    2   34 1   
     7    3    4 3   
     8    3   35 1   
     9    4    5 1   
    10    5    6 2   
    11    5   36 1   
    12    6   33 1   
    13    6   37 1   
    14    7   10 ar  
    15    7   30 ar  
    16    7   39 1   
    17    8   28 1   
    18    8   29 3   
    19    9   17 2   
    20    9   28 2   
    21   10   25 ar  
    22   10   58 1   
    23   11   27 ar  
    24   11   30 ar  
    25   11   57 1   
    26   12   15 2   
    27   12   16 1   
    28   12   40 1   
    29   13   23 3   
    30   13   46 1   
    31   14   23 1   
    32   14   24 3   
    33   15   24 1   
    34   15   58 1   
    35   16   19 1   
    36   16   22 2   
    37   17   43 1   
    38   17   55 1   
    39   18   19 2   
    40   18   20 1   
    41   18   59 1   
    42   20   21 3   
    43   22   44 1   
    44   22   45 1   
    45   24   41 1   
    46   25   26 1   
    47   25   27 ar  
    48   26   47 1   
    49   26   48 1   
    50   26   49 1   
    51   27   50 1   
    52   28   51 1   
    53   29   38 1   
    54   30   52 1   
    55   31   32 1   
    56   31   57 2   
    57   32   53 1   
    58   42   59 1   
    59   56   59 1   
@<TRIPOS>SUBSTRUCTURE
     1 BZ9         1 TEMP              0 ****  ****    0 ROOT
