@<TRIPOS>MOLECULE
BZ9
   59    48     1     0     0
SMALL
bcc


@<TRIPOS>ATOM
      1 N1         -5.3770    1.3590   -0.3390 n2        1 BZ9     -0.244000
      2 C4         -5.6390    2.2690    1.6470 c1        1 BZ9     -0.055000
      3 C5         -6.2180    3.1270    2.6020 c1        1 BZ9     -0.080000
      4 C6         -7.2580    3.9680    2.2370 c1        1 BZ9     -0.148000
      5 C7         -7.7270    3.9650    0.9340 c2        1 BZ9     -0.122000
      6 C8         -7.1570    3.1210   -0.0060 c1        1 BZ9     -0.130000
      7 C10        -0.4380   -0.2550   -1.2400 c1        1 BZ9     -0.022000
      8 C13        -1.9020    0.3160   -3.5440 c1        1 BZ9     -0.120750
      9 C15         0.2240    0.0600   -2.4420 c1        1 BZ9     -0.120750
     10 C17         0.3060   -0.4960   -0.0690 c1        1 BZ9      0.065000
     11 C20        -2.4740   -0.5510    0.0150 c1        1 BZ9      0.015000
     12 C21         3.8480    0.1450    0.0030 c1        1 BZ9     -0.107000
     13 C22         4.6370    1.2110    0.3230 c1        1 BZ9     -0.032000
     14 C24         2.6860    2.5130    0.7380 c1        1 BZ9     -0.027000
     15 C26         2.4680    0.2650    0.0510 c1        1 BZ9      0.137000
     16 C28         4.4270   -1.0480   -0.4020 c1        1 BZ9      0.103000
     17 C35         6.9690   -5.0320    0.4610 c3        1 BZ9     -0.086000
     18 N34         6.2360   -3.9070    0.9360 n3        1 BZ9     -0.272000
     19 C32         5.6930   -2.9740    0.0160 c2        1 BZ9      0.142000
     20 N27         4.9260   -1.9410    0.4650 n1        1 BZ9     -0.228000
     21 N31         5.9530   -3.1010   -1.3160 n2        1 BZ9     -0.211000
     22 C30         5.4540   -2.2100   -2.1850 c1        1 BZ9     -0.006000
     23 C29         4.6860   -1.1750   -1.7360 c1        1 BZ9     -0.260000
     24 C23         4.0660    2.3950    0.6900 c2        1 BZ9     -0.219000
     25 N25         1.9000    1.4480    0.4180 n1        1 BZ9     -0.187000
     26 O33         1.6560   -0.8300   -0.2850 o         1 BZ9     -0.153000
     27 C18        -0.3480   -0.7600    1.1270 c2        1 BZ9     -0.043000
     28 C36         0.0460   -1.3460    2.4660 c3        1 BZ9     -0.181000
     29 C19        -1.7400   -0.7880    1.1690 c2        1 BZ9     -0.143000
     30 C14        -0.5110    0.3430   -3.5860 c1        1 BZ9     -0.120750
     31 C12        -2.5560    0.0050   -2.3590 c1        1 BZ9     -0.120750
     32 C11        -1.8120   -0.2830   -1.1990 c1        1 BZ9     -0.031000
     33 N16        -3.8680   -0.4640    0.2710 n2        1 BZ9     -0.202000
     34 C9         -4.4690    0.8010    0.5050 c2        1 BZ9      0.106000
     35 N2         -4.6320    1.3650    1.7310 n1        1 BZ9     -0.177000
     36 C3         -6.1010    2.2660    0.3640 c1        1 BZ9     -0.030000
     37 H5         -5.8880    3.1290    3.5200 ha        1 BZ9      0.146000
     38 H6         -7.6590    4.5630    2.8990 DU        1 BZ9      0.188000
     39 H7         -8.4590    4.5570    0.6770 ha        1 BZ9      0.130000
     40 H8         -7.4880    3.1190   -0.9240 ha        1 BZ9      0.135000
     41 H13        -2.4190    0.5150   -4.3490 ha        1 BZ9      0.143250
     42 H15         1.2000    0.0790   -2.4720 ha        1 BZ9      0.143250
     43 H22         5.6090    1.1270    0.2890 ha        1 BZ9      0.161000
     44 H24         2.2780    3.3590    1.0000 DU        1 BZ9      0.188000
     45 H35         6.3850   -5.5910   -0.0950 h1        1 BZ9      0.085000
     46 H35A        7.2950   -5.5560    1.2240 h1        1 BZ9      0.085000
     47 H30         5.6400   -2.3010   -3.1390 ha        1 BZ9      0.164000
     48 H29         4.3230   -0.5260   -2.3680 ha        1 BZ9      0.163000
     49 H23         4.6300    3.1580    0.9190 ha        1 BZ9      0.151000
     50 H36        -0.1920   -0.7180    3.1800 hc        1 BZ9      0.094000
     51 H36A        1.0130   -1.5050    2.4810 hc        1 BZ9      0.094000
     52 H36B       -0.4270   -2.1930    2.6040 hc        1 BZ9      0.094000
     53 H19        -2.1990   -0.9740    2.0100 ha        1 BZ9      0.145000
     54 H14        -0.0520    0.5620   -4.4190 ha        1 BZ9      0.143250
     55 H12        -3.5320   -0.0140   -2.3300 ha        1 BZ9      0.143250
     56 HN16       -4.3760   -1.2210    0.2920 hn        1 BZ9      0.222000
     57 HN1        -5.4920    1.1480   -1.2190 DU        1 BZ9      0.188000
     58 H221        7.7320   -4.7230   -0.0740 h1        1 BZ9      0.085000
     59 H231        6.1240   -3.7810    1.8330 hn        1 BZ9      0.221000
@<TRIPOS>BOND
     1    1   34 1   
     2    1   36 1   
     3    2   36 1   
     4    3    4 1   
     5    3   37 1   
     6    4    5 1   
     7    5    6 1   
     8    5   39 1   
     9    6   40 1   
    10    7   10 1   
    11    7   32 1   
    12    8   31 1   
    13    8   41 1   
    14    9   30 1   
    15    9   42 1   
    16   10   27 1   
    17   11   29 1   
    18   11   32 1   
    19   12   15 1   
    20   13   24 1   
    21   13   43 1   
    22   14   24 1   
    23   14   25 1   
    24   15   26 1   
    25   16   23 1   
    26   17   18 1   
    27   17   45 1   
    28   17   46 1   
    29   17   58 1   
    30   18   19 1   
    31   18   59 1   
    32   19   20 1   
    33   19   21 1   
    34   21   22 1   
    35   22   47 1   
    36   23   48 1   
    37   24   49 1   
    38   27   28 1   
    39   27   29 1   
    40   28   50 1   
    41   28   51 1   
    42   28   52 1   
    43   29   53 1   
    44   30   54 1   
    45   31   55 1   
    46   33   34 1   
    47   33   56 1   
    48   34   35 1   
@<TRIPOS>SUBSTRUCTURE
     1 BZ9         1 TEMP              0 ****  ****    0 ROOT
