@<TRIPOS>MOLECULE
BZ9
   59    59     1     0     0
SMALL
bcc


@<TRIPOS>ATOM
      1 N1          0.5830    1.0350    1.6350 na        1 BZ9     -0.205000
      2 C4          0.8920   -0.9900    2.6620 c2        1 BZ9     -0.103000
      3 C5         -4.4550   -0.6960    4.4510 c1        1 BZ9     -0.182000
      4 C6         -3.3220   -0.7500    4.0620 c1        1 BZ9     -0.145000
      5 C7         -1.9950   -0.8370    3.6200 c2        1 BZ9     -0.049000
      6 C8         -1.4060    0.1060    2.8590 c2        1 BZ9     -0.082000
      7 C10         5.8080    0.5100   -1.4030 ca        1 BZ9     -0.133000
      8 C13         6.6360   -1.0410   -4.6720 c1        1 BZ9     -0.135000
      9 C15         7.8700   -3.0160   -4.1020 c1        1 BZ9     -0.140000
     10 C17         6.6820    0.1540   -0.3650 ca        1 BZ9     -0.011000
     11 C20         4.0050    0.7700    0.2120 ca        1 BZ9      0.040000
     12 C21        10.1510    0.4530   -0.0950 c2        1 BZ9     -0.201000
     13 C22        11.5110    3.2310   -3.1810 c1        1 BZ9      0.297000
     14 C24         9.3790    2.6840   -2.1530 c1        1 BZ9     -0.016000
     15 C26         8.9610    0.7270   -0.6790 c2        1 BZ9      0.078000
     16 C28        10.4950   -0.7750    0.6380 c2        1 BZ9      0.012000
     17 C35         8.4080   -4.1570   -4.4050 c2        1 BZ9     -0.189000
     18 C32        10.4630   -2.4520   -1.0750 c2        1 BZ9      0.258000
     19 N27        10.1540   -2.0470    0.1360 n2        1 BZ9     -0.212000
     20 N31        11.1420   -1.6740   -2.0380 n2        1 BZ9     -0.342000
     21 C30        11.7300   -0.9970   -2.8110 c1        1 BZ9      0.159000
     22 C29        11.0850   -0.6510    1.8490 c2        1 BZ9     -0.206000
     23 C23        10.7290    2.3620   -2.5690 c2        1 BZ9     -0.549000
     24 N25         8.6460    1.9480   -1.3450 n7        1 BZ9     -0.184000
     25 C18         6.2430    0.1040    0.9650 ca        1 BZ9     -0.037000
     26 C36         7.1440   -0.2740    2.0780 c3        1 BZ9     -0.190000
     27 C19         4.9060    0.4120    1.2380 ca        1 BZ9     -0.181000
     28 C14         7.3340   -1.8680   -3.7760 c2        1 BZ9     -0.020000
     29 C12         6.0410   -0.3200   -5.4210 c1        1 BZ9     -0.187000
     30 C11         4.4860    0.8140   -1.1220 ca        1 BZ9     -0.125000
     31 C9          1.8920    0.5440    1.2780 c2        1 BZ9      0.188000
     32 N2          2.1180   -0.6520    2.0590 na        1 BZ9     -0.265000
     33 C3         -0.0410    0.0060    2.4080 c2        1 BZ9     -0.064000
     34 H5          0.7930   -1.8930    3.2670 h4        1 BZ9      0.182000
     35 H6         -5.4560   -0.6500    4.7970 ha        1 BZ9      0.227000
     36 H7         -1.4480   -1.7430    3.9420 ha        1 BZ9      0.137000
     37 H8         -1.9620    1.0100    2.5530 ha        1 BZ9      0.144000
     38 H13         5.5170    0.3230   -6.0820 ha        1 BZ9      0.227000
     39 H15         6.1750    0.5260   -2.4430 ha        1 BZ9      0.153000
     40 H22        10.9550    1.2090   -0.1260 ha        1 BZ9      0.156000
     41 H24         7.7030    2.2620   -1.2020 hn        1 BZ9      0.264000
     42 H35         9.8370   -3.8650   -2.4140 hn        1 BZ9      0.206000
     43 H35A        7.8580   -5.1060   -4.3240 ha        1 BZ9      0.138000
     44 H30        11.2810    0.3370    2.2820 ha        1 BZ9      0.126500
     45 H29        11.3900   -1.5110    2.4580 ha        1 BZ9      0.126500
     46 H23        11.1300    1.3290   -2.4350 ha        1 BZ9      0.195000
     47 H36         6.8000   -1.2340    2.5390 hc        1 BZ9      0.095667
     48 H36A        8.1950   -0.4150    1.7180 hc        1 BZ9      0.095667
     49 H36B        7.1370    0.5170    2.8690 hc        1 BZ9      0.095667
     50 H19         4.5750    0.4010    2.2880 ha        1 BZ9      0.147000
     51 H14         7.4160   -1.4820   -2.7360 ha        1 BZ9      0.171000
     52 H12         3.8070    1.0980   -1.9420 ha        1 BZ9      0.151000
     53 HN16        2.7420   -1.3490    1.7290 hn        1 BZ9      0.242000
     54 HN1         0.0510    1.5190    0.9470 hn        1 BZ9      0.240000
     55 H221        9.4400   -4.2400   -4.7800 ha        1 BZ9      0.138000
     56 H231        9.6170   -4.2870   -0.8190 hn        1 BZ9      0.206000
     57 N16         2.6840    1.1800    0.4430 n2        1 BZ9     -0.251000
     58 O33         7.9720   -0.2700   -0.7040 os        1 BZ9     -0.175000
     59 N34        10.1810   -3.7890   -1.4770 n8        1 BZ9     -0.317000
@<TRIPOS>BOND
     1    1   31 1   
     2    1   33 1   
     3    1   54 1   
     4    2   32 1   
     5    2   33 1   
     6    2   34 1   
     7    3    4 1   
     8    3   35 1   
     9    4    5 1   
    10    5    6 1   
    11    5   36 1   
    12    6   33 1   
    13    6   37 1   
    14    7   10 1   
    15    7   30 1   
    16    7   39 1   
    17    8   28 1   
    18    8   29 1   
    19    9   17 1   
    20    9   28 1   
    21   10   25 1   
    22   10   58 1   
    23   11   27 1   
    24   11   30 1   
    25   11   57 1   
    26   12   15 1   
    27   12   16 1   
    28   12   40 1   
    29   13   23 1   
    30   14   23 1   
    31   14   24 1   
    32   15   24 1   
    33   15   58 1   
    34   16   19 1   
    35   16   22 1   
    36   17   43 1   
    37   17   55 1   
    38   18   19 1   
    39   18   20 1   
    40   18   59 1   
    41   20   21 1   
    42   22   44 1   
    43   22   45 1   
    44   23   46 1   
    45   24   41 1   
    46   25   26 1   
    47   25   27 1   
    48   26   47 1   
    49   26   48 1   
    50   26   49 1   
    51   27   50 1   
    52   28   51 1   
    53   29   38 1   
    54   30   52 1   
    55   31   32 1   
    56   31   57 1   
    57   32   53 1   
    58   42   59 1   
    59   56   59 1   
@<TRIPOS>SUBSTRUCTURE
     1 BZ9         1 TEMP              0 ****  ****    0 ROOT
