@<TRIPOS>MOLECULE
BZ9
   59    64     1     0     0
SMALL
bcc


@<TRIPOS>ATOM
      1 N1         -5.7430   -0.8960    1.1520 na        1 BZ9     -0.288300
      2 C4         -5.7250    0.8780   -0.3020 ca        1 BZ9      0.089400
      3 C5         -6.2990    1.8560   -1.1210 ca        1 BZ9     -0.082000
      4 C6         -7.6840    1.9780   -1.1280 ca        1 BZ9     -0.144000
      5 C7         -8.5030    1.1510   -0.3460 ca        1 BZ9     -0.123000
      6 C8         -7.9710    0.1610    0.4750 ca        1 BZ9     -0.126000
      7 C10         0.1660   -1.7120    0.0450 ca        1 BZ9     -0.015000
      8 C13        -0.8370   -4.3240   -0.1340 ca        1 BZ9     -0.120000
      9 C15         0.9980   -2.7810   -0.3870 ca        1 BZ9     -0.101000
     10 C17         0.6560   -0.3740    0.1110 ca        1 BZ9      0.098100
     11 C20        -1.9940   -0.8810    0.8850 ca        1 BZ9      0.122600
     12 C21         3.7520    0.6390   -1.5460 cp        1 BZ9     -0.285800
     13 C22         4.1800    1.0270   -2.8210 ca        1 BZ9     -0.050000
     14 C24         1.9350    0.6910   -3.6190 ca        1 BZ9      0.438200
     15 C26         2.3850    0.2740   -1.3990 ca        1 BZ9      0.650600
     16 C28         4.7000    0.6240   -0.4210 cp        1 BZ9      0.545800
     17 C35         5.8320    1.9910    4.0210 c3        1 BZ9      0.192100
     18 C32         5.3730    1.3390    1.6950 ca        1 BZ9      0.863900
     19 N27         4.4390    1.3850    0.6630 nb        1 BZ9     -0.730000
     20 N31         6.5190    0.5480    1.6880 nb        1 BZ9     -0.741000
     21 C30         6.7270   -0.1780    0.5810 ca        1 BZ9      0.461200
     22 C29         5.8580   -0.1830   -0.5210 ca        1 BZ9     -0.413600
     23 C23         3.2690    1.0550   -3.8760 ca        1 BZ9     -0.285300
     24 N25         1.4830    0.3010   -2.4150 nb        1 BZ9     -0.705000
     25 C18        -0.1430    0.6780    0.5190 ca        1 BZ9     -0.046300
     26 C36         0.3400    2.0770    0.5680 c3        1 BZ9     -0.062800
     27 C19        -1.4750    0.4060    0.9150 ca        1 BZ9     -0.099000
     28 C14         0.5100   -4.0610   -0.4720 ca        1 BZ9     -0.129000
     29 C12        -1.6580   -3.3090    0.2970 ca        1 BZ9     -0.132000
     30 C11        -1.1790   -1.9750    0.4160 ca        1 BZ9     -0.045000
     31 C9         -4.4000   -0.4860    0.8080 cc        1 BZ9      0.589700
     32 N2         -4.3730    0.5320   -0.0940 nd        1 BZ9     -0.588100
     33 C3         -6.5830    0.0240    0.4980 ca        1 BZ9     -0.089200
     34 H5         -5.6660    2.5050   -1.7420 ha        1 BZ9      0.148000
     35 H6         -8.1530    2.7440   -1.7640 ha        1 BZ9      0.132000
     36 H7         -9.5950    1.2870   -0.3840 ha        1 BZ9      0.132000
     37 H8         -8.6210   -0.4870    1.0770 ha        1 BZ9      0.135000
     38 H13        -1.2210   -5.3500   -0.2250 ha        1 BZ9      0.133000
     39 H15         2.0420   -2.5510   -0.6510 ha        1 BZ9      0.145000
     40 H22         5.2310    1.3130   -2.9790 ha        1 BZ9      0.147000
     41 H24         1.1750    0.7080   -4.4210 h4        1 BZ9      0.029100
     42 H35         5.5110    2.7940    4.7370 h1        1 BZ9      0.044700
     43 H35A        5.5980    0.9880    4.4690 h1        1 BZ9      0.044700
     44 H30         7.6440   -0.7960    0.5860 h4        1 BZ9      0.025100
     45 H29         6.0540   -0.7910   -1.4100 ha        1 BZ9      0.154000
     46 H23         3.5790    1.3590   -4.8830 ha        1 BZ9      0.149000
     47 H36        -0.1370    2.6700   -0.2530 hc        1 BZ9      0.056700
     48 H36A        0.0680    2.5480    1.5450 hc        1 BZ9      0.056700
     49 H36B        1.4510    2.1240    0.4450 hc        1 BZ9      0.056700
     50 H19        -2.0940    1.2570    1.2450 ha        1 BZ9      0.159000
     51 H14         1.1530   -4.8880   -0.8060 ha        1 BZ9      0.135000
     52 H12        -2.7050   -3.5510    0.5290 ha        1 BZ9      0.122000
     53 HN16       -3.4630   -2.0850    1.6240 hn        1 BZ9      0.415800
     54 HN1        -5.9730   -1.2990    2.0250 hn        1 BZ9      0.290700
     55 H221        6.9430    2.0620    3.8710 h1        1 BZ9      0.044700
     56 H231        4.2230    2.5550    2.8510 hn        1 BZ9      0.428800
     57 N16        -3.2920   -1.1200    1.4160 nh        1 BZ9     -0.652600
     58 O33         2.0200   -0.1700   -0.1350 os        1 BZ9     -0.356400
     59 N34         5.1580    2.2120    2.7760 nh        1 BZ9     -0.827900
@<TRIPOS>BOND
     1    1   31 1   
     2    1   33 1   
     3    1   54 1   
     4    2    3 ar  
     5    2   32 1   
     6    2   33 ar  
     7    3    4 ar  
     8    3   34 1   
     9    4    5 ar  
    10    4   35 1   
    11    5    6 ar  
    12    5   36 1   
    13    6   33 ar  
    14    6   37 1   
    15    7    9 ar  
    16    7   10 ar  
    17    7   30 ar  
    18    8   28 ar  
    19    8   29 ar  
    20    8   38 1   
    21    9   28 ar  
    22    9   39 1   
    23   10   25 ar  
    24   10   58 1   
    25   11   27 ar  
    26   11   30 ar  
    27   11   57 1   
    28   12   13 ar  
    29   12   15 ar  
    30   12   16 1   
    31   13   23 ar  
    32   13   40 1   
    33   14   23 ar  
    34   14   24 ar  
    35   14   41 1   
    36   15   24 ar  
    37   15   58 1   
    38   16   19 ar  
    39   16   22 ar  
    40   17   42 1   
    41   17   43 1   
    42   17   55 1   
    43   17   59 1   
    44   18   19 ar  
    45   18   20 ar  
    46   18   59 1   
    47   20   21 ar  
    48   21   22 ar  
    49   21   44 1   
    50   22   45 1   
    51   23   46 1   
    52   25   26 1   
    53   25   27 ar  
    54   26   47 1   
    55   26   48 1   
    56   26   49 1   
    57   27   50 1   
    58   28   51 1   
    59   29   30 ar  
    60   29   52 1   
    61   31   32 2   
    62   31   57 1   
    63   53   57 1   
    64   56   59 1   
@<TRIPOS>SUBSTRUCTURE
     1 BZ9         1 TEMP              0 ****  ****    0 ROOT
