@<TRIPOS>MOLECULE
BZA
   37    35     1     0     0
SMALL
bcc


@<TRIPOS>ATOM
      1 C4C         1.5730   -0.9150   -1.0420 c3        1 BZA     -0.157000
      2 C9C         3.0200   -0.9150   -1.0420 c3        1 BZA      0.004000
      3 O3          3.4790   -2.1360   -1.7890 oh        1 BZA     -0.339000
      4 C8B         3.6920   -0.9150    0.2900 c3        1 BZA      0.008000
      5 O2          3.4390   -2.2490    0.9320 oh        1 BZA     -0.337000
      6 C3B         3.2840    0.1120    1.2260 c3        1 BZA      0.072000
      7 O1          4.0590    1.2920    0.9550 oh        1 BZA     -0.325000
      8 C3A         1.7220    0.5270    1.2060 c2        1 BZA     -0.064000
      9 C2A         1.2090    1.4880    2.0440 c2        1 BZA     -0.096000
     10 C4A         0.8510   -0.0640    0.1250 c2        1 BZA     -0.065000
     11 C1A        -0.1710    1.8160    1.9880 c1        1 BZA     -0.124000
     12 C5A        -1.3840   -0.5040   -0.7350 c1        1 BZA     -0.116000
     13 C4B        -0.5370    0.1490    0.1750 c1        1 BZA     -0.017000
     14 C6A        -3.6070   -0.8240   -1.6970 c1        1 BZA     -0.116000
     15 C7A        -4.9590   -0.4970   -1.7470 c1        1 BZA     -0.126000
     16 C8A        -5.4740    0.4800   -0.8920 c1        1 BZA     -0.126000
     17 C5B        -2.7600   -0.1720   -0.7860 c1        1 BZA     -0.033000
     18 C9B        -3.2710    0.7990    0.0630 c1        1 BZA     -0.034000
     19 C11        -1.0550    1.1300    1.0330 c1        1 BZA     -0.032000
     20 C9A        -4.6360    1.1280    0.0110 c1        1 BZA     -0.116000
     21 C10        -2.4180    1.4580    0.9820 c2        1 BZA     -0.105000
     22 H4C1        1.2720   -0.5630   -1.9010 hc        1 BZA      0.102000
     23 H4C2        1.2720   -1.8400   -0.9710 hc        1 BZA      0.102000
     24 H9C         3.3210   -0.1260   -1.5330 h1        1 BZA      0.089000
     25 H3          3.8520   -1.8900   -2.5570 ho        1 BZA      0.213000
     26 H8B         4.6530   -0.8250    0.1430 h1        1 BZA      0.095000
     27 HO2         4.2070   -2.5910    1.2160 ho        1 BZA      0.229000
     28 H3B         3.5030   -0.1960    2.1260 h1        1 BZA      0.107000
     29 H1          4.6350    1.4270    1.6170 ho        1 BZA      0.218000
     30 H2A         1.7860    1.9190    2.7030 ha        1 BZA      0.159000
     31 H1A        -0.5340    2.4990    2.5840 ha        1 BZA      0.135000
     32 H5A        -1.0300   -1.2060   -1.3130 ha        1 BZA      0.131000
     33 H6A        -3.2480   -1.5070   -2.2940 ha        1 BZA      0.131000
     34 H7A        -5.5470   -0.9510   -2.3800 ha        1 BZA      0.133000
     35 H8A        -6.4220    0.7090   -0.9270 ha        1 BZA      0.133000
     36 H9A        -4.9960    1.8110    0.6080 ha        1 BZA      0.133000
     37 H10        -2.7780    2.1410    1.5790 ha        1 BZA      0.136000
@<TRIPOS>BOND
     1    1    2 1   
     2    1   10 1   
     3    1   22 1   
     4    1   23 1   
     5    2    3 1   
     6    2    4 1   
     7    2   24 1   
     8    3   25 1   
     9    4    5 1   
    10    4    6 1   
    11    4   26 1   
    12    5   27 1   
    13    6    7 1   
    14    6    8 1   
    15    6   28 1   
    16    7   29 1   
    17    8    9 1   
    18    8   10 1   
    19    9   11 1   
    20    9   30 1   
    21   10   13 1   
    22   11   31 1   
    23   12   17 1   
    24   12   32 1   
    25   13   19 1   
    26   14   17 1   
    27   14   33 1   
    28   15   16 1   
    29   15   34 1   
    30   16   35 1   
    31   18   20 1   
    32   18   21 1   
    33   19   21 1   
    34   20   36 1   
    35   21   37 1   
@<TRIPOS>SUBSTRUCTURE
     1 BZA         1 TEMP              0 ****  ****    0 ROOT
