@<TRIPOS>MOLECULE
BZA
   37    40     1     0     0
SMALL
bcc


@<TRIPOS>ATOM
      1 C4C         0.0730   -0.0030    0.0760 c3        1 BZA     -0.073100
      2 C9C         1.5970    0.0070    0.0500 c3        1 BZA      0.106100
      3 O3          2.0920   -1.1910   -0.5360 oh        1 BZA     -0.609800
      4 C8B         2.1910    0.0560    1.4630 c3        1 BZA      0.155100
      5 O2          1.8370   -1.0820    2.2310 oh        1 BZA     -0.598800
      6 C3B         1.6760    1.2900    2.2240 c3        1 BZA      0.189400
      7 O1          2.6060    2.3260    1.9170 oh        1 BZA     -0.600800
      8 C3A         0.2650    1.6870    1.8990 ca        1 BZA     -0.114300
      9 C2A        -0.2920    2.7370    2.6950 ca        1 BZA     -0.128000
     10 C4A        -0.4900    1.0810    0.9250 ca        1 BZA     -0.028300
     11 C1A        -1.5730    3.1560    2.5040 ca        1 BZA     -0.113000
     12 C5A        -2.6990    0.8400   -0.2050 ca        1 BZA     -0.109000
     13 C4B        -1.8650    1.4720    0.7260 ca        1 BZA     -0.027000
     14 C6A        -4.8800    0.6050   -1.3450 ca        1 BZA     -0.119000
     15 C7A        -6.1700    1.0170   -1.5150 ca        1 BZA     -0.124000
     16 C8A        -6.6910    2.0960   -0.7420 ca        1 BZA     -0.125000
     17 C5B        -4.0260    1.2460   -0.3910 ca        1 BZA     -0.032000
     18 C9B        -4.5500    2.3220    0.3850 ca        1 BZA     -0.032000
     19 C11        -2.4020    2.5350    1.5150 ca        1 BZA     -0.032000
     20 C9A        -5.9080    2.7290    0.1790 ca        1 BZA     -0.117000
     21 C10        -3.7260    2.9460    1.3290 ca        1 BZA     -0.105000
     22 H4C1       -0.2760   -0.9960    0.4740 hc        1 BZA      0.064700
     23 H4C2       -0.2950    0.0950   -0.9800 hc        1 BZA      0.064700
     24 H9C         1.9710    0.8980   -0.5280 h1        1 BZA      0.060700
     25 H3          1.7280   -1.2390   -1.4280 ho        1 BZA      0.408000
     26 H8B         3.3140    0.1140    1.3830 h1        1 BZA      0.070700
     27 HO2         2.0530   -1.8530    1.6890 ho        1 BZA      0.422000
     28 H3B         1.7370    1.0690    3.3320 h1        1 BZA      0.069700
     29 H1          2.2090    3.1600    2.1960 ho        1 BZA      0.408000
     30 H2A         0.3400    3.1940    3.4730 ha        1 BZA      0.131000
     31 H1A        -2.0030    3.9700    3.1080 ha        1 BZA      0.135000
     32 H5A        -2.3220   -0.0030   -0.8040 ha        1 BZA      0.134000
     33 H6A        -4.4670   -0.2270   -1.9360 ha        1 BZA      0.132000
     34 H7A        -6.8290    0.5280   -2.2470 ha        1 BZA      0.134000
     35 H8A        -7.7350    2.4040   -0.9040 ha        1 BZA      0.134000
     36 H9A        -6.2970    3.5620    0.7830 ha        1 BZA      0.134000
     37 H10        -4.1280    3.7700    1.9390 ha        1 BZA      0.136000
@<TRIPOS>BOND
     1    1    2 1   
     2    1   10 1   
     3    1   22 1   
     4    1   23 1   
     5    2    3 1   
     6    2    4 1   
     7    2   24 1   
     8    3   25 1   
     9    4    5 1   
    10    4    6 1   
    11    4   26 1   
    12    5   27 1   
    13    6    7 1   
    14    6    8 1   
    15    6   28 1   
    16    7   29 1   
    17    8    9 ar  
    18    8   10 ar  
    19    9   11 ar  
    20    9   30 1   
    21   10   13 ar  
    22   11   19 ar  
    23   11   31 1   
    24   12   13 ar  
    25   12   17 ar  
    26   12   32 1   
    27   13   19 ar  
    28   14   15 ar  
    29   14   17 ar  
    30   14   33 1   
    31   15   16 ar  
    32   15   34 1   
    33   16   20 ar  
    34   16   35 1   
    35   17   18 ar  
    36   18   20 ar  
    37   18   21 ar  
    38   19   21 ar  
    39   20   36 1   
    40   21   37 1   
@<TRIPOS>SUBSTRUCTURE
     1 BZA         1 TEMP              0 ****  ****    0 ROOT
