@<TRIPOS>MOLECULE
BZA
   37    40     1     0     0
SMALL
bcc


@<TRIPOS>ATOM
      1 C4C         1.3800   -0.0720   -1.5160 c3        1 BZA     -0.077100
      2 C9C         1.3780   -0.5470   -2.9640 c3        1 BZA      0.148100
      3 O3          2.6630   -0.4450   -3.5580 oh        1 BZA     -0.586800
      4 C8B         0.4200    0.2950   -3.8140 c3        1 BZA      0.147100
      5 O2          0.8230    1.6520   -3.7400 oh        1 BZA     -0.581800
      6 C3B        -1.0140    0.1460   -3.2650 c3        1 BZA      0.162400
      7 O1         -1.5560   -1.0000   -3.9140 oh        1 BZA     -0.601800
      8 C3A        -1.0980    0.0560   -1.7690 ca        1 BZA     -0.123300
      9 C2A        -2.4140    0.0800   -1.2080 ca        1 BZA     -0.129000
     10 C4A         0.0050   -0.0130   -0.9510 ca        1 BZA     -0.019300
     11 C1A        -2.6000    0.0400    0.1400 ca        1 BZA     -0.115000
     12 C5A         0.9320   -0.0040    1.3610 ca        1 BZA     -0.106000
     13 C4B        -0.1580   -0.0110    0.4830 ca        1 BZA     -0.030000
     14 C6A         1.8650   -0.0130    3.6520 ca        1 BZA     -0.118000
     15 C7A         1.6680   -0.0280    5.0020 ca        1 BZA     -0.125000
     16 C8A         0.3480   -0.0450    5.5400 ca        1 BZA     -0.124000
     17 C5B         0.7510   -0.0150    2.7500 ca        1 BZA     -0.033000
     18 C9B        -0.5700   -0.0280    3.2890 ca        1 BZA     -0.031000
     19 C11        -1.4790   -0.0020    1.0300 ca        1 BZA     -0.030000
     20 C9A        -0.7370   -0.0450    4.7110 ca        1 BZA     -0.118000
     21 C10        -1.6630   -0.0170    2.4160 ca        1 BZA     -0.107000
     22 H4C1        2.0210   -0.7710   -0.9150 hc        1 BZA      0.070200
     23 H4C2        1.8410    0.9540   -1.4710 hc        1 BZA      0.070200
     24 H9C         1.0310   -1.6190   -3.0190 h1        1 BZA      0.052700
     25 H3          3.2910   -0.8270   -2.9330 ho        1 BZA      0.400000
     26 H8B         0.4510   -0.0720   -4.8770 h1        1 BZA      0.072700
     27 HO2         0.4610    2.0900   -4.5190 ho        1 BZA      0.403000
     28 H3B        -1.6150    1.0460   -3.5950 h1        1 BZA      0.049700
     29 H1         -2.2590   -1.3510   -3.3530 ho        1 BZA      0.410000
     30 H2A        -3.2720    0.1380   -1.8950 ha        1 BZA      0.131000
     31 H1A        -3.6110    0.0490    0.5760 ha        1 BZA      0.135000
     32 H5A         1.9600    0.0220    0.9680 ha        1 BZA      0.136000
     33 H6A         2.8790    0.0010    3.2250 ha        1 BZA      0.133000
     34 H7A         2.5200   -0.0270    5.6980 ha        1 BZA      0.134000
     35 H8A         0.2250   -0.0580    6.6330 ha        1 BZA      0.134000
     36 H9A        -1.7610   -0.0570    5.1130 ha        1 BZA      0.133000
     37 H10        -2.6840   -0.0160    2.8270 ha        1 BZA      0.136000
@<TRIPOS>BOND
     1    1    2 1   
     2    1   10 1   
     3    1   22 1   
     4    1   23 1   
     5    2    3 1   
     6    2    4 1   
     7    2   24 1   
     8    3   25 1   
     9    4    5 1   
    10    4    6 1   
    11    4   26 1   
    12    5   27 1   
    13    6    7 1   
    14    6    8 1   
    15    6   28 1   
    16    7   29 1   
    17    8    9 ar  
    18    8   10 ar  
    19    9   11 ar  
    20    9   30 1   
    21   10   13 ar  
    22   11   19 ar  
    23   11   31 1   
    24   12   13 ar  
    25   12   17 ar  
    26   12   32 1   
    27   13   19 ar  
    28   14   15 ar  
    29   14   17 ar  
    30   14   33 1   
    31   15   16 ar  
    32   15   34 1   
    33   16   20 ar  
    34   16   35 1   
    35   17   18 ar  
    36   18   20 ar  
    37   18   21 ar  
    38   19   21 ar  
    39   20   36 1   
    40   21   37 1   
@<TRIPOS>SUBSTRUCTURE
     1 BZA         1 TEMP              0 ****  ****    0 ROOT
