@<TRIPOS>MOLECULE
BZA
   37    40     1     0     0
SMALL
bcc


@<TRIPOS>ATOM
      1 C4C         0.0740    0.0020    0.0700 c3        1 BZA     -0.073100
      2 C9C         1.5980    0.0120    0.0490 c3        1 BZA      0.106100
      3 O3          2.0950   -1.1810   -0.5460 oh        1 BZA     -0.609800
      4 C8B         2.1890    0.0510    1.4630 c3        1 BZA      0.155100
      5 O2          1.8330   -1.0940    2.2210 oh        1 BZA     -0.598800
      6 C3B         1.6720    1.2780    2.2330 c3        1 BZA      0.189400
      7 O1          2.6030    2.3170    1.9350 oh        1 BZA     -0.600800
      8 C3A         0.2620    1.6770    1.9070 ca        1 BZA     -0.114300
      9 C2A        -0.2980    2.7210    2.7100 ca        1 BZA     -0.128000
     10 C4A        -0.4910    1.0790    0.9260 ca        1 BZA     -0.028300
     11 C1A        -1.5780    3.1410    2.5190 ca        1 BZA     -0.113000
     12 C5A        -2.6970    0.8470   -0.2100 ca        1 BZA     -0.109000
     13 C4B        -1.8650    1.4710    0.7270 ca        1 BZA     -0.027000
     14 C6A        -4.8750    0.6190   -1.3580 ca        1 BZA     -0.119000
     15 C7A        -6.1650    1.0330   -1.5270 ca        1 BZA     -0.124000
     16 C8A        -6.6890    2.1050   -0.7470 ca        1 BZA     -0.125000
     17 C5B        -4.0240    1.2530   -0.3960 ca        1 BZA     -0.032000
     18 C9B        -4.5500    2.3230    0.3870 ca        1 BZA     -0.032000
     19 C11        -2.4050    2.5280    1.5240 ca        1 BZA     -0.032000
     20 C9A        -5.9070    2.7300    0.1810 ca        1 BZA     -0.117000
     21 C10        -3.7290    2.9390    1.3380 ca        1 BZA     -0.105000
     22 H4C1       -0.2910    0.1090   -0.9860 hc        1 BZA      0.064700
     23 H4C2       -0.2760   -0.9940    0.4600 hc        1 BZA      0.064700
     24 H9C         1.9740    0.9080   -0.5220 h1        1 BZA      0.060700
     25 H3          1.7340   -1.2220   -1.4390 ho        1 BZA      0.408000
     26 H8B         3.3120    0.1090    1.3860 h1        1 BZA      0.070700
     27 HO2         2.0500   -1.8610    1.6740 ho        1 BZA      0.422000
     28 H3B         1.7300    1.0480    3.3390 h1        1 BZA      0.069700
     29 H1          2.2050    3.1480    2.2200 ho        1 BZA      0.408000
     30 H2A         0.3320    3.1710    3.4930 ha        1 BZA      0.131000
     31 H1A        -2.0100    3.9500    3.1290 ha        1 BZA      0.135000
     32 H5A        -2.3190    0.0080   -0.8160 ha        1 BZA      0.134000
     33 H6A        -4.4600   -0.2080   -1.9540 ha        1 BZA      0.132000
     34 H7A        -6.8220    0.5490   -2.2650 ha        1 BZA      0.134000
     35 H8A        -7.7320    2.4130   -0.9090 ha        1 BZA      0.134000
     36 H9A        -6.2990    3.5580    0.7910 ha        1 BZA      0.134000
     37 H10        -4.1330    3.7580    1.9530 ha        1 BZA      0.136000
@<TRIPOS>BOND
     1    1    2 1   
     2    1   10 1   
     3    1   22 1   
     4    1   23 1   
     5    2    3 1   
     6    2    4 1   
     7    2   24 1   
     8    3   25 1   
     9    4    5 1   
    10    4    6 1   
    11    4   26 1   
    12    5   27 1   
    13    6    7 1   
    14    6    8 1   
    15    6   28 1   
    16    7   29 1   
    17    8    9 ar  
    18    8   10 ar  
    19    9   11 ar  
    20    9   30 1   
    21   10   13 ar  
    22   11   19 ar  
    23   11   31 1   
    24   12   13 ar  
    25   12   17 ar  
    26   12   32 1   
    27   13   19 ar  
    28   14   15 ar  
    29   14   17 ar  
    30   14   33 1   
    31   15   16 ar  
    32   15   34 1   
    33   16   20 ar  
    34   16   35 1   
    35   17   18 ar  
    36   18   20 ar  
    37   18   21 ar  
    38   19   21 ar  
    39   20   36 1   
    40   21   37 1   
@<TRIPOS>SUBSTRUCTURE
     1 BZA         1 TEMP              0 ****  ****    0 ROOT
