@<TRIPOS>MOLECULE
BZC
   33    35     1     0     0
SMALL
bcc


@<TRIPOS>ATOM
      1 C1         -0.2280    0.1850   -2.0550 ca        1 BZC      0.090400
      2 N2          0.3120   -0.0600   -0.7810 nc        1 BZC     -0.579100
      3 C3         -0.7380   -0.0460    0.0730 cd        1 BZC      0.481400
      4 N4         -1.9660    0.1900   -0.5870 na        1 BZC     -0.275300
      5 C5         -1.6690    0.3530   -1.9420 ca        1 BZC     -0.079200
      6 C7         -2.4690    0.6160   -3.0590 ca        1 BZC     -0.115000
      7 C4          0.3730    0.3010   -3.3200 ca        1 BZC     -0.084600
      8 C19        -0.6670   -0.2490    1.5240 ca        1 BZC     -0.090900
      9 C2         -0.4420    0.5750   -4.4150 ca        1 BZC     -0.092000
     10 C6         -1.8330    0.7230   -4.2870 ca        1 BZC     -0.124000
     11 C8          1.8430    0.1820   -3.5390 c         1 BZC      0.674700
     12 N1          2.5610   -0.7110   -2.7870 n         1 BZC     -0.651000
     13 O1          2.4140    0.8430   -4.4360 o         1 BZC     -0.624100
     14 C11         0.4430    0.2240    2.2240 ca        1 BZC     -0.110000
     15 C12        -1.7020   -0.9160    2.1990 ca        1 BZC     -0.154000
     16 C13         0.5050    0.0270    3.6180 ca        1 BZC      0.122100
     17 O2          1.6400    0.5350    4.2180 os        1 BZC     -0.321900
     18 C15        -0.5250   -0.6320    4.2980 ca        1 BZC     -0.189000
     19 C17        -1.6230   -1.1010    3.5750 ca        1 BZC     -0.097000
     20 C18         1.7500    0.3390    5.6230 c3        1 BZC      0.111700
     21 HN4        -2.8460    0.3000   -0.1600 hn        1 BZC      0.309700
     22 H7         -3.5570    0.7370   -2.9650 ha        1 BZC      0.138000
     23 H2          0.0270    0.6900   -5.4070 ha        1 BZC      0.160000
     24 H6         -2.4290    0.9350   -5.1880 ha        1 BZC      0.139000
     25 HN11        3.5470   -0.7170   -2.8810 hn        1 BZC      0.316000
     26 HN12        2.1660   -1.1580   -2.0000 hn        1 BZC      0.316000
     27 H11         1.2680    0.7420    1.7120 ha        1 BZC      0.173000
     28 H12        -2.5660   -1.3120    1.6460 ha        1 BZC      0.134000
     29 H15        -0.4800   -0.7860    5.3840 ha        1 BZC      0.142000
     30 H17        -2.4330   -1.6270    4.1030 ha        1 BZC      0.138000
     31 H181        2.7320    0.8140    5.8740 h1        1 BZC      0.046700
     32 H182        0.9150    0.8520    6.1600 h1        1 BZC      0.046700
     33 H183        1.7650   -0.7510    5.8690 h1        1 BZC      0.046700
@<TRIPOS>BOND
     1    1    2 1   
     2    1    5 ar  
     3    1    7 ar  
     4    2    3 2   
     5    3    4 1   
     6    3    8 1   
     7    4    5 1   
     8    4   21 1   
     9    5    6 ar  
    10    6   10 ar  
    11    6   22 1   
    12    7    9 ar  
    13    7   11 1   
    14    8   14 ar  
    15    8   15 ar  
    16    9   10 ar  
    17    9   23 1   
    18   10   24 1   
    19   11   12 1   
    20   11   13 2   
    21   12   25 1   
    22   12   26 1   
    23   14   16 ar  
    24   14   27 1   
    25   15   19 ar  
    26   15   28 1   
    27   16   17 1   
    28   16   18 ar  
    29   17   20 1   
    30   18   19 ar  
    31   18   29 1   
    32   19   30 1   
    33   20   31 1   
    34   20   32 1   
    35   20   33 1   
@<TRIPOS>SUBSTRUCTURE
     1 BZC         1 TEMP              0 ****  ****    0 ROOT
