@<TRIPOS>MOLECULE
BZC
   34    36     1     0     0
SMALL
bcc


@<TRIPOS>ATOM
      1 C1         -0.2870    0.2240   -0.0090 ca        1 BZC      0.116400
      2 N2          1.0990    0.0670   -0.1120 nc        1 BZC     -0.680100
      3 C3          1.5620   -0.0040    1.1690 cd        1 BZC      0.567400
      4 N4          0.5250    0.1010    2.1110 na        1 BZC     -0.249300
      5 C5         -0.6680    0.2500    1.3950 ca        1 BZC     -0.092200
      6 C7         -1.9990    0.4000    1.7910 ca        1 BZC     -0.028000
      7 C4         -1.2900    0.3470   -0.9910 ca        1 BZC     -0.184600
      8 C19         2.9640   -0.1680    1.5630 ca        1 BZC     -0.130900
      9 C2         -2.6210    0.4980   -0.5660 ca        1 BZC     -0.022000
     10 C6         -2.9590    0.5240    0.7900 ca        1 BZC     -0.143000
     11 C8         -1.0350    0.3270   -2.4200 c         1 BZC      0.583700
     12 N1          0.3980    0.1330   -2.8700 nz        1 BZC     -0.745400
     13 O1         -1.8280    0.4440   -3.3470 o         1 BZC     -0.444100
     14 C11         3.9600    0.4570    0.8100 ca        1 BZC     -0.114000
     15 C12         3.2960   -0.9470    2.6820 ca        1 BZC     -0.143000
     16 C13         5.3060    0.2980    1.1930 ca        1 BZC      0.132100
     17 O2          6.2100    0.9490    0.3830 os        1 BZC     -0.323900
     18 C15         5.6450   -0.4760    2.3110 ca        1 BZC     -0.166000
     19 C17         4.6330   -1.0940    3.0450 ca        1 BZC     -0.084000
     20 C18         7.5820    0.8540    0.7610 c3        1 BZC      0.108700
     21 HN4         0.6240    0.0920    3.0950 hn        1 BZC      0.333700
     22 H7         -2.2840    0.4200    2.8550 ha        1 BZC      0.169000
     23 H2         -3.4170    0.5990   -1.3260 ha        1 BZC      0.173000
     24 H6         -4.0190    0.6450    1.0730 ha        1 BZC      0.172000
     25 HN11        0.9820    0.8960   -2.5110 hn        1 BZC      0.471800
     26 HN12        0.7630   -0.7520   -2.5000 hn        1 BZC      0.471800
     27 H11         3.7200    1.0760   -0.0660 ha        1 BZC      0.157000
     28 H12         2.5180   -1.4590    3.2650 ha        1 BZC      0.139000
     29 H15         6.6950   -0.6010    2.6140 ha        1 BZC      0.158000
     30 H17         4.8960   -1.7070    3.9210 ha        1 BZC      0.155000
     31 H181        7.7410    1.2850    1.7790 h1        1 BZC      0.056367
     32 H182        7.9260   -0.2080    0.7210 h1        1 BZC      0.056367
     33 H183        8.1030    1.4690   -0.0170 h1        1 BZC      0.056367
     34 H13         0.4430    0.1200   -3.8940 hn        1 BZC      0.471800
@<TRIPOS>BOND
     1    1    2 1   
     2    1    5 ar  
     3    1    7 ar  
     4    2    3 2   
     5    3    4 1   
     6    3    8 1   
     7    4    5 1   
     8    4   21 1   
     9    5    6 ar  
    10    6   10 ar  
    11    6   22 1   
    12    7    9 ar  
    13    7   11 1   
    14    8   14 ar  
    15    8   15 ar  
    16    9   10 ar  
    17    9   23 1   
    18   10   24 1   
    19   11   12 1   
    20   11   13 2   
    21   12   25 1   
    22   12   26 1   
    23   12   34 1   
    24   14   16 ar  
    25   14   27 1   
    26   15   19 ar  
    27   15   28 1   
    28   16   17 1   
    29   16   18 ar  
    30   17   20 1   
    31   18   19 ar  
    32   18   29 1   
    33   19   30 1   
    34   20   31 1   
    35   20   32 1   
    36   20   33 1   
@<TRIPOS>SUBSTRUCTURE
     1 BZC         1 TEMP              0 ****  ****    0 ROOT
