@<TRIPOS>MOLECULE
BZC
   34    36     1     0     0
SMALL
bcc


@<TRIPOS>ATOM
      1 C1         -0.2920    0.1830    0.0090 ca        1 BZC      0.116400
      2 N2          1.0960    0.0630   -0.1080 nc        1 BZC     -0.680100
      3 C3          1.5710   -0.0280    1.1680 cd        1 BZC      0.567400
      4 N4          0.5390    0.0300    2.1200 na        1 BZC     -0.249300
      5 C5         -0.6640    0.1660    1.4160 ca        1 BZC     -0.092200
      6 C7         -1.9950    0.2730    1.8250 ca        1 BZC     -0.028000
      7 C4         -1.3060    0.3040   -0.9620 ca        1 BZC     -0.184600
      8 C19         2.9790   -0.1660    1.5480 ca        1 BZC     -0.130900
      9 C2         -2.6370    0.4120   -0.5240 ca        1 BZC     -0.022000
     10 C6         -2.9650    0.3970    0.8350 ca        1 BZC     -0.143000
     11 C8         -1.0610    0.3240   -2.3930 c         1 BZC      0.583700
     12 N1          0.3720    0.1770   -2.8580 n4        1 BZC     -0.745400
     13 O1         -1.8640    0.4430   -3.3120 o         1 BZC     -0.444100
     14 C11         3.9530    0.5010    0.8020 ca        1 BZC     -0.114000
     15 C12         3.3390   -0.9610    2.6460 ca        1 BZC     -0.143000
     16 C13         5.3060    0.3650    1.1710 ca        1 BZC      0.132100
     17 O2          6.1870    1.0570    0.3700 os        1 BZC     -0.323900
     18 C15         5.6730   -0.4240    2.2690 ca        1 BZC     -0.166000
     19 C17         4.6820   -1.0830    2.9950 ca        1 BZC     -0.084000
     20 C18         7.5650    0.9860    0.7350 c3        1 BZC      0.108700
     21 HN4         0.6450    0.0010    3.1030 hn        1 BZC      0.333700
     22 H7         -2.2710    0.2620    2.8910 ha        1 BZC      0.169000
     23 H2         -3.4410    0.5110   -1.2760 ha        1 BZC      0.173000
     24 H6         -4.0260    0.4860    1.1270 ha        1 BZC      0.172000
     25 HN11        0.9400    0.9460   -2.4850 hn        1 BZC      0.471800
     26 HN12        0.7620   -0.7080   -2.5120 hn        1 BZC      0.471800
     27 H11         3.6920    1.1340   -0.0580 ha        1 BZC      0.157000
     28 H12         2.5780   -1.5060    3.2230 ha        1 BZC      0.139000
     29 H15         6.7280   -0.5310    2.5610 ha        1 BZC      0.158000
     30 H17         4.9670   -1.7100    3.8560 ha        1 BZC      0.155000
     31 H181        7.7210    1.3980    1.7620 h1        1 BZC      0.056367
     32 H182        7.9340   -0.0660    0.6680 h1        1 BZC      0.056367
     33 H183        8.0650    1.6320   -0.0320 h1        1 BZC      0.056367
     34 H13         0.4100    0.1900   -3.8830 hn        1 BZC      0.471800
@<TRIPOS>BOND
     1    1    2 1   
     2    1    5 ar  
     3    1    7 ar  
     4    2    3 2   
     5    3    4 1   
     6    3    8 1   
     7    4    5 1   
     8    4   21 1   
     9    5    6 ar  
    10    6   10 ar  
    11    6   22 1   
    12    7    9 ar  
    13    7   11 1   
    14    8   14 ar  
    15    8   15 ar  
    16    9   10 ar  
    17    9   23 1   
    18   10   24 1   
    19   11   12 1   
    20   11   13 2   
    21   12   25 1   
    22   12   26 1   
    23   12   34 1   
    24   14   16 ar  
    25   14   27 1   
    26   15   19 ar  
    27   15   28 1   
    28   16   17 1   
    29   16   18 ar  
    30   17   20 1   
    31   18   19 ar  
    32   18   29 1   
    33   19   30 1   
    34   20   31 1   
    35   20   32 1   
    36   20   33 1   
@<TRIPOS>SUBSTRUCTURE
     1 BZC         1 TEMP              0 ****  ****    0 ROOT
