@<TRIPOS>MOLECULE
BZC
   33    27     1     0     0
SMALL
bcc


@<TRIPOS>ATOM
      1 C1         -1.8670   -0.1550   -0.9910 c1        1 BZC     -0.049000
      2 N2         -0.5090   -0.1680   -0.9650 n1        1 BZC     -0.155000
      3 C3         -0.1170   -0.1880    0.3320 c2        1 BZC      0.071000
      4 N4         -1.2350   -0.1880    1.1110 n2        1 BZC     -0.231000
      5 C5         -2.3130   -0.1680    0.2940 c1        1 BZC     -0.034000
      6 C7         -3.7090   -0.1570    0.5630 c1        1 BZC     -0.114000
      7 C4         -2.7900   -0.1320   -2.0550 c1        1 BZC     -0.065000
      8 C19         1.2500   -0.3110    0.7170 c1        1 BZC     -0.003000
      9 C2         -4.1560   -0.1220   -1.7920 c1        1 BZC     -0.108500
     10 C6         -4.6110   -0.1340   -0.4760 c1        1 BZC     -0.108500
     11 C8         -2.4210    0.0230   -3.4650 c2        1 BZC      0.348000
     12 N1         -2.4950   -1.0740   -4.3290 n         1 BZC     -0.412000
     13 O1         -1.9830    1.1240   -3.8830 o         1 BZC     -0.384000
     14 C11         1.9950    0.8300    0.9390 c1        1 BZC     -0.146000
     15 C12         1.8470   -1.5680    0.8180 c1        1 BZC     -0.108500
     16 C13         3.3630    0.7270    1.2700 c1        1 BZC      0.078000
     17 O2          4.1430    1.9050    1.4460 os        1 BZC     -0.211000
     18 C15         3.9590   -0.5220    1.3710 c1        1 BZC     -0.186000
     19 C17         3.2030   -1.6750    1.1460 c1        1 BZC     -0.108500
     20 C18         4.3800    2.2480    2.8210 c3        1 BZC     -0.077000
     21 HN4        -1.2550   -0.1990    2.0170 DU        1 BZC      0.262000
     22 H7         -4.0280   -0.1650    1.4820 ha        1 BZC      0.139000
     23 H2         -4.8110   -0.1060   -2.5480 ha        1 BZC      0.148750
     24 H6         -5.5780   -0.1270   -0.2880 ha        1 BZC      0.148750
     25 HN11       -2.6760   -1.9290   -3.9860 hn        1 BZC      0.228500
     26 HN12       -2.4070   -0.9550   -5.2130 hn        1 BZC      0.228500
     27 H11         1.5870    1.7270    0.7840 ha        1 BZC      0.149000
     28 H12         1.3290   -2.3550    0.6650 ha        1 BZC      0.148750
     29 H15         4.9470   -0.5990    1.6100 ha        1 BZC      0.142000
     30 H17         3.6340   -2.5860    1.2190 ha        1 BZC      0.148750
     31 H181        4.7170    3.1820    2.8750 h1        1 BZC      0.086333
     32 H182        3.5620    2.1740    3.3150 h1        1 BZC      0.086333
     33 H183        5.0430    1.6410    3.1970 h1        1 BZC      0.086333
@<TRIPOS>BOND
     1    1    7 1   
     2    2    3 1   
     3    3    4 1   
     4    3    8 1   
     5    4    5 1   
     6    5    6 1   
     7    6   22 1   
     8    7   11 1   
     9    8   14 1   
    10    9   10 1   
    11    9   23 1   
    12   10   24 1   
    13   11   12 1   
    14   11   13 1   
    15   12   25 1   
    16   12   26 1   
    17   14   27 1   
    18   15   19 1   
    19   15   28 1   
    20   16   17 1   
    21   16   18 1   
    22   17   20 1   
    23   18   29 1   
    24   19   30 1   
    25   20   31 1   
    26   20   32 1   
    27   20   33 1   
@<TRIPOS>SUBSTRUCTURE
     1 BZC         1 TEMP              0 ****  ****    0 ROOT
