@<TRIPOS>MOLECULE
BZC
   34    36     1     0     0
SMALL
bcc


@<TRIPOS>ATOM
      1 C1         -0.2860    0.1960   -0.0150 ca        1 BZC      0.116400
      2 N2          1.1010    0.0500   -0.1120 nc        1 BZC     -0.680100
      3 C3          1.5620    0.0030    1.1710 cd        1 BZC      0.567400
      4 N4          0.5220    0.1140    2.1090 na        1 BZC     -0.249300
      5 C5         -0.6710    0.2420    1.3890 ca        1 BZC     -0.092200
      6 C7         -2.0040    0.3870    1.7800 ca        1 BZC     -0.028000
      7 C4         -1.2890    0.2960   -1.0000 ca        1 BZC     -0.184600
      8 C19         2.9650   -0.1430    1.5700 ca        1 BZC     -0.130900
      9 C2         -2.6210    0.4420   -0.5800 ca        1 BZC     -0.022000
     10 C6         -2.9630    0.4860    0.7750 ca        1 BZC     -0.143000
     11 C8         -1.0300    0.2550   -2.4270 c         1 BZC      0.583700
     12 N1          0.4050    0.0660   -2.8720 n4        1 BZC     -0.745400
     13 O1         -1.8230    0.3500   -3.3580 o         1 BZC     -0.444100
     14 C11         3.9570    0.4790    0.8090 ca        1 BZC     -0.114000
     15 C12         3.3010   -0.9010    2.7010 ca        1 BZC     -0.143000
     16 C13         5.3030    0.3360    1.1960 ca        1 BZC      0.132100
     17 O2          6.2030    0.9820    0.3790 os        1 BZC     -0.323900
     18 C15         5.6470   -0.4160    2.3270 ca        1 BZC     -0.166000
     19 C17         4.6380   -1.0310    3.0690 ca        1 BZC     -0.084000
     20 C18         7.5760    0.9040    0.7600 c3        1 BZC      0.108700
     21 HN4         0.6190    0.1220    3.0930 hn        1 BZC      0.333700
     22 H7         -2.2900    0.4210    2.8430 ha        1 BZC      0.169000
     23 H2         -3.4170    0.5240   -1.3430 ha        1 BZC      0.173000
     24 H6         -4.0240    0.6040    1.0540 ha        1 BZC      0.172000
     25 HN11        0.9820    0.8400   -2.5240 hn        1 BZC      0.471800
     26 HN12        0.4520    0.0380   -3.8960 hn        1 BZC      0.471800
     27 H11         3.7130    1.0810   -0.0770 ha        1 BZC      0.157000
     28 H12         2.5260   -1.4110    3.2910 ha        1 BZC      0.139000
     29 H15         6.6970   -0.5280    2.6340 ha        1 BZC      0.158000
     30 H17         4.9050   -1.6280    3.9560 ha        1 BZC      0.155000
     31 H181        7.9290   -0.1550    0.7380 h1        1 BZC      0.056367
     32 H182        8.0930    1.5120   -0.0260 h1        1 BZC      0.056367
     33 H183        7.7290    1.3530    1.7710 h1        1 BZC      0.056367
     34 H13         0.7770   -0.8100   -2.4870 hn        1 BZC      0.471800
@<TRIPOS>BOND
     1    1    2 1   
     2    1    5 ar  
     3    1    7 ar  
     4    2    3 2   
     5    3    4 1   
     6    3    8 1   
     7    4    5 1   
     8    4   21 1   
     9    5    6 ar  
    10    6   10 ar  
    11    6   22 1   
    12    7    9 ar  
    13    7   11 1   
    14    8   14 ar  
    15    8   15 ar  
    16    9   10 ar  
    17    9   23 1   
    18   10   24 1   
    19   11   12 1   
    20   11   13 2   
    21   12   25 1   
    22   12   26 1   
    23   12   34 1   
    24   14   16 ar  
    25   14   27 1   
    26   15   19 ar  
    27   15   28 1   
    28   16   17 1   
    29   16   18 ar  
    30   17   20 1   
    31   18   19 ar  
    32   18   29 1   
    33   19   30 1   
    34   20   31 1   
    35   20   32 1   
    36   20   33 1   
@<TRIPOS>SUBSTRUCTURE
     1 BZC         1 TEMP              0 ****  ****    0 ROOT
