@<TRIPOS>MOLECULE
BZD
   43    43     1     0     0
SMALL
bcc


@<TRIPOS>ATOM
      1 O5         52.2100 -185.9620  569.9530 os        1 BZD     -0.281000
      2 C1         52.9360 -187.0250  570.5630 c3        1 BZD      0.067000
      3 C2         52.0280 -188.2800  570.6490 c3        1 BZD     -0.001000
      4 O2         52.7730 -189.2800  571.3120 oh        1 BZD     -0.370000
      5 C3         51.6590 -188.6780  569.2100 c3        1 BZD     -0.031000
      6 O3         50.7880 -189.7850  569.3390 oh        1 BZD     -0.322000
      7 C4         50.9560 -187.4880  568.5300 c3        1 BZD     -0.032000
      8 O4         50.7570 -187.7760  567.1590 oh        1 BZD     -0.313000
      9 C5         51.8680 -186.2500  568.5850 c3        1 BZD     -0.011000
     10 C6         51.1650 -184.9900  568.0510 c3        1 BZD     -0.005000
     11 O6         51.3890 -184.8820  566.6680 oh        1 BZD     -0.296000
     12 N1         53.3140 -186.4950  571.9210 n4        1 BZD     -0.105000
     13 C7         54.7930 -186.7300  572.2670 c2        1 BZD      0.346000
     14 O7         55.4260 -185.6840  572.4430 o         1 BZD     -0.244000
     15 N2         55.2390 -188.0060  572.3550 n         1 BZD     -0.372000
     16 C8       -115.3610  436.1750-1321.5260 c1        1 BZD      0.469000
     17 O8       -115.4360  436.4060-1322.6610 o         1 BZD      0.081000
     18 C9       -115.2720  435.9000-1320.1720 ca        1 BZD     -0.200000
     19 C10      -114.0580  435.4010-1319.6320 ca        1 BZD     -0.003000
     20 C11      -113.9830  435.1300-1318.2740 ca        1 BZD     -0.138000
     21 C12      -115.0920  435.3450-1317.4450 ca        1 BZD      0.017000
     22 C13      -116.2910  435.8380-1317.9780 ca        1 BZD     -0.138000
     23 C14      -116.3950  436.1180-1319.3320 ca        1 BZD     -0.003000
     24 H1         53.8810 -187.2460  569.9830 hx        1 BZD      0.157000
     25 H2         51.0870 -188.0600  571.2300 h1        1 BZD      0.130000
     26 HO2        52.3320 -190.1290  571.1430 ho        1 BZD      0.273000
     27 H3         52.5780 -188.9690  568.6290 h1        1 BZD      0.118000
     28 HO3        50.6790 -190.1660  568.4560 ho        1 BZD      0.238000
     29 H4         49.9800 -187.2810  569.0500 h1        1 BZD      0.119000
     30 HO4        49.9050 -188.2270  567.0810 ho        1 BZD      0.230000
     31 H5         52.8080 -186.4360  567.9940 h1        1 BZD      0.133000
     32 H61        51.6250 -184.0680  568.5000 h1        1 BZD      0.111500
     33 H62        50.0710 -185.0290  568.2910 h1        1 BZD      0.111500
     34 HO6        50.9490 -185.6300  566.2380 ho        1 BZD      0.221000
     35 HN1        52.7150 -186.9230  572.6330 hn        1 BZD      0.274000
     36 HN2        56.1960 -188.1360  572.6110 hn        1 BZD      0.289500
     37 H101     -113.1830  435.2310-1320.2840 ha        1 BZD      0.175000
     38 H111     -113.0420  434.7410-1317.8440 ha        1 BZD      0.190000
     39 H121     -115.0210  435.1250-1316.3640 ha        1 BZD      0.186000
     40 H131     -117.1600  436.0040-1317.3160 ha        1 BZD      0.190000
     41 H141     -117.3400  436.5060-1319.7510 ha        1 BZD      0.175000
     42 H12        53.1670 -185.4690  571.9310 hn        1 BZD      0.274000
     43 H22        54.6620 -188.8010  572.1880 hn        1 BZD      0.289500
@<TRIPOS>BOND
     1    1    2 1   
     2    1    9 1   
     3    2    3 1   
     4    2   12 1   
     5    2   24 1   
     6    3    4 1   
     7    3    5 1   
     8    3   25 1   
     9    4   26 1   
    10    5    6 1   
    11    5    7 1   
    12    5   27 1   
    13    6   28 1   
    14    7    8 1   
    15    7    9 1   
    16    7   29 1   
    17    8   30 1   
    18    9   10 1   
    19    9   31 1   
    20   10   11 1   
    21   10   32 1   
    22   10   33 1   
    23   11   34 1   
    24   12   13 1   
    25   12   35 1   
    26   12   42 1   
    27   13   14 1   
    28   13   15 1   
    29   15   36 1   
    30   15   43 1   
    31   16   17 1   
    32   16   18 1   
    33   18   19 1   
    34   18   23 1   
    35   19   20 1   
    36   19   37 1   
    37   20   21 1   
    38   20   38 1   
    39   21   22 1   
    40   21   39 1   
    41   22   23 1   
    42   22   40 1   
    43   23   41 1   
@<TRIPOS>SUBSTRUCTURE
     1 BZD         1 TEMP              0 ****  ****    0 ROOT
