@<TRIPOS>MOLECULE
BZD
   41    42     1     0     0
SMALL
bcc


@<TRIPOS>ATOM
      1 O5          0.5650    0.5310   -2.0440 os        1 BZD     -0.447600
      2 C1         -0.5730   -0.2830   -1.6910 c3        1 BZD      0.241500
      3 C2         -1.7160   -0.0000   -2.7050 c3        1 BZD      0.091100
      4 O2         -2.8180   -0.8660   -2.5060 oh        1 BZD     -0.601800
      5 C3         -1.2090   -0.3030   -4.1250 c3        1 BZD      0.108100
      6 O3         -2.1580    0.1080   -5.0940 oh        1 BZD     -0.607800
      7 C4          0.0750    0.4930   -4.4100 c3        1 BZD      0.117100
      8 O4          0.6370    0.1050   -5.6510 oh        1 BZD     -0.594800
      9 C5          1.1140    0.1870   -3.3170 c3        1 BZD      0.151100
     10 C6          2.3610    1.0560   -3.4950 c3        1 BZD      0.135400
     11 O6          3.4360    0.3620   -2.8860 oh        1 BZD     -0.594800
     12 N1         -0.9470    0.0920   -0.3410 n         1 BZD     -0.527900
     13 C7         -0.5200   -0.7760    0.7080 c         1 BZD      0.753100
     14 O7         -0.3300   -1.9860    0.4880 o         1 BZD     -0.553100
     15 N2         -0.4150   -0.2280    2.0060 n         1 BZD     -0.609500
     16 C8         -0.1550   -0.9880    3.1580 c         1 BZD      0.684700
     17 O8          0.0170   -2.2120    3.1230 o         1 BZD     -0.512100
     18 C9         -0.0740   -0.2070    4.4280 ca        1 BZD     -0.151600
     19 C10         0.9720   -0.4930    5.3120 ca        1 BZD     -0.091500
     20 C11         1.0700    0.2020    6.5160 ca        1 BZD     -0.135000
     21 C12         0.1230    1.1720    6.8430 ca        1 BZD     -0.106000
     22 C13        -0.9280    1.4470    5.9670 ca        1 BZD     -0.135000
     23 C14        -1.0280    0.7600    4.7580 ca        1 BZD     -0.091500
     24 H1         -0.2950   -1.3790   -1.7330 h2        1 BZD      0.109700
     25 H2         -2.0530    1.0710   -2.6380 h1        1 BZD      0.058700
     26 HO2        -3.0960   -0.7820   -1.5860 ho        1 BZD      0.426000
     27 H3         -1.0150   -1.4070   -4.2310 h1        1 BZD      0.069700
     28 HO3        -2.9820   -0.3530   -4.8860 ho        1 BZD      0.429000
     29 H4         -0.1610    1.5930   -4.4280 h1        1 BZD      0.058700
     30 HO4        -0.0730    0.1740   -6.3040 ho        1 BZD      0.426000
     31 H5          1.3970   -0.9020   -3.3350 h1        1 BZD      0.085700
     32 H61         2.2130    2.0560   -3.0070 h1        1 BZD      0.045700
     33 H62         2.5570    1.1870   -4.5940 h1        1 BZD      0.045700
     34 HO6         4.2140    0.9240   -2.9820 ho        1 BZD      0.403000
     35 HN1        -0.8420    1.0720   -0.1740 hn        1 BZD      0.292500
     36 HN2        -0.5410    0.7510    2.1290 hn        1 BZD      0.318500
     37 H101        1.7050   -1.2750    5.0530 ha        1 BZD      0.145000
     38 H111        1.8940   -0.0210    7.2110 ha        1 BZD      0.140000
     39 H121        0.2000    1.7180    7.7960 ha        1 BZD      0.138000
     40 H131       -1.6810    2.2040    6.2310 ha        1 BZD      0.140000
     41 H141       -1.8720    0.9700    4.0820 ha        1 BZD      0.145000
@<TRIPOS>BOND
     1    1    2 1   
     2    1    9 1   
     3    2    3 1   
     4    2   12 1   
     5    2   24 1   
     6    3    4 1   
     7    3    5 1   
     8    3   25 1   
     9    4   26 1   
    10    5    6 1   
    11    5    7 1   
    12    5   27 1   
    13    6   28 1   
    14    7    8 1   
    15    7    9 1   
    16    7   29 1   
    17    8   30 1   
    18    9   10 1   
    19    9   31 1   
    20   10   11 1   
    21   10   32 1   
    22   10   33 1   
    23   11   34 1   
    24   12   13 1   
    25   12   35 1   
    26   13   14 2   
    27   13   15 1   
    28   15   16 1   
    29   15   36 1   
    30   16   17 2   
    31   16   18 1   
    32   18   19 ar  
    33   18   23 ar  
    34   19   20 ar  
    35   19   37 1   
    36   20   21 ar  
    37   20   38 1   
    38   21   22 ar  
    39   21   39 1   
    40   22   23 ar  
    41   22   40 1   
    42   23   41 1   
@<TRIPOS>SUBSTRUCTURE
     1 BZD         1 TEMP              0 ****  ****    0 ROOT
