@<TRIPOS>MOLECULE
BZD
   41    40     1     0     0
SMALL
bcc


@<TRIPOS>ATOM
      1 O5         -1.8410   -1.1060    1.2080 os        1 BZD     -0.321000
      2 C1         -0.3700   -1.1400    1.1400 c3        1 BZD      0.149000
      3 C2          0.2780   -1.2110    2.5210 c3        1 BZD     -0.016000
      4 O2          1.6760   -1.4230    2.3620 oh        1 BZD     -0.303000
      5 C3         -0.2800   -2.3060    3.3470 c3        1 BZD     -0.056000
      6 O3          0.2480   -2.1890    4.7020 oh        1 BZD     -0.323000
      7 C4         -1.7590   -2.2630    3.4080 c3        1 BZD     -0.021000
      8 O4         -2.2220   -3.4290    4.0490 oh        1 BZD     -0.314000
      9 C5         -2.3970   -2.1840    2.0200 c3        1 BZD      0.000000
     10 C6         -3.8530   -1.9660    2.1720 c3        1 BZD     -0.009000
     11 O6         -4.4970   -2.1620    0.9100 oh        1 BZD     -0.318000
     12 N1          0.0850    0.0180    0.4830 n         1 BZD     -0.338000
     13 C7          0.6380   -0.0870   -0.8720 c2        1 BZD      0.395000
     14 O7          0.7010   -1.1960   -1.4340 o         1 BZD     -0.324000
     15 N2          1.0350    1.1290   -1.6000 n         1 BZD     -0.389000
     16 C8          1.5980    1.0310   -2.9070 c2        1 BZD      0.358000
     17 O8          1.7510   -0.0710   -3.4330 o         1 BZD     -0.276000
     18 C9          2.0180    2.3150   -3.6640 c2        1 BZD     -0.130000
     19 C10         3.3380    2.7690   -3.5920 c2        1 BZD     -0.077000
     20 C11         3.7210    3.8980   -4.2900 c1        1 BZD     -0.134000
     21 C12         2.7850    4.5900   -5.0720 c1        1 BZD     -0.121000
     22 C13         1.4620    4.1360   -5.1440 c1        1 BZD     -0.121000
     23 C14         1.0810    3.0070   -4.4460 c1        1 BZD     -0.106000
     24 H1         -0.0880   -1.9470    0.6050 h2        1 BZD      0.151000
     25 H2          0.1360   -0.3610    2.9830 h1        1 BZD      0.083000
     26 HO2         2.0970   -1.0560    3.0150 ho        1 BZD      0.217000
     27 H3         -0.0050   -3.1530    2.9750 h1        1 BZD      0.150000
     28 HO3        -0.4410   -2.1560    5.2930 ho        1 BZD      0.203000
     29 H4         -2.0420   -1.4590    3.9470 h1        1 BZD      0.085000
     30 HO4        -2.4090   -3.2510    4.8660 ho        1 BZD      0.219000
     31 H5         -2.2530   -3.0260    1.5620 h1        1 BZD      0.120000
     32 H61        -4.2050   -2.5920    2.8100 h1        1 BZD      0.101500
     33 H62        -4.0210   -1.0320    2.4910 h1        1 BZD      0.101500
     34 HO6        -5.3970   -2.1550    1.0250 ho        1 BZD      0.212000
     35 HN1        -0.0950    0.8590    0.8470 hn        1 BZD      0.213000
     36 HN2         0.8350    1.9570   -1.2480 hn        1 BZD      0.233000
     37 H101        3.9970    2.2810   -3.0410 ha        1 BZD      0.156000
     38 H111        4.6570    4.2170   -4.2380 ha        1 BZD      0.142000
     39 H121        3.0650    5.4180   -5.5850 ha        1 BZD      0.138000
     40 H131        0.8210    4.6080   -5.6780 ha        1 BZD      0.138000
     41 H141        0.1510    2.6880   -4.4960 ha        1 BZD      0.134000
@<TRIPOS>BOND
     1    1    2 1   
     2    1    9 1   
     3    2    3 1   
     4    2   12 1   
     5    2   24 1   
     6    3    4 1   
     7    3    5 1   
     8    3   25 1   
     9    4   26 1   
    10    5    6 1   
    11    5    7 1   
    12    5   27 1   
    13    6   28 1   
    14    7    8 1   
    15    7    9 1   
    16    7   29 1   
    17    8   30 1   
    18    9   10 1   
    19    9   31 1   
    20   10   11 1   
    21   10   32 1   
    22   10   33 1   
    23   11   34 1   
    24   12   13 1   
    25   12   35 1   
    26   13   14 1   
    27   13   15 1   
    28   15   16 1   
    29   15   36 1   
    30   16   17 1   
    31   16   18 1   
    32   18   19 1   
    33   18   23 1   
    34   19   20 1   
    35   19   37 1   
    36   20   38 1   
    37   21   22 1   
    38   21   39 1   
    39   22   40 1   
    40   23   41 1   
@<TRIPOS>SUBSTRUCTURE
     1 BZD         1 TEMP              0 ****  ****    0 ROOT
