@<TRIPOS>MOLECULE
BZD
   43    43     1     0     0
SMALL
bcc


@<TRIPOS>ATOM
      1 O5        219.4270  -98.5200  481.5240 os        1 BZD     -0.298000
      2 C1        219.7740  -98.5830  480.1470 c3        1 BZD      0.061000
      3 C2        220.0030  -97.1410  479.6220 c3        1 BZD      0.001000
      4 O2        220.2900  -97.2660  478.2470 oh        1 BZD     -0.343000
      5 C3        221.1730  -96.5450  480.4240 c3        1 BZD     -0.031000
      6 O3        221.2890  -95.2070  479.9810 oh        1 BZD     -0.319000
      7 C4        220.8520  -96.5930  481.9330 c3        1 BZD     -0.025000
      8 O4        222.0120  -96.2340  482.6600 oh        1 BZD     -0.311000
      9 C5        220.5050  -98.0320  482.3450 c3        1 BZD      0.004000
     10 C6        219.9580  -98.1280  483.7750 c3        1 BZD     -0.016000
     11 O6        219.7290  -99.4830  484.0910 oh        1 BZD     -0.327000
     12 N1        218.6150  -99.2510  479.4670 n4        1 BZD     -0.102000
     13 C7        218.4970 -100.7500  479.7870 c2        1 BZD      0.342000
     14 O7        218.4420 -101.4570  478.7740 o         1 BZD     -0.255000
     15 N2        218.4380 -101.1350  481.0830 n         1 BZD     -0.366000
     16 C8       -503.4030  231.7460-1115.5930 c1        1 BZD      0.469000
     17 O8       -503.9810  232.5730-1116.1660 o         1 BZD      0.081000
     18 C9       -502.7130  230.7590-1114.9090 ca        1 BZD     -0.200000
     19 C10      -502.7940  230.6930-1113.4940 ca        1 BZD     -0.003000
     20 C11      -502.0980  229.6990-1112.8230 ca        1 BZD     -0.138000
     21 C12      -501.3250  228.7720-1113.5330 ca        1 BZD      0.017000
     22 C13      -501.2440  228.8360-1114.9300 ca        1 BZD     -0.138000
     23 C14      -501.9290  229.8190-1115.6280 ca        1 BZD     -0.003000
     24 H1        220.6920  -99.2230  479.9780 hx        1 BZD      0.159000
     25 H2        219.0840  -96.5050  479.7680 h1        1 BZD      0.126000
     26 HO2       220.6680  -96.4220  477.9500 ho        1 BZD      0.266000
     27 H3        222.1220  -97.1130  480.2150 h1        1 BZD      0.119000
     28 HO3       222.1480  -94.8800  480.2820 ho        1 BZD      0.236000
     29 H4        219.9930  -95.9040  482.1590 h1        1 BZD      0.120000
     30 HO4       221.9900  -95.2740  482.7780 ho        1 BZD      0.231000
     31 H5        221.4000  -98.7010  482.2190 h1        1 BZD      0.119000
     32 H61       220.6890  -97.6340  484.4660 h1        1 BZD      0.124000
     33 H62       218.9540  -97.6270  483.8430 h1        1 BZD      0.124000
     34 HO6       220.5210  -99.8250  484.5240 ho        1 BZD      0.219000
     35 HN1       218.7540  -99.1600  478.4460 hn        1 BZD      0.277500
     36 HN2       218.5640 -100.5080  481.8520 hn        1 BZD      0.292000
     37 H101     -503.4040  231.4230-1112.9340 ha        1 BZD      0.175000
     38 H111     -502.1560  229.6400-1111.7210 ha        1 BZD      0.190000
     39 H121     -500.7740  227.9830-1112.9860 ha        1 BZD      0.186000
     40 H131     -500.6310  228.1000-1115.4810 ha        1 BZD      0.190000
     41 H141     -501.8650  229.8690-1116.7290 ha        1 BZD      0.175000
     42 H12       217.7440  -98.7790  479.7330 hn        1 BZD      0.277500
     43 H22       218.3360 -102.1130  481.2610 hn        1 BZD      0.292000
@<TRIPOS>BOND
     1    1    2 1   
     2    1    9 1   
     3    2    3 1   
     4    2   12 1   
     5    2   24 1   
     6    3    4 1   
     7    3    5 1   
     8    3   25 1   
     9    4   26 1   
    10    5    6 1   
    11    5    7 1   
    12    5   27 1   
    13    6   28 1   
    14    7    8 1   
    15    7    9 1   
    16    7   29 1   
    17    8   30 1   
    18    9   10 1   
    19    9   31 1   
    20   10   11 1   
    21   10   32 1   
    22   10   33 1   
    23   11   34 1   
    24   12   13 1   
    25   12   35 1   
    26   12   42 1   
    27   13   14 1   
    28   13   15 1   
    29   15   36 1   
    30   15   43 1   
    31   16   17 1   
    32   16   18 1   
    33   18   19 1   
    34   18   23 1   
    35   19   20 1   
    36   19   37 1   
    37   20   21 1   
    38   20   38 1   
    39   21   22 1   
    40   21   39 1   
    41   22   23 1   
    42   22   40 1   
    43   23   41 1   
@<TRIPOS>SUBSTRUCTURE
     1 BZD         1 TEMP              0 ****  ****    0 ROOT
