@<TRIPOS>MOLECULE
BZD
   43    43     1     0     0
SMALL
bcc


@<TRIPOS>ATOM
      1 O5        264.9540 -206.2770  578.9330 os        1 BZD     -0.298000
      2 C1        265.4010 -206.7650  577.6750 c3        1 BZD      0.061000
      3 C2        265.3830 -205.5990  576.6510 c3        1 BZD      0.001000
      4 O2        265.7830 -206.1550  575.4180 oh        1 BZD     -0.343000
      5 C3        266.3580 -204.5260  577.1660 c3        1 BZD     -0.031000
      6 O3        266.2440 -203.4480  576.2570 oh        1 BZD     -0.319000
      7 C4        265.9490 -204.0860  578.5870 c3        1 BZD     -0.025000
      8 O4        266.9640 -203.2560  579.1210 oh        1 BZD     -0.311000
      9 C5        265.8580 -205.3130  579.5070 c3        1 BZD      0.004000
     10 C6        265.2420 -204.9900  580.8740 c3        1 BZD     -0.016000
     11 O6        265.2620 -206.1510  581.6750 oh        1 BZD     -0.327000
     12 N1        264.4420 -207.8560  577.3000 ny        1 BZD     -0.102000
     13 C7        264.5940 -209.1270  578.1520 c2        1 BZD      0.342000
     14 O7        264.7460 -210.1490  577.4730 o         1 BZD     -0.255000
     15 N2        264.5240 -209.0180  579.5000 nt        1 BZD     -0.366000
     16 C8       -605.9410  477.9830-1340.8930 c1        1 BZD      0.469000
     17 O8       -605.3900  477.5880-1341.8340 o         1 BZD      0.081000
     18 C9       -606.5990  478.4540-1339.7690 ca        1 BZD     -0.200000
     19 C10      -607.8050  479.1890-1339.9140 ca        1 BZD     -0.003000
     20 C11      -608.4520  479.6540-1338.7800 ca        1 BZD     -0.138000
     21 C12      -607.9230  479.4030-1337.5070 ca        1 BZD      0.017000
     22 C13      -606.7330  478.6780-1337.3630 ca        1 BZD     -0.138000
     23 C14      -606.0630  478.2000-1338.4790 ca        1 BZD     -0.003000
     24 H1        266.4340 -207.2200  577.7490 hx        1 BZD      0.159000
     25 H2        264.3510 -205.1560  576.5580 h1        1 BZD      0.126000
     26 HO2       266.0110 -205.4190  574.8270 ho        1 BZD      0.266000
     27 H3        267.4110 -204.9250  577.1760 h1        1 BZD      0.119000
     28 HO3       267.0020 -202.8670  576.4090 ho        1 BZD      0.236000
     29 H4        264.9600 -203.5530  578.5480 h1        1 BZD      0.120000
     30 HO4       266.7510 -202.3470  578.8730 ho        1 BZD      0.231000
     31 H5        266.8720 -205.7840  579.6310 h1        1 BZD      0.119000
     32 H61       265.8120 -204.1370  581.3250 h1        1 BZD      0.124000
     33 H62       264.1570 -204.7210  580.7600 h1        1 BZD      0.124000
     34 HO6       266.0750 -206.1380  582.1960 ho        1 BZD      0.219000
     35 HN1       264.6300 -208.1170  576.3160 hn        1 BZD      0.277500
     36 HN2       264.4740 -208.1430  579.9810 hn        1 BZD      0.292000
     37 H101     -608.2220  479.3870-1340.9160 ha        1 BZD      0.175000
     38 H111     -609.3920  480.2270-1338.8820 ha        1 BZD      0.190000
     39 H121     -608.4490  479.7800-1336.6090 ha        1 BZD      0.186000
     40 H131     -606.3240  478.4860-1336.3550 ha        1 BZD      0.190000
     41 H141     -605.1260  477.6290-1338.3660 ha        1 BZD      0.175000
     42 H12       263.4800 -207.5090  577.3800 hn        1 BZD      0.277500
     43 H22       264.6010 -209.8630  580.0270 hn        1 BZD      0.292000
@<TRIPOS>BOND
     1    1    2 1   
     2    1    9 1   
     3    2    3 1   
     4    2   12 1   
     5    2   24 1   
     6    3    4 1   
     7    3    5 1   
     8    3   25 1   
     9    4   26 1   
    10    5    6 1   
    11    5    7 1   
    12    5   27 1   
    13    6   28 1   
    14    7    8 1   
    15    7    9 1   
    16    7   29 1   
    17    8   30 1   
    18    9   10 1   
    19    9   31 1   
    20   10   11 1   
    21   10   32 1   
    22   10   33 1   
    23   11   34 1   
    24   12   13 1   
    25   12   35 1   
    26   12   42 1   
    27   13   14 1   
    28   13   15 1   
    29   15   36 1   
    30   15   43 1   
    31   16   17 1   
    32   16   18 1   
    33   18   19 1   
    34   18   23 1   
    35   19   20 1   
    36   19   37 1   
    37   20   21 1   
    38   20   38 1   
    39   21   22 1   
    40   21   39 1   
    41   22   23 1   
    42   22   40 1   
    43   23   41 1   
@<TRIPOS>SUBSTRUCTURE
     1 BZD         1 TEMP              0 ****  ****    0 ROOT
