@<TRIPOS>MOLECULE
BZE
   23    24     1     0     0
SMALL
bcc


@<TRIPOS>ATOM
      1 N13        -2.8800    2.3350   -0.4300 nh        1 BZE     -0.938500
      2 C8         -2.1930    1.1400   -0.2500 ca        1 BZE      0.919900
      3 N11        -2.9420    0.0000   -0.0020 nb        1 BZE     -0.845000
      4 C7         -2.1930   -1.1400    0.2470 ca        1 BZE      0.919900
      5 N12        -2.8810   -2.3340    0.4260 nh        1 BZE     -0.938500
      6 N3         -0.8000   -1.1840    0.2790 nb        1 BZE     -0.813000
      7 N4         -0.7990    1.1840   -0.2810 nb        1 BZE     -0.813000
      8 C1         -0.1800    0.0000   -0.0010 cp        1 BZE      0.781500
      9 C2          1.3100   -0.0000    0.0000 cp        1 BZE     -0.147500
     10 C6          2.0100    1.0780    0.5550 ca        1 BZE     -0.084000
     11 C10         3.4040    1.0730    0.5550 ca        1 BZE     -0.145000
     12 C14         4.1020   -0.0000    0.0010 ca        1 BZE     -0.113000
     13 C9          3.4040   -1.0730   -0.5530 ca        1 BZE     -0.145000
     14 C5          2.0100   -1.0780   -0.5550 ca        1 BZE     -0.084000
     15 H1         -2.3770    3.1050   -0.8020 hn        1 BZE      0.436800
     16 H2         -3.8540    2.2880   -0.6120 hn        1 BZE      0.436800
     17 H3         -3.8550   -2.2870    0.6080 hn        1 BZE      0.436800
     18 H4         -2.3780   -3.1050    0.7980 hn        1 BZE      0.436800
     19 H5          1.4650    1.9300    0.9910 ha        1 BZE      0.148000
     20 H6          3.9530    1.9190    0.9930 ha        1 BZE      0.134000
     21 H7          5.2020   -0.0000    0.0020 ha        1 BZE      0.131000
     22 H8          3.9530   -1.9190   -0.9910 ha        1 BZE      0.134000
     23 H9          1.4660   -1.9300   -0.9910 ha        1 BZE      0.148000
@<TRIPOS>BOND
     1    1    2 1   
     2    1   15 1   
     3    1   16 1   
     4    2    3 ar  
     5    2    7 ar  
     6    3    4 ar  
     7    4    5 1   
     8    4    6 ar  
     9    5   17 1   
    10    5   18 1   
    11    6    8 ar  
    12    7    8 ar  
    13    8    9 1   
    14    9   10 ar  
    15    9   14 ar  
    16   10   11 ar  
    17   10   19 1   
    18   11   12 ar  
    19   11   20 1   
    20   12   13 ar  
    21   12   21 1   
    22   13   14 ar  
    23   13   22 1   
    24   14   23 1   
@<TRIPOS>SUBSTRUCTURE
     1 BZE         1 TEMP              0 ****  ****    0 ROOT
