@<TRIPOS>MOLECULE
BZE
   23    24     1     0     0
SMALL
bcc


@<TRIPOS>ATOM
      1 N13         0.0220   -0.5520    0.0420 nh        1 BZE     -0.938500
      2 C8          1.3930   -0.3170    0.0370 ca        1 BZE      0.919900
      3 N11         1.9980   -0.0250    1.2500 nb        1 BZE     -0.845000
      4 C7          3.3480    0.2770    1.1630 ca        1 BZE      0.919900
      5 N12         4.0340    0.5030    2.3510 nh        1 BZE     -0.938500
      6 N3          4.0790    0.3190   -0.0240 nb        1 BZE     -0.813000
      7 N4          2.0490   -0.3420   -1.1930 nb        1 BZE     -0.813000
      8 C1          3.3720   -0.0070   -1.1460 cp        1 BZE      0.781500
      9 C2          4.1130    0.0020   -2.4390 cp        1 BZE     -0.147500
     10 C6          3.5040    0.5140   -3.5910 ca        1 BZE     -0.084000
     11 C10         4.2030    0.5220   -4.7980 ca        1 BZE     -0.145000
     12 C14         5.5020    0.0190   -4.8610 ca        1 BZE     -0.113000
     13 C9          6.1070   -0.4920   -3.7130 ca        1 BZE     -0.145000
     14 C5          5.4180   -0.5010   -2.5010 ca        1 BZE     -0.084000
     15 H1         -0.3800   -0.9530   -0.7710 hn        1 BZE      0.436800
     16 H2         -0.4140   -0.7380    0.9130 hn        1 BZE      0.436800
     17 H3          4.9370    0.9100    2.2920 hn        1 BZE      0.436800
     18 H4          3.5010    0.6770    3.1690 hn        1 BZE      0.436800
     19 H5          2.4780    0.9090   -3.5500 ha        1 BZE      0.148000
     20 H6          3.7240    0.9260   -5.7020 ha        1 BZE      0.134000
     21 H7          6.0490    0.0260   -5.8150 ha        1 BZE      0.131000
     22 H8          7.1320   -0.8890   -3.7610 ha        1 BZE      0.134000
     23 H9          5.9040   -0.9030   -1.5980 ha        1 BZE      0.148000
@<TRIPOS>BOND
     1    1    2 1   
     2    1   15 1   
     3    1   16 1   
     4    2    3 ar  
     5    2    7 ar  
     6    3    4 ar  
     7    4    5 1   
     8    4    6 ar  
     9    5   17 1   
    10    5   18 1   
    11    6    8 ar  
    12    7    8 ar  
    13    8    9 1   
    14    9   10 ar  
    15    9   14 ar  
    16   10   11 ar  
    17   10   19 1   
    18   11   12 ar  
    19   11   20 1   
    20   12   13 ar  
    21   12   21 1   
    22   13   14 ar  
    23   13   22 1   
    24   14   23 1   
@<TRIPOS>SUBSTRUCTURE
     1 BZE         1 TEMP              0 ****  ****    0 ROOT
