@<TRIPOS>MOLECULE
BZE
   23    20     1     0     0
SMALL
bcc


@<TRIPOS>ATOM
      1 N13        -3.6010    0.1470    1.4820 n3        1 BZE     -0.339000
      2 C8         -2.1830    0.1070    1.4970 c2        1 BZE      0.204000
      3 N11        -1.5270    0.0500    2.6650 n2        1 BZE     -0.324000
      4 C7         -0.1880   -0.0310    2.6780 c1        1 BZE      0.210000
      5 N12         0.5040   -0.1360    3.9120 n3        1 BZE     -0.349000
      6 N3          0.4940   -0.0550    1.5230 n1        1 BZE     -0.290000
      7 N4         -1.5020    0.0830    0.3420 n1        1 BZE     -0.290000
      8 C1         -0.1630    0.0020    0.3560 c1        1 BZE      0.148000
      9 C2          0.6070   -0.0060   -0.9470 c2        1 BZE     -0.038000
     10 C6          0.8870   -1.2080   -1.5780 c1        1 BZE     -0.085000
     11 C10         1.5290   -1.2120   -2.8070 c1        1 BZE     -0.128500
     12 C14         1.8900   -0.0160   -3.4040 c1        1 BZE     -0.128500
     13 C9          1.6100    1.1860   -2.7730 c1        1 BZE     -0.144000
     14 C5          0.9680    1.1910   -1.5440 c2        1 BZE     -0.084000
     15 H1         -4.0710   -0.0190    2.2480 hn        1 BZE      0.234000
     16 H2         -4.0450    0.3170    0.7020 hn        1 BZE      0.234000
     17 H3          1.3040    0.2920    4.0250 hn        1 BZE      0.239000
     18 H4          0.1500   -0.6320    4.5940 hn        1 BZE      0.239000
     19 H5          0.6330   -2.0510   -1.1570 ha        1 BZE      0.146000
     20 H6          1.7260   -2.0590   -3.2510 ha        1 BZE      0.132000
     21 H7          2.3420   -0.0190   -4.2690 ha        1 BZE      0.132000
     22 H8          1.8650    2.0300   -3.1940 ha        1 BZE      0.134000
     23 H9          0.7710    2.0380   -1.1000 ha        1 BZE      0.149000
@<TRIPOS>BOND
     1    1    2 1   
     2    1   15 1   
     3    1   16 1   
     4    2    3 1   
     5    2    7 1   
     6    3    4 1   
     7    4    5 1   
     8    5   17 1   
     9    5   18 1   
    10    6    8 1   
    11    8    9 1   
    12    9   10 1   
    13    9   14 1   
    14   10   19 1   
    15   11   12 1   
    16   11   20 1   
    17   12   21 1   
    18   13   14 1   
    19   13   22 1   
    20   14   23 1   
@<TRIPOS>SUBSTRUCTURE
     1 BZE         1 TEMP              0 ****  ****    0 ROOT
