@<TRIPOS>MOLECULE
BZE
   23    24     1     0     0
SMALL
bcc


@<TRIPOS>ATOM
      1 N13         0.0320    0.6140    0.0380 nv        1 BZE     -0.938500
      2 C8          1.3960    0.3430    0.0340 ca        1 BZE      0.919900
      3 N11         1.9880    0.0170    1.2440 nb        1 BZE     -0.845000
      4 C7          3.3310   -0.3190    1.1580 ca        1 BZE      0.919900
      5 N12         4.0060   -0.5800    2.3450 nv        1 BZE     -0.938500
      6 N3          4.0640   -0.3630   -0.0270 nb        1 BZE     -0.813000
      7 N4          2.0570    0.3690   -1.1930 nb        1 BZE     -0.813000
      8 C1          3.3710   -0.0010   -1.1470 cp        1 BZE      0.781500
      9 C2          4.1170   -0.0110   -2.4370 cp        1 BZE     -0.147500
     10 C6          3.4990   -0.4900   -3.5980 ca        1 BZE     -0.084000
     11 C10         4.2020   -0.4990   -4.8030 ca        1 BZE     -0.145000
     12 C14         5.5140   -0.0300   -4.8540 ca        1 BZE     -0.113000
     13 C9          6.1280    0.4490   -3.6960 ca        1 BZE     -0.145000
     14 C5          5.4350    0.4580   -2.4860 ca        1 BZE     -0.084000
     15 H1         -0.4020    0.7990    0.9100 hn        1 BZE      0.436800
     16 H2         -0.3560    1.0380   -0.7710 hn        1 BZE      0.436800
     17 H3          4.8970   -1.0110    2.2830 hn        1 BZE      0.436800
     18 H4          3.4650   -0.7520    3.1580 hn        1 BZE      0.436800
     19 H5          2.4620   -0.8590   -3.5670 ha        1 BZE      0.148000
     20 H6          3.7170   -0.8770   -5.7140 ha        1 BZE      0.134000
     21 H7          6.0650   -0.0370   -5.8060 ha        1 BZE      0.131000
     22 H8          7.1630    0.8190   -3.7350 ha        1 BZE      0.134000
     23 H9          5.9270    0.8340   -1.5760 ha        1 BZE      0.148000
@<TRIPOS>BOND
     1    1    2 1   
     2    1   15 1   
     3    1   16 1   
     4    2    3 ar  
     5    2    7 ar  
     6    3    4 ar  
     7    4    5 1   
     8    4    6 ar  
     9    5   17 1   
    10    5   18 1   
    11    6    8 ar  
    12    7    8 ar  
    13    8    9 1   
    14    9   10 ar  
    15    9   14 ar  
    16   10   11 ar  
    17   10   19 1   
    18   11   12 ar  
    19   11   20 1   
    20   12   13 ar  
    21   12   21 1   
    22   13   14 ar  
    23   13   22 1   
    24   14   23 1   
@<TRIPOS>SUBSTRUCTURE
     1 BZE         1 TEMP              0 ****  ****    0 ROOT
