@<TRIPOS>MOLECULE
BZE
   25    26     1     0     0
SMALL
bcc


@<TRIPOS>ATOM
      1 N13        -0.1060   -0.0670    0.0140 n4        1 BZE     -0.825300
      2 C8          1.3890   -0.0300    0.0120 ca        1 BZE      0.804900
      3 N11         1.9940    0.0060    1.2540 nb        1 BZE     -0.752000
      4 C7          3.3730    0.0390    1.1540 ca        1 BZE      0.804900
      5 N12         4.1210    0.0800    2.4470 n4        1 BZE     -0.825300
      6 N3          4.1120    0.0390    0.0200 nb        1 BZE     -0.695000
      7 N4          1.9980   -0.0350   -1.1970 nb        1 BZE     -0.695000
      8 C1          3.3960    0.0010   -1.1810 cp        1 BZE      0.873500
      9 C2          4.1180   -0.0020   -2.4340 cp        1 BZE     -0.241500
     10 C6          3.4210   -0.0410   -3.6700 ca        1 BZE     -0.023000
     11 C10         4.1210   -0.0430   -4.8670 ca        1 BZE     -0.146000
     12 C14         5.5210   -0.0080   -4.8710 ca        1 BZE      0.011000
     13 C9          6.2200    0.0300   -3.6590 ca        1 BZE     -0.146000
     14 C5          5.5360    0.0340   -2.4520 ca        1 BZE     -0.023000
     15 H1         -0.4630   -0.0920   -0.9560 hn        1 BZE      0.501800
     16 H2         -0.4690    0.7730    0.4900 hn        1 BZE      0.501800
     17 H3          5.1390    0.1020    2.2690 hn        1 BZE      0.501800
     18 H4          3.8900   -0.7590    3.0030 hn        1 BZE      0.501800
     19 H5          2.3190   -0.0690   -3.7030 ha        1 BZE      0.159000
     20 H6          3.5720   -0.0730   -5.8250 ha        1 BZE      0.181000
     21 H7          6.0720   -0.0100   -5.8290 ha        1 BZE      0.184000
     22 H8          7.3240    0.0580   -3.6650 ha        1 BZE      0.181000
     23 H9          6.1170    0.0640   -1.5160 ha        1 BZE      0.159000
     24 H133       -0.4260   -0.9090    0.5180 hn        1 BZE      0.501800
     25 H123        3.8480    0.9240    2.9750 hn        1 BZE      0.501800
@<TRIPOS>BOND
     1    1    2 1   
     2    1   15 1   
     3    1   16 1   
     4    1   24 1   
     5    2    3 ar  
     6    2    7 ar  
     7    3    4 ar  
     8    4    5 1   
     9    4    6 ar  
    10    5   17 1   
    11    5   18 1   
    12    5   25 1   
    13    6    8 ar  
    14    7    8 ar  
    15    8    9 1   
    16    9   10 ar  
    17    9   14 ar  
    18   10   11 ar  
    19   10   19 1   
    20   11   12 ar  
    21   11   20 1   
    22   12   13 ar  
    23   12   21 1   
    24   13   14 ar  
    25   13   22 1   
    26   14   23 1   
@<TRIPOS>SUBSTRUCTURE
     1 BZE         1 TEMP              0 ****  ****    0 ROOT
