@<TRIPOS>MOLECULE
BZF
   15    16     1     0     0
SMALL
bcc


@<TRIPOS>ATOM
      1 O1          1.1110   -0.0000   -1.5470 os        1 BZF     -0.204200
      2 C2         -0.0370   -0.0000   -2.3600 cc        1 BZF     -0.014900
      3 C3         -1.1910    0.0000   -1.6170 cd        1 BZF     -0.177200
      4 C3A        -0.7890    0.0000   -0.2210 ca        1 BZF     -0.106800
      5 C4         -1.4540    0.0000    1.0030 ca        1 BZF     -0.083000
      6 C5         -0.6920    0.0000    2.1690 ca        1 BZF     -0.149000
      7 C6          0.7110    0.0000    2.1320 ca        1 BZF     -0.113000
      8 C7          1.4100   -0.0000    0.9270 ca        1 BZF     -0.121000
      9 C7A         0.6410    0.0000   -0.2320 ca        1 BZF      0.058100
     10 H2          0.1890   -0.0000   -3.4230 h4        1 BZF      0.189000
     11 H3         -2.2160    0.0000   -1.9770 ha        1 BZF      0.165000
     12 H4         -2.5520    0.0000    1.0450 ha        1 BZF      0.138000
     13 H5         -1.2000    0.0000    3.1450 ha        1 BZF      0.133000
     14 H6          1.2720   -0.0000    3.0790 ha        1 BZF      0.135000
     15 H7          2.5060   -0.0000    0.8880 ha        1 BZF      0.150000
@<TRIPOS>BOND
     1    1    2 1   
     2    1    9 1   
     3    2    3 2   
     4    2   10 1   
     5    3    4 1   
     6    3   11 1   
     7    4    5 ar  
     8    4    9 ar  
     9    5    6 ar  
    10    5   12 1   
    11    6    7 ar  
    12    6   13 1   
    13    7    8 ar  
    14    7   14 1   
    15    8    9 ar  
    16    8   15 1   
@<TRIPOS>SUBSTRUCTURE
     1 BZF         1 TEMP              0 ****  ****    0 ROOT
