@<TRIPOS>MOLECULE
BZF
   15    16     1     0     0
SMALL
bcc


@<TRIPOS>ATOM
      1 O1         -0.0420   -0.0000   -0.0400 os        1 BZF     -0.204200
      2 C2          1.3630   -0.0000    0.0050 cc        1 BZF     -0.014900
      3 C3          1.8350    0.0000    1.2940 cd        1 BZF     -0.177200
      4 C3A         0.6720    0.0000    2.1650 ca        1 BZF     -0.106800
      5 C4          0.4630    0.0000    3.5420 ca        1 BZF     -0.083000
      6 C5         -0.8490    0.0000    4.0110 ca        1 BZF     -0.149000
      7 C6         -1.9450    0.0000    3.1350 ca        1 BZF     -0.113000
      8 C7         -1.7740   -0.0000    1.7520 ca        1 BZF     -0.121000
      9 C7A        -0.4620   -0.0000    1.2920 ca        1 BZF      0.058100
     10 H2          1.8250   -0.0000   -0.9790 h4        1 BZF      0.189000
     11 H3          2.8700    0.0000    1.6260 ha        1 BZF      0.165000
     12 H4          1.3130    0.0000    4.2380 ha        1 BZF      0.138000
     13 H5         -1.0330    0.0000    5.0960 ha        1 BZF      0.133000
     14 H6         -2.9640    0.0000    3.5510 ha        1 BZF      0.135000
     15 H7         -2.6250   -0.0000    1.0590 ha        1 BZF      0.150000
@<TRIPOS>BOND
     1    1    2 1   
     2    1    9 1   
     3    2    3 2   
     4    2   10 1   
     5    3    4 1   
     6    3   11 1   
     7    4    5 ar  
     8    4    9 ar  
     9    5    6 ar  
    10    5   12 1   
    11    6    7 ar  
    12    6   13 1   
    13    7    8 ar  
    14    7   14 1   
    15    8    9 ar  
    16    8   15 1   
@<TRIPOS>SUBSTRUCTURE
     1 BZF         1 TEMP              0 ****  ****    0 ROOT
