@<TRIPOS>MOLECULE
BZF
   15    11     1     0     0
SMALL
bcc


@<TRIPOS>ATOM
      1 O1          0.0300   -0.0000   -2.1680 os        1 BZF     -0.172200
      2 C2          1.4040   -0.0000   -2.1680 c1        1 BZF      0.005600
      3 C3          1.8310   -0.0000   -0.8530 cg        1 BZF     -0.142000
      4 C3A         0.7100   -0.0000   -0.0390 cg        1 BZF     -0.142000
      5 C4          0.5620   -0.0000    1.3590 c1        1 BZF     -0.059000
      6 C5         -0.7070   -0.0000    1.9220 c1        1 BZF     -0.059000
      7 C6         -1.8300    0.0000    1.1040 c1        1 BZF     -0.059000
      8 C7         -1.6840    0.0000   -0.2760 c1        1 BZF     -0.059000
      9 C7A        -0.4000   -0.0000   -0.8470 c1        1 BZF      0.005600
     10 H2          1.9770   -0.0000   -2.9580 DU        1 BZF      0.177000
     11 H3          2.7600   -0.0000   -0.5520 DU        1 BZF      0.177000
     12 H4          1.3510   -0.0000    1.9330 ha        1 BZF      0.081500
     13 H5         -0.8090   -0.0000    2.8920 ha        1 BZF      0.081500
     14 H6         -2.7220    0.0000    1.5010 ha        1 BZF      0.081500
     15 H7         -2.4730    0.0000   -0.8500 ha        1 BZF      0.081500
@<TRIPOS>BOND
     1    1    2 1   
     2    1    9 1   
     3    2    3 3   
     4    3    4 1   
     5    4    9 3   
     6    5    6 3   
     7    5   12 1   
     8    6   13 1   
     9    7    8 3   
    10    7   14 1   
    11    8   15 1   
@<TRIPOS>SUBSTRUCTURE
     1 BZF         1 TEMP              0 ****  ****    0 ROOT
