@<TRIPOS>MOLECULE
BZG
   48    41     1     0     0
SMALL
bcc


@<TRIPOS>ATOM
      1 P           3.4140   -2.7590    6.5550 p3        1 BZG      2.523000
      2 O1P         4.8950   -2.4760    6.7720 os        1 BZG     -1.227000
      3 O2P         2.6750   -2.6160    7.8710 o         1 BZG     -1.261000
      4 O5'         2.8230   -1.7150    5.4890 os        1 BZG     -0.715000
      5 CZ1        -1.7320    0.0050   -6.3740 c1        1 BZG     -0.137500
      6 CT1        -1.7100   -0.7890   -7.5070 c1        1 BZG     -0.137500
      7 CI         -0.5170   -1.3770   -7.9250 c1        1 BZG     -0.137500
      8 CT2         0.6510   -1.1660   -7.2040 c1        1 BZG     -0.137500
      9 CZ2         0.6280   -0.3650   -6.0610 c1        1 BZG     -0.094000
     10 CE         -0.5590    0.2190   -5.6470 c1        1 BZG     -0.078000
     11 CW         -0.5670    1.1730   -4.4490 c3        1 BZG      0.022000
     12 OL         -0.5710    0.4270   -3.2480 os        1 BZG     -0.183000
     13 CK         -0.6080    1.2330   -2.0660 c2        1 BZG      0.219000
     14 NJ         -0.7600    2.5530   -2.0280 n2        1 BZG     -0.315000
     15 CH         -0.7610    3.2100   -0.8230 c1        1 BZG      0.129000
     16 NI         -0.7350    4.6250   -0.7070 n2        1 BZG     -0.297000
     17 NG         -0.6050    2.5070    0.3420 n2        1 BZG     -0.221000
     18 CF         -0.4490    1.1630    0.3070 c1        1 BZG      0.059000
     19 CM         -0.4480    0.5150   -0.8800 c1        1 BZG     -0.195000
     20 NN         -0.3290   -0.8300   -0.6280 n1        1 BZG     -0.153500
     21 CO         -0.2570   -1.0010    0.7130 c1        1 BZG      0.000000
     22 NE         -0.3310    0.2270    1.2990 n1        1 BZG     -0.153500
     23 CT'        -0.1600    0.4800    2.7470 c2        1 BZG      0.162000
     24 OS'         1.0830   -0.3480    3.3030 os        1 BZG     -0.291000
     25 CP'        -1.1740    0.0740    3.3800 c3        1 BZG     -0.209000
     26 C5'         1.4390   -1.8680    5.0560 c3        1 BZG      0.077000
     27 C4'         0.8860   -0.4810    4.5610 c3        1 BZG     -0.059000
     28 C3'        -0.6290   -0.4230    4.7310 c3        1 BZG      0.045000
     29 O3'        -0.9630    0.4460    5.7250 oh        1 BZG     -0.399000
     30 OXT         3.2410   -4.1600    6.0350 o         1 BZG     -1.261000
     31 H5'1        1.3950   -2.5200    4.3200 h1        1 BZG      0.035000
     32 H5'2        0.8940   -2.1870    5.8100 h1        1 BZG      0.035000
     33 HZ1        -2.5590    0.4110   -6.0870 ha        1 BZG      0.123500
     34 HT1        -2.5360   -0.9470   -8.0080 ha        1 BZG      0.123500
     35 HI         -0.5030   -1.9260   -8.7100 ha        1 BZG      0.123500
     36 HT2         1.4980   -1.4970   -7.5470 ha        1 BZG      0.123500
     37 HZ2         1.4380   -0.2180   -5.5600 ha        1 BZG      0.177000
     38 HWC1       -1.3700    1.7360   -4.4860 h1        1 BZG      0.095500
     39 HWC2        0.2310    1.7390   -4.4770 h1        1 BZG      0.095500
     40 HIN1       -0.7500    5.1430   -1.4560 hn        1 BZG      0.186000
     41 HIN2       -0.6790    5.0140    0.1140 hn        1 BZG      0.186000
     42 HO         -0.2310   -1.8470    1.1730 DU        1 BZG      0.258000
     43 HT'        -0.0230    1.4490    2.9090 h4        1 BZG      0.110000
     44 HP'1       -1.5960   -0.6480    2.9040 hc        1 BZG      0.094000
     45 HP'2       -1.8230    0.8280    3.5200 hc        1 BZG      0.094000
     46 H4'         1.3140    0.2510    5.0500 h1        1 BZG      0.121000
     47 H3'        -0.9880   -1.3330    4.9360 h1        1 BZG      0.144000
     48 HA         -1.5820    0.0700    6.2550 ho        1 BZG      0.300000
@<TRIPOS>BOND
     1    1    3 1   
     2    1    4 1   
     3    1   30 1   
     4    4   26 1   
     5    5    6 1   
     6    5   33 1   
     7    6   34 1   
     8    7    8 1   
     9    7   35 1   
    10    8   36 1   
    11    9   10 1   
    12    9   37 1   
    13   10   11 1   
    14   11   12 1   
    15   11   38 1   
    16   11   39 1   
    17   12   13 1   
    18   13   14 1   
    19   13   19 1   
    20   14   15 1   
    21   15   17 1   
    22   16   40 1   
    23   16   41 1   
    24   17   18 1   
    25   20   21 1   
    26   21   22 1   
    27   23   24 1   
    28   23   25 1   
    29   23   43 1   
    30   24   27 1   
    31   25   28 1   
    32   25   44 1   
    33   25   45 1   
    34   26   27 1   
    35   26   31 1   
    36   26   32 1   
    37   27   28 1   
    38   27   46 1   
    39   28   29 1   
    40   28   47 1   
    41   29   48 1   
@<TRIPOS>SUBSTRUCTURE
     1 BZG         1 TEMP              0 ****  ****    0 ROOT
