@<TRIPOS>MOLECULE
BZG
   48    51     1     0     0
SMALL
bcc


@<TRIPOS>ATOM
      1 P           5.6530    1.6790   -0.8110 p5        1 BZG      1.330900
      2 O1P         7.0120    2.1700   -0.4240 o         1 BZG     -0.930167
      3 O2P         5.5820    0.3740   -1.5790 o         1 BZG     -0.930167
      4 O5'         4.9780    1.1010    0.6960 os        1 BZG     -0.553200
      5 CZ1        -7.5520    1.0600   -0.2990 ca        1 BZG     -0.115500
      6 CT1        -8.2600    2.2390   -0.5230 ca        1 BZG     -0.136500
      7 CI         -7.5750    3.4300   -0.7650 ca        1 BZG     -0.140000
      8 CT2        -6.1810    3.4390   -0.7820 ca        1 BZG     -0.136500
      9 CZ2        -5.4670    2.2610   -0.5600 ca        1 BZG     -0.115500
     10 CE         -6.1520    1.0660   -0.3170 ca        1 BZG     -0.085300
     11 CW         -5.4390   -0.2260   -0.0800 c3        1 BZG      0.179700
     12 CK         -3.1850   -1.0270    0.1270 ca        1 BZG      0.717600
     13 NJ         -3.6590   -2.2760    0.3190 nb        1 BZG     -0.841000
     14 CH         -2.7200   -3.2980    0.4700 ca        1 BZG      0.847900
     15 NI         -3.2450   -4.6190    0.5580 nh        1 BZG     -0.899500
     16 NG         -1.3520   -3.1690    0.4880 nb        1 BZG     -0.747000
     17 CF         -0.9130   -1.8920    0.2930 ca        1 BZG      0.450800
     18 CM         -1.8010   -0.7360    0.0980 ca        1 BZG     -0.186200
     19 NN         -1.0400    0.4280   -0.0610 nc        1 BZG     -0.557100
     20 CO          0.2390    0.0200    0.0280 cd        1 BZG      0.455700
     21 NE          0.3820   -1.3740    0.2310 na        1 BZG     -0.260000
     22 CT'         1.6280   -2.1180    0.4420 c3        1 BZG      0.253800
     23 OS'         2.4870   -1.3680    1.2810 os        1 BZG     -0.434600
     24 CP'         2.3880   -2.4420   -0.8610 c3        1 BZG     -0.130400
     25 C5'         3.6920    0.6570    0.5830 c3        1 BZG      0.227400
     26 C4'         3.6500   -0.8900    0.5500 c3        1 BZG      0.052100
     27 C3'         3.5870   -1.4820   -0.8730 c3        1 BZG      0.156100
     28 O3'         4.7500   -2.2190   -1.1710 oh        1 BZG     -0.671800
     29 OXT         4.6180    2.6850   -1.2240 o         1 BZG     -0.930167
     30 H5'1        3.0940    0.9810    1.4870 h1        1 BZG     -0.004300
     31 H5'2        3.2010    1.0730   -0.3450 h1        1 BZG     -0.004300
     32 HI         -8.1350    4.3600   -0.9410 ha        1 BZG      0.120000
     33 HT2        -5.6370    4.3760   -0.9720 ha        1 BZG      0.125500
     34 HZ2        -4.3640    2.2670   -0.5730 ha        1 BZG      0.150000
     35 HWC1       -5.7620   -0.6750    0.8970 h1        1 BZG      0.056200
     36 HWC2       -5.6550   -0.9450   -0.9150 h1        1 BZG      0.056200
     37 HIN1       -4.1520   -4.6540    0.9700 hn        1 BZG      0.390800
     38 HIN2       -2.6090   -5.2660    0.9750 hn        1 BZG      0.390800
     39 HO          1.1390    0.6650   -0.0350 h5        1 BZG      0.128800
     40 HT'         1.3460   -3.0500    1.0150 h2        1 BZG      0.070700
     41 HP'1        2.7400   -3.5020   -0.8180 hc        1 BZG      0.054700
     42 HP'2        1.7630   -2.3160   -1.7740 hc        1 BZG      0.054700
     43 H4'         4.5330   -1.2990    1.1090 h1        1 BZG      0.081700
     44 H3'         3.4540   -0.6660   -1.6370 h1        1 BZG      0.104700
     45 HA          5.4340   -1.5410   -1.3850 ho        1 BZG      0.501000
     46 HZ1        -8.0910    0.1210   -0.1080 ha        1 BZG      0.150000
     47 OL         -4.0310    0.0500   -0.0350 os        1 BZG     -0.425100
     48 HT1        -9.3590    2.2290   -0.5080 ha        1 BZG      0.125500
@<TRIPOS>BOND
     1    1    2 1   
     2    1    3 1   
     3    1    4 1   
     4    1   29 1   
     5    4   25 1   
     6    5    6 ar  
     7    5   10 ar  
     8    5   46 1   
     9    6    7 ar  
    10    6   48 1   
    11    7    8 ar  
    12    7   32 1   
    13    8    9 ar  
    14    8   33 1   
    15    9   10 ar  
    16    9   34 1   
    17   10   11 1   
    18   11   35 1   
    19   11   36 1   
    20   11   47 1   
    21   12   13 ar  
    22   12   18 ar  
    23   12   47 1   
    24   13   14 ar  
    25   14   15 1   
    26   14   16 ar  
    27   15   37 1   
    28   15   38 1   
    29   16   17 ar  
    30   17   18 ar  
    31   17   21 1   
    32   18   19 1   
    33   19   20 2   
    34   20   21 1   
    35   20   39 1   
    36   21   22 1   
    37   22   23 1   
    38   22   24 1   
    39   22   40 1   
    40   23   26 1   
    41   24   27 1   
    42   24   41 1   
    43   24   42 1   
    44   25   26 1   
    45   25   30 1   
    46   25   31 1   
    47   26   27 1   
    48   26   43 1   
    49   27   28 1   
    50   27   44 1   
    51   28   45 1   
@<TRIPOS>SUBSTRUCTURE
     1 BZG         1 TEMP              0 ****  ****    0 ROOT
