@<TRIPOS>MOLECULE
BZH
   32    33     1     0     0
SMALL
bcc


@<TRIPOS>ATOM
      1 C8          0.0520    0.6990    0.1470 ca        1 BZH     -0.175000
      2 C9          1.3890    0.3070    0.0920 ca        1 BZH     -0.054200
      3 N1          2.5510    0.9420    0.5650 na        1 BZH     -0.282300
      4 C2          3.6280    0.0410    0.2530 cc        1 BZH      0.539700
      5 N10         4.9450    0.3020    0.7110 nv        1 BZH     -0.844800
      6 N3          3.2210   -1.0350   -0.4740 nd        1 BZH     -0.598100
      7 C4          1.8220   -0.9000   -0.5770 ca        1 BZH      0.041400
      8 C5          0.8600   -1.7070   -1.1960 ca        1 BZH     -0.056000
      9 C6         -0.4680   -1.3250   -1.1410 ca        1 BZH     -0.196000
     10 C7         -0.8970   -0.1310   -0.4790 ca        1 BZH      0.101600
     11 N11        -2.2640    0.1650   -0.4990 ns        1 BZH     -0.469100
     12 C12        -2.9280    1.1880    0.1710 c         1 BZH      0.668100
     13 O19        -2.3260    2.0190    0.8810 o         1 BZH     -0.629100
     14 C13        -4.4300    1.2940   -0.0260 c3        1 BZH     -0.151400
     15 C14        -5.1520   -0.0140   -0.2560 c3        1 BZH     -0.079400
     16 C15        -6.6510    0.1680   -0.2190 c3        1 BZH     -0.199400
     17 C16        -7.3740   -1.0570   -0.8160 c         1 BZH      0.910600
     18 O18        -8.5270   -1.3220   -0.3760 o         1 BZH     -0.846800
     19 O17        -6.7880   -1.7190   -1.7210 o         1 BZH     -0.846800
     20 H8         -0.2420    1.6250    0.6640 ha        1 BZH      0.179000
     21 HN1         2.5600    1.5580    1.3360 hn        1 BZH      0.296700
     22 H101        5.5860   -0.3870    0.3680 hn        1 BZH      0.386800
     23 H102        5.2420    1.2240    0.4560 hn        1 BZH      0.386800
     24 H5          1.1570   -2.6280   -1.7160 ha        1 BZH      0.142000
     25 H6         -1.2190   -1.9690   -1.6280 ha        1 BZH      0.141000
     26 HN11       -2.8380   -0.4910   -0.9900 hn        1 BZH      0.338500
     27 H131       -4.8420    1.8000    0.8880 hc        1 BZH      0.069700
     28 H132       -4.5980    1.9810   -0.8990 hc        1 BZH      0.069700
     29 H141       -4.8510   -0.7620    0.5220 hc        1 BZH      0.053700
     30 H142       -4.8930   -0.4480   -1.2620 hc        1 BZH      0.053700
     31 H151       -7.0040    0.3310    0.8290 hc        1 BZH      0.025200
     32 H152       -6.9470    1.0620   -0.8250 hc        1 BZH      0.025200
@<TRIPOS>BOND
     1    1    2 ar  
     2    1   10 ar  
     3    1   20 1   
     4    2    3 1   
     5    2    7 ar  
     6    3    4 1   
     7    3   21 1   
     8    4    5 1   
     9    4    6 2   
    10    5   22 1   
    11    5   23 1   
    12    6    7 1   
    13    7    8 ar  
    14    8    9 ar  
    15    8   24 1   
    16    9   10 ar  
    17    9   25 1   
    18   10   11 1   
    19   11   12 1   
    20   11   26 1   
    21   12   13 2   
    22   12   14 1   
    23   14   15 1   
    24   14   27 1   
    25   14   28 1   
    26   15   16 1   
    27   15   29 1   
    28   15   30 1   
    29   16   17 1   
    30   16   31 1   
    31   16   32 1   
    32   17   18 1   
    33   17   19 1   
@<TRIPOS>SUBSTRUCTURE
     1 BZH         1 TEMP              0 ****  ****    0 ROOT
