@<TRIPOS>MOLECULE
BZH
   32    33     1     0     0
SMALL
bcc


@<TRIPOS>ATOM
      1 C8         -1.6550   -0.5130   -4.6950 ca        1 BZH     -0.175000
      2 C9         -2.8280   -0.4060   -5.4410 ca        1 BZH     -0.054200
      3 N1         -3.0400   -0.4510   -6.8300 na        1 BZH     -0.282300
      4 C2         -4.4620   -0.3230   -7.0000 cc        1 BZH      0.539700
      5 N10        -5.0530   -0.4630   -8.2810 nh        1 BZH     -0.844800
      6 N3         -5.1140   -0.0880   -5.8290 nd        1 BZH     -0.598100
      7 C4         -4.1170   -0.1490   -4.8350 ca        1 BZH      0.041400
      8 C5         -4.1880   -0.0000   -3.4450 ca        1 BZH     -0.056000
      9 C6         -3.0280   -0.1090   -2.7000 ca        1 BZH     -0.196000
     10 C7         -1.7540   -0.3650   -3.2990 ca        1 BZH      0.101600
     11 N11        -0.6430   -0.4410   -2.4500 n         1 BZH     -0.469100
     12 C12         0.6610   -0.7970   -2.7770 c         1 BZH      0.668100
     13 O19         1.0010   -1.0750   -3.9450 o         1 BZH     -0.629100
     14 C13         1.6880   -0.7960   -1.6590 c3        1 BZH     -0.151400
     15 C14         1.1600   -1.1470   -0.2860 c3        1 BZH     -0.079400
     16 C15         2.2820   -1.3350    0.7070 c3        1 BZH     -0.199400
     17 C16         1.7510   -1.3170    2.1540 c         1 BZH      0.910600
     18 O18         2.3890   -1.9840    3.0150 o         1 BZH     -0.846800
     19 O17         0.7220   -0.6270    2.4090 o         1 BZH     -0.846800
     20 H8         -0.6910   -0.7090   -5.1880 ha        1 BZH      0.179000
     21 HN1        -2.4570   -0.9460   -7.4540 hn        1 BZH      0.296700
     22 H101       -4.6160    0.1400   -8.9510 hn        1 BZH      0.386800
     23 H102       -6.0400   -0.2950   -8.2420 hn        1 BZH      0.386800
     24 H5         -5.1520    0.2000   -2.9550 ha        1 BZH      0.142000
     25 H6         -3.0950    0.0040   -1.6060 ha        1 BZH      0.141000
     26 HN11       -0.8360   -0.3010   -1.4790 hn        1 BZH      0.338500
     27 H131        2.4900   -1.5250   -1.9550 hc        1 BZH      0.069700
     28 H132        2.1500    0.2270   -1.6390 hc        1 BZH      0.069700
     29 H141        0.4950   -0.3300    0.1120 hc        1 BZH      0.053700
     30 H142        0.5490   -2.0850   -0.3370 hc        1 BZH      0.053700
     31 H151        3.0270   -0.5040    0.6110 hc        1 BZH      0.025200
     32 H152        2.8170   -2.2990    0.5210 hc        1 BZH      0.025200
@<TRIPOS>BOND
     1    1    2 ar  
     2    1   10 ar  
     3    1   20 1   
     4    2    3 1   
     5    2    7 ar  
     6    3    4 1   
     7    3   21 1   
     8    4    5 1   
     9    4    6 2   
    10    5   22 1   
    11    5   23 1   
    12    6    7 1   
    13    7    8 ar  
    14    8    9 ar  
    15    8   24 1   
    16    9   10 ar  
    17    9   25 1   
    18   10   11 1   
    19   11   12 1   
    20   11   26 1   
    21   12   13 2   
    22   12   14 1   
    23   14   15 1   
    24   14   27 1   
    25   14   28 1   
    26   15   16 1   
    27   15   29 1   
    28   15   30 1   
    29   16   17 1   
    30   16   31 1   
    31   16   32 1   
    32   17   18 1   
    33   17   19 1   
@<TRIPOS>SUBSTRUCTURE
     1 BZH         1 TEMP              0 ****  ****    0 ROOT
