@<TRIPOS>MOLECULE
BZH
   34    35     1     0     0
SMALL
bcc


@<TRIPOS>ATOM
      1 C8         -0.0540    0.8320    0.3080 ca        1 BZH     -0.218000
      2 C9          1.2850    0.4640    0.4670 ca        1 BZH      0.019800
      3 N1          2.3340    1.1060    1.1250 na        1 BZH     -0.250300
      4 C2          3.4640    0.2620    0.9310 cc        1 BZH      0.312700
      5 N10         4.7840    0.5650    1.4720 n4        1 BZH     -0.737600
      6 N3          3.1820   -0.8780    0.2310 nd        1 BZH     -0.448100
      7 C4          1.8300   -0.7740   -0.0740 ca        1 BZH      0.013400
      8 C5          0.9670   -1.6390   -0.7860 ca        1 BZH     -0.016000
      9 C6         -0.3460   -1.2770   -0.9410 ca        1 BZH     -0.181000
     10 C7         -0.8860   -0.0470   -0.4070 ca        1 BZH      0.165600
     11 N11        -2.2310    0.2090   -0.6390 n         1 BZH     -0.468100
     12 C12        -2.9720    1.3200   -0.2240 c         1 BZH      0.674100
     13 O19        -2.4820    2.2400    0.4500 o         1 BZH     -0.574100
     14 C13        -4.4250    1.3460   -0.6690 c3        1 BZH     -0.155400
     15 C14        -5.2660    0.3230    0.0730 c3        1 BZH     -0.070400
     16 C15        -6.2580   -0.3700   -0.8390 c3        1 BZH     -0.182400
     17 C16        -5.5940   -1.3260   -1.7840 c         1 BZH      0.640100
     18 O18        -6.3630   -2.1060   -2.5920 oh        1 BZH     -0.561100
     19 O17        -4.3820   -1.5100   -1.9370 o         1 BZH     -0.539000
     20 H8         -0.4290    1.7770    0.7310 ha        1 BZH      0.196000
     21 HN1         2.3180    2.0140    1.5120 hn        1 BZH      0.326700
     22 H101        4.7350    0.6280    2.4960 hn        1 BZH      0.475467
     23 H102        5.1240    1.4520    1.0810 hn        1 BZH      0.475467
     24 H5          1.3540   -2.5830   -1.2030 ha        1 BZH      0.171000
     25 H6         -1.0190   -1.9530   -1.4980 ha        1 BZH      0.170000
     26 HN11       -7.3020   -1.9300   -2.4350 ho        1 BZH      0.436000
     27 H131       -4.8140    2.3810   -0.4740 hc        1 BZH      0.086700
     28 H132       -4.4720    1.1670   -1.7770 hc        1 BZH      0.086700
     29 H141       -4.6170   -0.4560    0.5550 hc        1 BZH      0.068700
     30 H142       -5.8320    0.8360    0.8960 hc        1 BZH      0.068700
     31 H151       -6.9980   -0.9420   -0.2150 hc        1 BZH      0.086200
     32 H152       -6.8300    0.3870   -1.4400 hc        1 BZH      0.086200
     33 H103        5.4310   -0.1940    1.2080 hn        1 BZH      0.475467
     34 H112       -2.7290   -0.4880   -1.1650 hn        1 BZH      0.364500
@<TRIPOS>BOND
     1    1    2 ar  
     2    1   10 ar  
     3    1   20 1   
     4    2    3 1   
     5    2    7 ar  
     6    3    4 1   
     7    3   21 1   
     8    4    5 1   
     9    4    6 2   
    10    5   22 1   
    11    5   23 1   
    12    5   33 1   
    13    6    7 1   
    14    7    8 ar  
    15    8    9 ar  
    16    8   24 1   
    17    9   10 ar  
    18    9   25 1   
    19   10   11 1   
    20   11   12 1   
    21   11   34 1   
    22   12   13 2   
    23   12   14 1   
    24   14   15 1   
    25   14   27 1   
    26   14   28 1   
    27   15   16 1   
    28   15   29 1   
    29   15   30 1   
    30   16   17 1   
    31   16   31 1   
    32   16   32 1   
    33   17   18 1   
    34   17   19 2   
    35   18   26 1   
@<TRIPOS>SUBSTRUCTURE
     1 BZH         1 TEMP              0 ****  ****    0 ROOT
