@<TRIPOS>MOLECULE
BZH
   32    33     1     0     0
SMALL
bcc


@<TRIPOS>ATOM
      1 C8          0.0530    0.7050    0.1300 ca        1 BZH     -0.175000
      2 C9          1.3900    0.3090    0.0860 ca        1 BZH     -0.054200
      3 N1          2.5530    0.9530    0.5430 na        1 BZH     -0.282300
      4 C2          3.6280    0.0430    0.2540 cc        1 BZH      0.539700
      5 N10         4.9450    0.3120    0.7050 nh        1 BZH     -0.844800
      6 N3          3.2190   -1.0500   -0.4470 nd        1 BZH     -0.598100
      7 C4          1.8200   -0.9150   -0.5540 ca        1 BZH      0.041400
      8 C5          0.8560   -1.7340   -1.1530 ca        1 BZH     -0.056000
      9 C6         -0.4700   -1.3490   -1.1090 ca        1 BZH     -0.196000
     10 C7         -0.8970   -0.1380   -0.4750 ca        1 BZH      0.101600
     11 N11        -2.2640    0.1600   -0.5030 n         1 BZH     -0.469100
     12 C12        -2.9260    1.2010    0.1410 c         1 BZH      0.668100
     13 O19        -2.3220    2.0470    0.8300 o         1 BZH     -0.629100
     14 C13        -4.4270    1.3040   -0.0590 c3        1 BZH     -0.151400
     15 C14        -5.1520   -0.0080   -0.2560 c3        1 BZH     -0.079400
     16 C15        -6.6510    0.1780   -0.2230 c3        1 BZH     -0.199400
     17 C16        -7.3760   -1.0600   -0.7880 c         1 BZH      0.910600
     18 O18        -8.5300   -1.3120   -0.3420 o         1 BZH     -0.846800
     19 O17        -6.7910   -1.7460   -1.6770 o         1 BZH     -0.846800
     20 H8         -0.2390    1.6430    0.6250 ha        1 BZH      0.179000
     21 HN1         2.5630    1.5880    1.2990 hn        1 BZH      0.296700
     22 H101        5.2450    1.2260    0.4280 hn        1 BZH      0.386800
     23 H102        5.5850   -0.3870    0.3790 hn        1 BZH      0.386800
     24 H5          1.1520   -2.6690   -1.6500 ha        1 BZH      0.142000
     25 H6         -1.2220   -2.0030   -1.5790 ha        1 BZH      0.141000
     26 HN11       -2.8380   -0.5070   -0.9780 hn        1 BZH      0.338500
     27 H131       -4.8380    1.8340    0.8420 hc        1 BZH      0.069700
     28 H132       -4.5950    1.9690   -0.9490 hc        1 BZH      0.069700
     29 H141       -4.8520   -0.7370    0.5410 hc        1 BZH      0.053700
     30 H142       -4.8940   -0.4670   -1.2500 hc        1 BZH      0.053700
     31 H151       -7.0030    0.3670    0.8210 hc        1 BZH      0.025200
     32 H152       -6.9450    1.0570   -0.8500 hc        1 BZH      0.025200
@<TRIPOS>BOND
     1    1    2 ar  
     2    1   10 ar  
     3    1   20 1   
     4    2    3 1   
     5    2    7 ar  
     6    3    4 1   
     7    3   21 1   
     8    4    5 1   
     9    4    6 2   
    10    5   22 1   
    11    5   23 1   
    12    6    7 1   
    13    7    8 ar  
    14    8    9 ar  
    15    8   24 1   
    16    9   10 ar  
    17    9   25 1   
    18   10   11 1   
    19   11   12 1   
    20   11   26 1   
    21   12   13 2   
    22   12   14 1   
    23   14   15 1   
    24   14   27 1   
    25   14   28 1   
    26   15   16 1   
    27   15   29 1   
    28   15   30 1   
    29   16   17 1   
    30   16   31 1   
    31   16   32 1   
    32   17   18 1   
    33   17   19 1   
@<TRIPOS>SUBSTRUCTURE
     1 BZH         1 TEMP              0 ****  ****    0 ROOT
