@<TRIPOS>MOLECULE
BZH
   32    27     1     0     0
SMALL
bcc


@<TRIPOS>ATOM
      1 C8          1.5610    1.0680    0.8860 c1        1 BZH     -0.202000
      2 C9          2.9670    1.0370    0.8390 c1        1 BZH     -0.005000
      3 N1          3.9130    1.2680    1.7820 n1        1 BZH     -0.242000
      4 C2          5.1320    1.0920    1.2060 c1        1 BZH      0.065000
      5 N10         6.4530    1.0070    1.7130 n2        1 BZH     -0.284000
      6 N3          4.9380    0.7520   -0.0950 n2        1 BZH     -0.172000
      7 C4          3.6030    0.7170   -0.3250 c1        1 BZH     -0.096000
      8 C5          2.8520    0.4180   -1.4780 c1        1 BZH     -0.061000
      9 C6          1.4680    0.4480   -1.4300 c1        1 BZH     -0.176000
     10 C7          0.8220    0.7730   -0.2490 c1        1 BZH      0.114000
     11 N11        -0.5210    0.6970    0.1800 n         1 BZH     -0.325000
     12 C12        -1.4990    0.1070   -0.6580 c2        1 BZH      0.313000
     13 O19        -1.1820   -0.3330   -1.7460 o         1 BZH     -0.384000
     14 C13        -2.9450    0.0730   -0.2220 c3        1 BZH     -0.180000
     15 C14        -3.5480   -1.2640   -0.5840 c3        1 BZH     -0.159000
     16 C15        -5.0510   -1.1940   -0.4410 c3        1 BZH     -0.228000
     17 C16        -5.6360   -2.5800   -0.5820 c2        1 BZH      0.330000
     18 O18        -5.9540   -3.2370    0.4440 o         1 BZH     -0.581500
     19 O17        -5.8550   -3.0570   -1.7270 o         1 BZH     -0.581500
     20 H8          1.1060    1.2970    1.7190 ha        1 BZH      0.145000
     21 HN1         3.7580    1.4680    2.6580 DU        1 BZH      0.245000
     22 H101        6.5920    0.8850    2.6080 hn        1 BZH      0.183500
     23 H102        7.1650    1.0500    1.1420 hn        1 BZH      0.183500
     24 H5          3.3070    0.1890   -2.3100 ha        1 BZH      0.141000
     25 H6          0.9480    0.2410   -2.2300 ha        1 BZH      0.175000
     26 HN11       -0.7470    0.9750    1.0180 hn        1 BZH      0.249000
     27 H131       -3.4380    0.7860   -0.6730 hc        1 BZH      0.109000
     28 H132       -2.9960    0.2030    0.7460 hc        1 BZH      0.109000
     29 H141       -3.1960   -1.9540    0.0140 hc        1 BZH      0.092500
     30 H142       -3.3190   -1.4860   -1.5090 hc        1 BZH      0.092500
     31 H151       -5.2780   -0.8320    0.4390 hc        1 BZH      0.065500
     32 H152       -5.4180   -0.6120   -1.1370 hc        1 BZH      0.065500
@<TRIPOS>BOND
     1    1    2 1   
     2    1   20 1   
     3    3    4 1   
     4    4    6 1   
     5    5   22 1   
     6    5   23 1   
     7    6    7 1   
     8    7    8 1   
     9    8   24 1   
    10    9   10 1   
    11    9   25 1   
    12   10   11 1   
    13   11   12 1   
    14   11   26 1   
    15   12   13 1   
    16   12   14 1   
    17   14   15 1   
    18   14   27 1   
    19   14   28 1   
    20   15   16 1   
    21   15   29 1   
    22   15   30 1   
    23   16   17 1   
    24   16   31 1   
    25   16   32 1   
    26   17   18 1   
    27   17   19 1   
@<TRIPOS>SUBSTRUCTURE
     1 BZH         1 TEMP              0 ****  ****    0 ROOT
