@<TRIPOS>MOLECULE
BZI
   15    16     1     0     0
SMALL
bcc


@<TRIPOS>ATOM
      1 N1         -1.0810    0.0000    1.5920 na        1 BZI     -0.291300
      2 C2          0.1170   -0.0000    2.3320 cc        1 BZI      0.417700
      3 N3          1.2180   -0.0000    1.5670 nd        1 BZI     -0.565100
      4 C3A         0.7470   -0.0000    0.2360 ca        1 BZI      0.063400
      5 C4          1.4280   -0.0000   -0.9890 ca        1 BZI     -0.067000
      6 C5          0.6790   -0.0000   -2.1560 ca        1 BZI     -0.154000
      7 C6         -0.7280    0.0000   -2.1370 ca        1 BZI     -0.112000
      8 C7         -1.4420    0.0000   -0.9480 ca        1 BZI     -0.136000
      9 C7A        -0.7080    0.0000    0.2430 ca        1 BZI     -0.075200
     10 HN1        -1.9980    0.0000    1.9440 hn        1 BZI      0.305700
     11 H2          0.1120   -0.0000    3.4290 h5        1 BZI      0.067800
     12 H4          2.5270   -0.0000   -1.0140 ha        1 BZI      0.148000
     13 H5          1.1940   -0.0000   -3.1290 ha        1 BZI      0.133000
     14 H6         -1.2730    0.0000   -3.0930 ha        1 BZI      0.132000
     15 H7         -2.5400    0.0010   -0.9410 ha        1 BZI      0.134000
@<TRIPOS>BOND
     1    1    2 1   
     2    1    9 1   
     3    1   10 1   
     4    2    3 2   
     5    2   11 1   
     6    3    4 1   
     7    4    5 ar  
     8    4    9 ar  
     9    5    6 ar  
    10    5   12 1   
    11    6    7 ar  
    12    6   13 1   
    13    7    8 ar  
    14    7   14 1   
    15    8    9 ar  
    16    8   15 1   
@<TRIPOS>SUBSTRUCTURE
     1 BZI         1 TEMP              0 ****  ****    0 ROOT
