@<TRIPOS>MOLECULE
BZI
   15    11     1     0     0
SMALL
bcc


@<TRIPOS>ATOM
      1 N1          0.2460   -0.0000   -1.9880 ne        1 BZI     -0.465400
      2 C2          1.6050   -0.0000   -1.9880 c1        1 BZI      0.402800
      3 N3          2.0260   -0.0000   -0.6950 nf        1 BZI     -0.465400
      4 C3A         0.9300   -0.0000    0.1030 ch        1 BZI     -0.001000
      5 C4          0.7830   -0.0000    1.5030 c1        1 BZI     -0.059750
      6 C5         -0.4830   -0.0000    2.0680 c1        1 BZI     -0.059750
      7 C6         -1.6040    0.0000    1.2540 c1        1 BZI     -0.059750
      8 C7         -1.4600    0.0000   -0.1250 c1        1 BZI     -0.059750
      9 C7A        -0.1740   -0.0000   -0.6980 cg        1 BZI     -0.001000
     10 HN1        -0.2900   -0.0000   -2.7260 DU        1 BZI      0.226500
     11 H2          2.1780   -0.0000   -2.7780 DU        1 BZI      0.226500
     12 H4          1.5730   -0.0000    2.0770 ha        1 BZI      0.079250
     13 H5         -0.5840   -0.0000    3.0380 ha        1 BZI      0.079250
     14 H6         -2.4960    0.0000    1.6510 ha        1 BZI      0.079250
     15 H7         -2.2500    0.0000   -0.6980 ha        1 BZI      0.079250
@<TRIPOS>BOND
     1    1    2 2   
     2    1    9 1   
     3    2    3 2   
     4    3    4 1   
     5    4    9 3   
     6    5    6 3   
     7    5   12 1   
     8    6   13 1   
     9    7    8 3   
    10    7   14 1   
    11    8   15 1   
@<TRIPOS>SUBSTRUCTURE
     1 BZI         1 TEMP              0 ****  ****    0 ROOT
