@<TRIPOS>MOLECULE
BZM
   28    29     1     0     0
SMALL
bcc


@<TRIPOS>ATOM
      1 C8         -1.2460    0.4520    1.2310 c3        1 BZM      0.186700
      2 O8         -0.4460    0.1580    0.0700 os        1 BZM     -0.438900
      3 C7         -1.0680    0.3090   -1.1420 c         1 BZM      0.649700
      4 O7         -2.2480    0.6740   -1.1440 o         1 BZM     -0.545000
      5 C6         -0.2130    0.0040   -2.2970 ca        1 BZM     -0.135600
      6 C1         -0.7620    0.1150   -3.5820 ca        1 BZM     -0.071000
      7 C5          1.1210   -0.3900   -2.1340 ca        1 BZM     -0.071000
      8 C2          0.0250   -0.1670   -4.6970 ca        1 BZM     -0.147500
      9 C4          1.9010   -0.6700   -3.2550 ca        1 BZM     -0.147500
     10 C3          1.3540   -0.5600   -4.5340 ca        1 BZM     -0.096000
     11 C9         -0.3930    0.2660    2.4400 ca        1 BZM     -0.092300
     12 C14        -0.7230    0.9640    3.6080 ca        1 BZM     -0.114500
     13 C10         0.7010   -0.6060    2.4410 ca        1 BZM     -0.114500
     14 C13         0.0300    0.7840    4.7660 ca        1 BZM     -0.130500
     15 C11         1.4560   -0.7780    3.6010 ca        1 BZM     -0.130500
     16 C12         1.1210   -0.0860    4.7640 ca        1 BZM     -0.126000
     17 H82        -1.6240    1.5060    1.1490 h1        1 BZM      0.063700
     18 H81        -2.1220   -0.2520    1.2460 h1        1 BZM      0.063700
     19 H1         -1.8130    0.4270   -3.6960 ha        1 BZM      0.155500
     20 H5          1.5440   -0.4740   -1.1200 ha        1 BZM      0.155500
     21 H2         -0.4050   -0.0800   -5.7060 ha        1 BZM      0.139500
     22 H4          2.9490   -0.9790   -3.1280 ha        1 BZM      0.139500
     23 H3          1.9730   -0.7820   -5.4160 ha        1 BZM      0.136000
     24 H14        -1.5800    1.6550    3.6100 ha        1 BZM      0.138000
     25 H10         0.9640   -1.1470    1.5190 ha        1 BZM      0.138000
     26 H13        -0.2340    1.3330    5.6820 ha        1 BZM      0.132500
     27 H11         2.3160   -1.4630    3.5960 ha        1 BZM      0.132500
     28 H12         1.7150   -0.2250    5.6780 ha        1 BZM      0.132000
@<TRIPOS>BOND
     1    1    2 1   
     2    1   11 1   
     3    1   17 1   
     4    1   18 1   
     5    2    3 1   
     6    3    4 2   
     7    3    5 1   
     8    5    6 ar  
     9    5    7 ar  
    10    6    8 ar  
    11    6   19 1   
    12    7    9 ar  
    13    7   20 1   
    14    8   10 ar  
    15    8   21 1   
    16    9   10 ar  
    17    9   22 1   
    18   10   23 1   
    19   11   12 ar  
    20   11   13 ar  
    21   12   14 ar  
    22   12   24 1   
    23   13   15 ar  
    24   13   25 1   
    25   14   16 ar  
    26   14   26 1   
    27   15   16 ar  
    28   15   27 1   
    29   16   28 1   
@<TRIPOS>SUBSTRUCTURE
     1 BZM         1 TEMP              0 ****  ****    0 ROOT
