@<TRIPOS>MOLECULE
BZM
   28    29     1     0     0
SMALL
bcc


@<TRIPOS>ATOM
      1 C8          0.0830   -0.4370   -0.0380 c3        1 BZM      0.186700
      2 O8          1.4940   -0.1490   -0.0150 os        1 BZM     -0.438900
      3 C7          2.1170   -0.2940    1.1970 c         1 BZM      0.649700
      4 O7          1.4310   -0.6490    2.1610 o         1 BZM     -0.545000
      5 C6          3.5560    0.0040    1.1710 ca        1 BZM     -0.135600
      6 C1          4.2820   -0.1020    2.3660 ca        1 BZM     -0.071000
      7 C5          4.2000    0.3870   -0.0110 ca        1 BZM     -0.071000
      8 C2          5.6470    0.1740    2.3720 ca        1 BZM     -0.147500
      9 C4          5.5670    0.6610    0.0040 ca        1 BZM     -0.147500
     10 C3          6.2900    0.5550    1.1930 ca        1 BZM     -0.096000
     11 C9         -0.4030   -0.2600   -1.4360 ca        1 BZM     -0.092300
     12 C14        -1.5500   -0.9550   -1.8400 ca        1 BZM     -0.114500
     13 C10         0.2370    0.6000   -2.3330 ca        1 BZM     -0.114500
     14 C13        -2.0520   -0.7840   -3.1280 ca        1 BZM     -0.130500
     15 C11        -0.2670    0.7650   -3.6230 ca        1 BZM     -0.130500
     16 C12        -1.4120    0.0760   -4.0220 ca        1 BZM     -0.126000
     17 H82        -0.0750   -1.4870    0.3270 h1        1 BZM      0.063700
     18 H81        -0.4360    0.2760    0.6600 h1        1 BZM      0.063700
     19 H1          3.7620   -0.4050    3.2890 ha        1 BZM      0.155500
     20 H5          3.6230    0.4670   -0.9460 ha        1 BZM      0.155500
     21 H2          6.2180    0.0910    3.3080 ha        1 BZM      0.139500
     22 H4          6.0750    0.9610   -0.9250 ha        1 BZM      0.139500
     23 H3          7.3690    0.7720    1.2010 ha        1 BZM      0.136000
     24 H14        -2.0530   -1.6380   -1.1390 ha        1 BZM      0.138000
     25 H10         1.1430    1.1390   -2.0160 ha        1 BZM      0.138000
     26 H13        -2.9540   -1.3290   -3.4410 ha        1 BZM      0.132500
     27 H11         0.2410    1.4410   -4.3260 ha        1 BZM      0.132500
     28 H12        -1.8090    0.2080   -5.0380 ha        1 BZM      0.132000
@<TRIPOS>BOND
     1    1    2 1   
     2    1   11 1   
     3    1   17 1   
     4    1   18 1   
     5    2    3 1   
     6    3    4 2   
     7    3    5 1   
     8    5    6 ar  
     9    5    7 ar  
    10    6    8 ar  
    11    6   19 1   
    12    7    9 ar  
    13    7   20 1   
    14    8   10 ar  
    15    8   21 1   
    16    9   10 ar  
    17    9   22 1   
    18   10   23 1   
    19   11   12 ar  
    20   11   13 ar  
    21   12   14 ar  
    22   12   24 1   
    23   13   15 ar  
    24   13   25 1   
    25   14   16 ar  
    26   14   26 1   
    27   15   16 ar  
    28   15   27 1   
    29   16   28 1   
@<TRIPOS>SUBSTRUCTURE
     1 BZM         1 TEMP              0 ****  ****    0 ROOT
