@<TRIPOS>MOLECULE
BZM
   28    25     1     0     0
SMALL
bcc


@<TRIPOS>ATOM
      1 C8         -1.5290    0.0770    0.4210 c3        1 BZM      0.024000
      2 O8         -0.1350    0.0740    0.3350 os        1 BZM     -0.278000
      3 C7          0.5030    1.4640    0.5950 c2        1 BZM      0.351000
      4 O7          0.0540    2.1610    1.3870 o         1 BZM     -0.352000
      5 C6          1.7760    1.9010   -0.1920 c2        1 BZM     -0.114000
      6 C1          2.9420    1.5950    0.2580 c2        1 BZM     -0.072000
      7 C5          1.6540    2.5910   -1.3830 c1        1 BZM     -0.070000
      8 C2          4.1260    1.9730   -0.4830 c1        1 BZM     -0.147000
      9 C4          2.8060    2.9600   -2.1040 c1        1 BZM     -0.125500
     10 C3          4.0090    2.6430   -1.6390 c1        1 BZM     -0.125500
     11 C9         -2.0180   -1.2900    0.5550 c2        1 BZM     -0.111000
     12 C14        -1.6700   -2.2290   -0.3800 c2        1 BZM     -0.107000
     13 C10        -2.8860   -1.6360    1.6280 c1        1 BZM     -0.110000
     14 C13        -2.1690   -3.5300   -0.2800 c1        1 BZM     -0.134000
     15 C11        -3.3870   -2.9430    1.7280 c1        1 BZM     -0.125500
     16 C12        -3.0410   -3.8820    0.7960 c1        1 BZM     -0.125500
     17 H82        -1.8230    0.6370    1.2490 h1        1 BZM      0.113000
     18 H81        -1.9000    0.4710   -0.3860 h1        1 BZM      0.113000
     19 H1          3.0310    1.0830    1.1370 ha        1 BZM      0.157000
     20 H5          0.7440    2.8300   -1.7330 ha        1 BZM      0.153000
     21 H2          5.0010    1.7430   -0.1470 ha        1 BZM      0.140000
     22 H4          2.7200    3.4550   -2.9600 ha        1 BZM      0.134500
     23 H3          4.7720    2.8860   -2.1140 ha        1 BZM      0.134500
     24 H14        -1.1100   -2.0030   -1.0710 ha        1 BZM      0.139000
     25 H10        -3.1500   -0.9200    2.3340 ha        1 BZM      0.136000
     26 H13        -1.9220   -4.1930   -0.9420 ha        1 BZM      0.132000
     27 H11        -4.0350   -3.2030    2.5300 ha        1 BZM      0.134500
     28 H12        -3.3600   -4.7140    0.8610 ha        1 BZM      0.134500
@<TRIPOS>BOND
     1    1    2 1   
     2    1   11 1   
     3    1   17 1   
     4    1   18 1   
     5    2    3 1   
     6    3    4 1   
     7    3    5 1   
     8    5    6 1   
     9    5    7 1   
    10    6    8 1   
    11    6   19 1   
    12    7   20 1   
    13    8   21 1   
    14    9   10 1   
    15    9   22 1   
    16   10   23 1   
    17   11   12 1   
    18   11   13 1   
    19   12   14 1   
    20   12   24 1   
    21   13   25 1   
    22   14   26 1   
    23   15   16 1   
    24   15   27 1   
    25   16   28 1   
@<TRIPOS>SUBSTRUCTURE
     1 BZM         1 TEMP              0 ****  ****    0 ROOT
