@<TRIPOS>MOLECULE
BZN
   62    63     1     0     0
SMALL
bcc


@<TRIPOS>ATOM
      1 C2          0.4140    0.1570   -0.0460 c3        1 BZN      0.152800
      2 C3          1.9330   -0.1220   -0.0620 c3        1 BZN     -0.090700
      3 C4          2.3410   -0.1340    1.4250 c3        1 BZN     -0.087700
      4 C5          1.0150   -0.3000    2.1980 c3        1 BZN      0.145800
      5 C6          3.0540    1.1610    1.7940 c3        1 BZN      0.134400
      6 N1         -0.1010    0.0090    1.3090 n7        1 BZN     -0.813200
      7 C15         2.3060   -1.4700   -0.6730 c3        1 BZN      0.124800
      8 N16         1.9590   -1.7360   -2.0750 n7        1 BZN     -0.912200
      9 C24         1.7960   -0.5790   -2.9540 c3        1 BZN      0.124800
     10 C25         3.0900    0.1230   -3.3900 c3        1 BZN     -0.085700
     11 C27         3.9630   -0.7900   -4.2230 c3        1 BZN     -0.101100
     12 C26         2.7260    1.3680   -4.1720 c3        1 BZN     -0.101100
     13 S17         0.2820   -3.3080   -2.3150 s4        1 BZN      1.648300
     14 O29         0.8010   -3.7290   -3.5040 o         1 BZN     -0.436900
     15 O28         0.5530   -3.9360   -1.1380 o         1 BZN     -0.436900
     16 C18        -1.0290   -2.4450   -2.3860 ca        1 BZN     -0.584500
     17 C23        -1.5020   -1.9330   -3.6230 ca        1 BZN      0.030000
     18 C22        -2.7000   -1.2450   -3.7050 ca        1 BZN     -0.152000
     19 C21        -3.4710   -1.0380   -2.5530 ca        1 BZN      0.017000
     20 C20        -3.0270   -1.5240   -1.3210 ca        1 BZN     -0.152000
     21 C19        -1.8250   -2.2120   -1.2360 ca        1 BZN      0.030000
     22 O7          3.4240    1.0410    3.1630 os        1 BZN     -0.420600
     23 C8          4.1350    2.1950    3.6290 c3        1 BZN      0.178700
     24 C9          4.4220    2.0170    5.0820 ca        1 BZN     -0.101300
     25 C14         4.6300    0.7480    5.6300 ca        1 BZN     -0.114000
     26 C13         4.9300    0.6140    6.9860 ca        1 BZN     -0.128000
     27 C12         5.0270    1.7440    7.7960 ca        1 BZN     -0.118000
     28 C11         4.8190    3.0120    7.2510 ca        1 BZN     -0.128000
     29 C10         4.5140    3.1500    5.8980 ca        1 BZN     -0.114000
     30 H2          0.2140    1.1810   -0.4670 h1        1 BZN      0.030200
     31 H2A        -0.1350   -0.5820   -0.6930 h1        1 BZN      0.030200
     32 H3          2.4620    0.6990   -0.6130 hc        1 BZN      0.071700
     33 H4          3.0230   -0.9910    1.6660 hc        1 BZN      0.083700
     34 H5          0.9000   -1.3720    2.5200 h1        1 BZN      0.073200
     35 H5A         1.0160    0.3400    3.1210 h1        1 BZN      0.073200
     36 H6          2.3770    2.0460    1.6580 h1        1 BZN      0.030200
     37 H6A         3.9720    1.2990    1.1620 h1        1 BZN      0.030200
     38 HN1        -0.5680    0.8470    1.6030 hn        1 BZN      0.368800
     39 H15         1.8120   -2.2870   -0.0640 h1        1 BZN      0.081200
     40 H15A        3.4250   -1.5840   -0.5460 h1        1 BZN      0.081200
     41 H24         1.2690   -0.9540   -3.8810 h1        1 BZN      0.067700
     42 H24A        1.1260    0.1770   -2.4540 h1        1 BZN      0.067700
     43 H25         3.6640    0.4310   -2.4700 hc        1 BZN      0.061700
     44 H27         4.8180   -0.2100   -4.6520 hc        1 BZN      0.049200
     45 H27A        4.3900   -1.6190   -3.6080 hc        1 BZN      0.049200
     46 H27B        3.3840   -1.2330   -5.0690 hc        1 BZN      0.049200
     47 H26         3.6540    1.9140   -4.4710 hc        1 BZN      0.049200
     48 H26A        2.0980    2.0540   -3.5540 hc        1 BZN      0.049200
     49 H26B        2.1610    1.1020   -5.0980 hc        1 BZN      0.049200
     50 H23        -0.9040   -2.1060   -4.5380 ha        1 BZN      0.175500
     51 H22        -3.0520   -0.8630   -4.6780 ha        1 BZN      0.179500
     52 H21        -4.4300   -0.4940   -2.6210 ha        1 BZN      0.174000
     53 H20        -3.6300   -1.3620   -0.4100 ha        1 BZN      0.179500
     54 H19        -1.4800   -2.5900   -0.2530 ha        1 BZN      0.175500
     55 H8          5.0970    2.2870    3.0510 h1        1 BZN      0.038700
     56 H8A         3.5110    3.1120    3.4510 h1        1 BZN      0.038700
     57 H14         4.5490   -0.1420    4.9870 ha        1 BZN      0.135500
     58 H13         5.0920   -0.3870    7.4140 ha        1 BZN      0.137000
     59 H12         5.2670    1.6380    8.8650 ha        1 BZN      0.139000
     60 H11         4.8950    3.9050    7.8890 ha        1 BZN      0.137000
     61 H10         4.3470    4.1510    5.4730 ha        1 BZN      0.135500
     62 H161        2.7130   -2.2980   -2.4640 hn        1 BZN      0.402800
@<TRIPOS>BOND
     1    1    2 1   
     2    1    6 1   
     3    1   30 1   
     4    1   31 1   
     5    2    3 1   
     6    2    7 1   
     7    2   32 1   
     8    3    4 1   
     9    3    5 1   
    10    3   33 1   
    11    4    6 1   
    12    4   34 1   
    13    4   35 1   
    14    5   22 1   
    15    5   36 1   
    16    5   37 1   
    17    6   38 1   
    18    7    8 1   
    19    7   39 1   
    20    7   40 1   
    21    8    9 1   
    22    8   62 1   
    23    9   10 1   
    24    9   41 1   
    25    9   42 1   
    26   10   11 1   
    27   10   12 1   
    28   10   43 1   
    29   11   44 1   
    30   11   45 1   
    31   11   46 1   
    32   12   47 1   
    33   12   48 1   
    34   12   49 1   
    35   13   14 1   
    36   13   15 1   
    37   13   16 1   
    38   16   17 ar  
    39   16   21 ar  
    40   17   18 ar  
    41   17   50 1   
    42   18   19 ar  
    43   18   51 1   
    44   19   20 ar  
    45   19   52 1   
    46   20   21 ar  
    47   20   53 1   
    48   21   54 1   
    49   22   23 1   
    50   23   24 1   
    51   23   55 1   
    52   23   56 1   
    53   24   25 ar  
    54   24   29 ar  
    55   25   26 ar  
    56   25   57 1   
    57   26   27 ar  
    58   26   58 1   
    59   27   28 ar  
    60   27   59 1   
    61   28   29 ar  
    62   28   60 1   
    63   29   61 1   
@<TRIPOS>SUBSTRUCTURE
     1 BZN         1 TEMP              0 ****  ****    0 ROOT
