@<TRIPOS>MOLECULE
BZN
   61    63     1     0     0
SMALL
bcc


@<TRIPOS>ATOM
      1 C2          0.5990    1.4330    1.2420 c3        1 BZN      0.147800
      2 C3          0.0650    0.1390    0.5900 c3        1 BZN     -0.104700
      3 C4         -1.3590    0.4830    0.1180 c3        1 BZN     -0.090700
      4 C5         -1.6070    1.9350    0.5880 c3        1 BZN      0.146800
      5 C6         -2.3690   -0.4890    0.7060 c3        1 BZN      0.135400
      6 N1         -0.5020    2.3710    1.4360 n3        1 BZN     -0.793200
      7 C15         0.9130   -0.3390   -0.5900 c3        1 BZN      0.231800
      8 N16         2.2810   -0.6760   -0.2960 n3        1 BZN     -0.807500
      9 C24         2.5230   -1.6020    0.7780 c3        1 BZN      0.224800
     10 C25         1.9000   -2.9990    0.6170 c3        1 BZN     -0.080700
     11 C27         2.3770   -3.6800   -0.6470 c3        1 BZN     -0.094600
     12 C26         2.2530   -3.8260    1.8360 c3        1 BZN     -0.094600
     13 S17         3.5130   -0.1110   -1.2110 sy        1 BZN      1.502200
     14 O29         4.5490   -1.0730   -1.2600 o         1 BZN     -0.651800
     15 O28         3.0140    0.3440   -2.4520 o         1 BZN     -0.651800
     16 C18         4.0750    1.2210   -0.3390 ca        1 BZN     -0.379500
     17 C23         5.1090    1.0790    0.5950 ca        1 BZN     -0.017000
     18 C22         5.6010    2.1800    1.2900 ca        1 BZN     -0.155500
     19 C21         5.0620    3.4460    1.0560 ca        1 BZN     -0.066000
     20 C20         4.0360    3.6060    0.1240 ca        1 BZN     -0.155500
     21 C19         3.5490    2.4990   -0.5670 ca        1 BZN     -0.017000
     22 O7         -3.6340   -0.1770    0.1240 os        1 BZN     -0.421600
     23 C8         -4.6590   -1.0640    0.5760 c3        1 BZN      0.176700
     24 C9         -5.9530   -0.6700   -0.0530 ca        1 BZN     -0.090300
     25 C14        -7.1440   -1.1370    0.5180 ca        1 BZN     -0.115500
     26 C13        -8.3700   -0.8110   -0.0580 ca        1 BZN     -0.131500
     27 C12        -8.4150   -0.0150   -1.2040 ca        1 BZN     -0.128000
     28 C11        -7.2320    0.4530   -1.7720 ca        1 BZN     -0.131500
     29 C10        -6.0020    0.1260   -1.2000 ca        1 BZN     -0.115500
     30 H2          1.1200    1.2010    2.2080 h1        1 BZN      0.050200
     31 H2A         1.3450    1.9300    0.5600 h1        1 BZN      0.050200
     32 H3          0.0250   -0.6740    1.3640 hc        1 BZN      0.055700
     33 H4         -1.4370    0.4410   -1.0000 hc        1 BZN      0.077700
     34 H5         -1.6310    2.6160   -0.3070 h1        1 BZN      0.060200
     35 H5A        -2.5970    2.0200    1.1110 h1        1 BZN      0.060200
     36 H6         -2.0880   -1.5470    0.4530 h1        1 BZN      0.027700
     37 H6A        -2.4330   -0.3840    1.8220 h1        1 BZN      0.027700
     38 HN1        -0.7860    2.3750    2.3990 hn        1 BZN      0.346800
     39 H15         0.4010   -1.2480   -1.0260 h1        1 BZN      0.058700
     40 H15A        0.9130    0.4670   -1.3840 h1        1 BZN      0.058700
     41 H24         3.6420   -1.7310    0.8820 h1        1 BZN      0.048200
     42 H24A        2.1380   -1.1580    1.7420 h1        1 BZN      0.048200
     43 H25         0.7790   -2.8900    0.5720 hc        1 BZN      0.045700
     44 H27         3.4860   -3.5900   -0.7490 hc        1 BZN      0.039867
     45 H27A        2.1050   -4.7630   -0.6290 hc        1 BZN      0.039867
     46 H27B        1.9030   -3.2150   -1.5450 hc        1 BZN      0.039867
     47 H26         1.9130   -3.3170    2.7700 hc        1 BZN      0.039867
     48 H26A        1.7580   -4.8250    1.7770 hc        1 BZN      0.039867
     49 H26B        3.3570   -3.9830    1.8980 hc        1 BZN      0.039867
     50 H23         5.5470    0.0790    0.7640 ha        1 BZN      0.152500
     51 H22         6.4160    2.0530    2.0170 ha        1 BZN      0.142000
     52 H21         5.4480    4.3190    1.6040 ha        1 BZN      0.137000
     53 H20         3.6110    4.6030   -0.0660 ha        1 BZN      0.142000
     54 H19         2.7490    2.6270   -1.3190 ha        1 BZN      0.152500
     55 H8         -4.3930   -2.1180    0.2800 h1        1 BZN      0.036200
     56 H8A        -4.7310   -1.0090    1.6970 h1        1 BZN      0.036200
     57 H14        -7.1110   -1.7610    1.4230 ha        1 BZN      0.139000
     58 H13        -9.3030   -1.1810    0.3920 ha        1 BZN      0.132000
     59 H12        -9.3840    0.2410   -1.6570 ha        1 BZN      0.131000
     60 H11        -7.2650    1.0820   -2.6730 ha        1 BZN      0.132000
     61 H10        -5.0650    0.4980   -1.6440 ha        1 BZN      0.139000
@<TRIPOS>BOND
     1    1    2 1   
     2    1    6 1   
     3    1   30 1   
     4    1   31 1   
     5    2    3 1   
     6    2    7 1   
     7    2   32 1   
     8    3    4 1   
     9    3    5 1   
    10    3   33 1   
    11    4    6 1   
    12    4   34 1   
    13    4   35 1   
    14    5   22 1   
    15    5   36 1   
    16    5   37 1   
    17    6   38 1   
    18    7    8 1   
    19    7   39 1   
    20    7   40 1   
    21    8    9 1   
    22    8   13 1   
    23    9   10 1   
    24    9   41 1   
    25    9   42 1   
    26   10   11 1   
    27   10   12 1   
    28   10   43 1   
    29   11   44 1   
    30   11   45 1   
    31   11   46 1   
    32   12   47 1   
    33   12   48 1   
    34   12   49 1   
    35   13   14 2   
    36   13   15 2   
    37   13   16 1   
    38   16   17 ar  
    39   16   21 ar  
    40   17   18 ar  
    41   17   50 1   
    42   18   19 ar  
    43   18   51 1   
    44   19   20 ar  
    45   19   52 1   
    46   20   21 ar  
    47   20   53 1   
    48   21   54 1   
    49   22   23 1   
    50   23   24 1   
    51   23   55 1   
    52   23   56 1   
    53   24   25 ar  
    54   24   29 ar  
    55   25   26 ar  
    56   25   57 1   
    57   26   27 ar  
    58   26   58 1   
    59   27   28 ar  
    60   27   59 1   
    61   28   29 ar  
    62   28   60 1   
    63   29   61 1   
@<TRIPOS>SUBSTRUCTURE
     1 BZN         1 TEMP              0 ****  ****    0 ROOT
