@<TRIPOS>MOLECULE
BZN
   62    63     1     0     0
SMALL
bcc


@<TRIPOS>ATOM
      1 C2          0.4120    0.3340   -0.0870 c3        1 BZN      0.152800
      2 C3          1.8880   -0.1210   -0.0380 c3        1 BZN     -0.090700
      3 C4          2.2530   -0.1040    1.4590 c3        1 BZN     -0.088700
      4 C5          0.8980   -0.0570    2.1970 c3        1 BZN      0.146800
      5 C6          3.1190    1.1060    1.7860 c3        1 BZN      0.134400
      6 N1         -0.1470    0.3420    1.2590 n3        1 BZN     -0.811200
      7 C15         2.1140   -1.5340   -0.5720 c3        1 BZN      0.124800
      8 N16         1.7820   -1.8270   -1.9720 n3        1 BZN     -0.912200
      9 C24         1.7810   -0.7040   -2.9080 c3        1 BZN      0.124800
     10 C25         3.1610   -0.1800   -3.3310 c3        1 BZN     -0.085700
     11 C27         3.9430   -1.2270   -4.0940 c3        1 BZN     -0.101100
     12 C26         2.9690    1.0620   -4.1770 c3        1 BZN     -0.101100
     13 S17        -0.0600   -3.2020   -2.2020 s4        1 BZN      1.648300
     14 O29         0.4480   -3.7480   -3.3440 o         1 BZN     -0.436400
     15 O28         0.0900   -3.7920   -0.9830 o         1 BZN     -0.436400
     16 C18        -1.2540   -2.1950   -2.3730 ca        1 BZN     -0.584500
     17 C23        -1.6130   -1.6960   -3.6520 ca        1 BZN      0.029500
     18 C22        -2.7140   -0.8750   -3.8210 ca        1 BZN     -0.152000
     19 C21        -3.4980   -0.5180   -2.7160 ca        1 BZN      0.017000
     20 C20        -3.1640   -0.9890   -1.4430 ca        1 BZN     -0.152000
     21 C19        -2.0590   -1.8100   -1.2720 ca        1 BZN      0.029500
     22 O7          3.4510    1.0020    3.1660 os        1 BZN     -0.420600
     23 C8          4.3200    2.0580    3.5900 c3        1 BZN      0.178700
     24 C9          4.6150    1.8740    5.0410 ca        1 BZN     -0.100300
     25 C14         5.8210    2.3670    5.5530 ca        1 BZN     -0.114000
     26 C13         6.1050    2.2410    6.9110 ca        1 BZN     -0.127500
     27 C12         5.1920    1.6170    7.7630 ca        1 BZN     -0.118000
     28 C11         3.9940    1.1190    7.2530 ca        1 BZN     -0.127500
     29 C10         3.7030    1.2480    5.8960 ca        1 BZN     -0.114000
     30 H2         -0.2050   -0.3800   -0.6990 h1        1 BZN      0.030200
     31 H2A         0.3440    1.3430   -0.5800 h1        1 BZN      0.030200
     32 H3          2.5260    0.6020   -0.6110 hc        1 BZN      0.071700
     33 H4          2.8110   -1.0270    1.7670 hc        1 BZN      0.085700
     34 H5          0.6380   -1.0850    2.5720 h1        1 BZN      0.071700
     35 H5A         0.9590    0.6290    3.0850 h1        1 BZN      0.071700
     36 H6          4.0560    1.0980    1.1660 h1        1 BZN      0.030700
     37 H6A         2.5630    2.0630    1.6000 h1        1 BZN      0.030700
     38 HN1        -0.5020    1.2520    1.4870 hn        1 BZN      0.367800
     39 H15         1.5070   -2.2540    0.0560 h1        1 BZN      0.081200
     40 H15A        3.2060   -1.7740   -0.3980 h1        1 BZN      0.081200
     41 H24         1.2410   -1.0610   -3.8340 h1        1 BZN      0.067700
     42 H24A        1.1910    0.1480   -2.4660 h1        1 BZN      0.067700
     43 H25         3.7420    0.1020   -2.4070 hc        1 BZN      0.061700
     44 H27         4.2490   -2.0710   -3.4310 hc        1 BZN      0.049200
     45 H27A        4.8730   -0.7720   -4.5170 hc        1 BZN      0.049200
     46 H27B        3.3400   -1.6360   -4.9410 hc        1 BZN      0.049200
     47 H26         3.9630    1.4790   -4.4700 hc        1 BZN      0.049200
     48 H26A        2.4010    0.8210   -5.1080 hc        1 BZN      0.049200
     49 H26B        2.4110    1.8450   -3.6090 hc        1 BZN      0.049200
     50 H23        -1.0050   -1.9870   -4.5300 ha        1 BZN      0.175500
     51 H22        -2.9790   -0.5050   -4.8260 ha        1 BZN      0.179500
     52 H21        -4.3800    0.1330   -2.8520 ha        1 BZN      0.174000
     53 H20        -3.7790   -0.7080   -0.5690 ha        1 BZN      0.179500
     54 H19        -1.8020   -2.1760   -0.2580 ha        1 BZN      0.175500
     55 H8          3.8080    3.0450    3.4210 h1        1 BZN      0.038700
     56 H8A         5.2640    2.0250    2.9810 h1        1 BZN      0.038700
     57 H14         6.5450    2.8560    4.8840 ha        1 BZN      0.134500
     58 H13         7.0520    2.6330    7.3120 ha        1 BZN      0.137500
     59 H12         5.4200    1.5170    8.8350 ha        1 BZN      0.139000
     60 H11         3.2740    0.6250    7.9230 ha        1 BZN      0.137500
     61 H10         2.7600    0.8530    5.4880 ha        1 BZN      0.134500
     62 H161        2.4760   -2.4900   -2.3070 hn        1 BZN      0.403800
@<TRIPOS>BOND
     1    1    2 1   
     2    1    6 1   
     3    1   30 1   
     4    1   31 1   
     5    2    3 1   
     6    2    7 1   
     7    2   32 1   
     8    3    4 1   
     9    3    5 1   
    10    3   33 1   
    11    4    6 1   
    12    4   34 1   
    13    4   35 1   
    14    5   22 1   
    15    5   36 1   
    16    5   37 1   
    17    6   38 1   
    18    7    8 1   
    19    7   39 1   
    20    7   40 1   
    21    8    9 1   
    22    8   62 1   
    23    9   10 1   
    24    9   41 1   
    25    9   42 1   
    26   10   11 1   
    27   10   12 1   
    28   10   43 1   
    29   11   44 1   
    30   11   45 1   
    31   11   46 1   
    32   12   47 1   
    33   12   48 1   
    34   12   49 1   
    35   13   14 1   
    36   13   15 1   
    37   13   16 1   
    38   16   17 ar  
    39   16   21 ar  
    40   17   18 ar  
    41   17   50 1   
    42   18   19 ar  
    43   18   51 1   
    44   19   20 ar  
    45   19   52 1   
    46   20   21 ar  
    47   20   53 1   
    48   21   54 1   
    49   22   23 1   
    50   23   24 1   
    51   23   55 1   
    52   23   56 1   
    53   24   25 ar  
    54   24   29 ar  
    55   25   26 ar  
    56   25   57 1   
    57   26   27 ar  
    58   26   58 1   
    59   27   28 ar  
    60   27   59 1   
    61   28   29 ar  
    62   28   60 1   
    63   29   61 1   
@<TRIPOS>SUBSTRUCTURE
     1 BZN         1 TEMP              0 ****  ****    0 ROOT
