@<TRIPOS>MOLECULE
BZN
   61    58     1     0     0
SMALL
bcc


@<TRIPOS>ATOM
      1 C2         -1.8870   -0.5610    0.8690 c3        1 BZN     -0.104000
      2 C3         -0.4160   -0.2450    0.3660 c3        1 BZN     -0.150000
      3 C4          0.2760   -0.0260    1.4580 c3        1 BZN     -0.130000
      4 C5         -0.4680   -0.8700    2.6440 c3        1 BZN     -0.090000
      5 C6          0.2700    1.5030    1.8000 c3        1 BZN     -0.015000
      6 N1         -1.7700   -0.7760    2.4110 n3        1 BZN     -0.265000
      7 C15         0.1820   -1.4950   -0.4280 c3        1 BZN     -0.011000
      8 N16        -0.3990   -1.5510   -1.7600 n3        1 BZN     -0.828000
      9 C24        -0.4170   -0.3530   -2.5990 c3        1 BZN     -0.006000
     10 C25         1.0180   -0.0810   -3.1540 c3        1 BZN     -0.126000
     11 C27         1.1830   -0.7810   -4.5180 c3        1 BZN     -0.215500
     12 C26         1.2200    1.4330   -3.3300 c3        1 BZN     -0.215500
     13 S17        -0.8130   -3.0130   -2.4110 s4        1 BZN      2.059800
     14 O29         0.0220   -3.3390   -3.5310 o         1 BZN     -0.539900
     15 O28        -0.5040   -4.0920   -1.5090 o         1 BZN     -0.539900
     16 C18        -2.5710   -3.0250   -2.8740 c1        1 BZN     -0.821000
     17 C23        -3.4390   -3.9170   -2.2540 c2        1 BZN     -0.016000
     18 C22        -4.7490   -4.0800   -2.7410 c1        1 BZN     -0.157000
     19 C21        -5.1750   -3.3520   -3.8390 c1        1 BZN     -0.120500
     20 C20        -4.3100   -2.4600   -4.4600 c1        1 BZN     -0.120500
     21 C19        -3.0000   -2.2960   -3.9740 c1        1 BZN     -0.021000
     22 O7          1.2040    1.7620    2.8690 os        1 BZN     -0.278000
     23 C8          1.5050    3.1670    3.0580 c3        1 BZN      0.019000
     24 C9          2.5540    3.3200    4.1710 c2        1 BZN     -0.083000
     25 C14         2.1520    3.4220    5.4880 c2        1 BZN     -0.102000
     26 C13         3.1060    3.6030    6.5020 c1        1 BZN     -0.132000
     27 C12         4.4340    3.6790    6.1840 c1        1 BZN     -0.120500
     28 C11         4.8430    3.5750    4.8420 c1        1 BZN     -0.120500
     29 C10         3.9080    3.3980    3.8490 c1        1 BZN     -0.130000
     30 H2         -2.2240   -1.3740    0.4380 h1        1 BZN      0.099000
     31 H2A        -2.4750    0.1890    0.6790 h1        1 BZN      0.099000
     32 H3         -0.4150    0.5420   -0.1950 hc        1 BZN      0.092000
     33 H4          1.1970   -0.3450    1.3430 hc        1 BZN      0.116000
     34 H5         -0.1820   -1.8290    2.6150 h1        1 BZN      0.100000
     35 H5A        -0.2570   -0.4870    3.5050 h1        1 BZN      0.100000
     36 H6          0.5320    2.0170    1.0040 h1        1 BZN      0.067000
     37 H6A        -0.6200    1.7690    2.0780 h1        1 BZN      0.067000
     38 HN1        -2.1020   -0.0530    2.8420 hn        1 BZN      0.138000
     39 H15        -0.0310   -2.3230    0.0570 h1        1 BZN      0.105000
     40 H15A        1.1590   -1.4010   -0.5010 h1        1 BZN      0.105000
     41 H24        -0.7130    0.4140   -2.0680 h1        1 BZN      0.083500
     42 H24A       -1.0350   -0.4900   -3.3480 h1        1 BZN      0.083500
     43 H25         1.6800   -0.4260   -2.5280 hc        1 BZN      0.094000
     44 H27         1.9150   -0.3530   -5.0210 hc        1 BZN      0.079500
     45 H27A        0.3500   -0.7050   -5.0260 hc        1 BZN      0.079500
     46 H27B        1.3940   -1.7320   -4.3750 hc        1 BZN      0.079500
     47 H26         0.5450    1.7810   -3.9510 hc        1 BZN      0.079500
     48 H26A        2.1250    1.6050   -3.6950 hc        1 BZN      0.079500
     49 H26B        1.1270    1.8770   -2.4650 hc        1 BZN      0.079500
     50 H23        -3.1370   -4.4360   -1.4720 ha        1 BZN      0.156000
     51 H22        -5.3650   -4.7120   -2.3010 ha        1 BZN      0.143000
     52 H21        -6.0890   -3.4660   -4.1780 ha        1 BZN      0.135250
     53 H20        -4.6150   -1.9410   -5.2440 ha        1 BZN      0.135250
     54 H19        -2.3870   -1.6630   -4.4150 ha        1 BZN      0.155000
     55 H8          0.6900    3.6440    3.3120 h1        1 BZN      0.075000
     56 H8A         1.8590    3.5460    2.2150 h1        1 BZN      0.075000
     57 H14         1.2080    3.3680    5.7120 ha        1 BZN      0.151000
     58 H13         2.8240    3.6750    7.4280 ha        1 BZN      0.133000
     59 H12         5.0980    3.8050    6.8880 ha        1 BZN      0.135250
     60 H11         5.7910    3.6290    4.6140 ha        1 BZN      0.135250
     61 H10         4.1930    3.3260    2.9220 ha        1 BZN      0.128000
@<TRIPOS>BOND
     1    1    2 1   
     2    1    6 1   
     3    1   30 1   
     4    1   31 1   
     5    2    3 1   
     6    2    7 1   
     7    2   32 1   
     8    3    4 1   
     9    3    5 1   
    10    3   33 1   
    11    4    6 1   
    12    4   34 1   
    13    4   35 1   
    14    5   22 1   
    15    5   36 1   
    16    5   37 1   
    17    6   38 1   
    18    7    8 1   
    19    7   39 1   
    20    7   40 1   
    21    8    9 1   
    22    8   13 1   
    23    9   10 1   
    24    9   41 1   
    25    9   42 1   
    26   10   11 1   
    27   10   12 1   
    28   10   43 1   
    29   11   44 1   
    30   11   45 1   
    31   11   46 1   
    32   12   47 1   
    33   12   48 1   
    34   12   49 1   
    35   13   14 1   
    36   13   15 1   
    37   16   17 1   
    38   16   21 1   
    39   17   18 1   
    40   17   50 1   
    41   18   51 1   
    42   19   20 1   
    43   19   52 1   
    44   20   53 1   
    45   21   54 1   
    46   22   23 1   
    47   23   24 1   
    48   23   55 1   
    49   23   56 1   
    50   24   25 1   
    51   24   29 1   
    52   25   26 1   
    53   25   57 1   
    54   26   58 1   
    55   27   28 1   
    56   27   59 1   
    57   28   60 1   
    58   29   61 1   
@<TRIPOS>SUBSTRUCTURE
     1 BZN         1 TEMP              0 ****  ****    0 ROOT
