@<TRIPOS>MOLECULE
BZN
   62    63     1     0     0
SMALL
bcc


@<TRIPOS>ATOM
      1 C2          0.4140    0.1550   -0.0430 c3        1 BZN      0.152800
      2 C3          1.9340   -0.1220   -0.0640 c3        1 BZN     -0.090700
      3 C4          2.3470   -0.1340    1.4220 c3        1 BZN     -0.087700
      4 C5          1.0230   -0.3010    2.1990 c3        1 BZN      0.145800
      5 C6          3.0590    1.1620    1.7890 c3        1 BZN      0.134400
      6 N1         -0.0960    0.0070    1.3130 n3        1 BZN     -0.813200
      7 C15         2.3060   -1.4710   -0.6750 c3        1 BZN      0.124800
      8 N16         1.9550   -1.7370   -2.0760 n3        1 BZN     -0.912200
      9 C24         1.7890   -0.5810   -2.9540 c3        1 BZN      0.124800
     10 C25         3.0810    0.1210   -3.3950 c3        1 BZN     -0.085700
     11 C27         3.9520   -0.7910   -4.2320 c3        1 BZN     -0.101100
     12 C26         2.7140    1.3670   -4.1750 c3        1 BZN     -0.101100
     13 S17         0.2790   -3.3110   -2.3110 s4        1 BZN      1.648300
     14 O29         0.7930   -3.7310   -3.5020 o         1 BZN     -0.436900
     15 O28         0.5560   -3.9400   -1.1350 o         1 BZN     -0.436900
     16 C18        -1.0340   -2.4500   -2.3760 ca        1 BZN     -0.584500
     17 C23        -1.5130   -1.9380   -3.6100 ca        1 BZN      0.030000
     18 C22        -2.7120   -1.2510   -3.6860 ca        1 BZN     -0.152000
     19 C21        -3.4780   -1.0460   -2.5310 ca        1 BZN      0.017000
     20 C20        -3.0280   -1.5320   -1.3000 ca        1 BZN     -0.152000
     21 C19        -1.8240   -2.2190   -1.2220 ca        1 BZN      0.030000
     22 O7          3.4320    1.0450    3.1570 os        1 BZN     -0.420600
     23 C8          4.1430    2.1990    3.6200 c3        1 BZN      0.178700
     24 C9          4.4320    2.0230    5.0730 ca        1 BZN     -0.101300
     25 C14         4.6430    0.7550    5.6230 ca        1 BZN     -0.114000
     26 C13         4.9440    0.6230    6.9780 ca        1 BZN     -0.128000
     27 C12         5.0400    1.7550    7.7870 ca        1 BZN     -0.118000
     28 C11         4.8290    3.0220    7.2410 ca        1 BZN     -0.128000
     29 C10         4.5220    3.1580    5.8880 ca        1 BZN     -0.114000
     30 H2          0.2130    1.1790   -0.4630 h1        1 BZN      0.030200
     31 H2A        -0.1360   -0.5840   -0.6880 h1        1 BZN      0.030200
     32 H3          2.4610    0.6990   -0.6170 hc        1 BZN      0.071700
     33 H4          3.0300   -0.9900    1.6620 hc        1 BZN      0.083700
     34 H5          0.9100   -1.3730    2.5220 h1        1 BZN      0.073200
     35 H5A         1.0260    0.3390    3.1220 h1        1 BZN      0.073200
     36 H6          2.3810    2.0470    1.6530 h1        1 BZN      0.030200
     37 H6A         3.9760    1.3010    1.1550 h1        1 BZN      0.030200
     38 HN1        -0.5630    0.8440    1.6080 hn        1 BZN      0.368800
     39 H15         3.4250   -1.5840   -0.5510 h1        1 BZN      0.081200
     40 H15A        1.8140   -2.2870   -0.0640 h1        1 BZN      0.081200
     41 H24         1.1200    0.1740   -2.4530 h1        1 BZN      0.067700
     42 H24A        1.2590   -0.9570   -3.8800 h1        1 BZN      0.067700
     43 H25         3.6580    0.4300   -2.4770 hc        1 BZN      0.061700
     44 H27         4.3810   -1.6200   -3.6180 hc        1 BZN      0.049200
     45 H27A        4.8050   -0.2110   -4.6620 hc        1 BZN      0.049200
     46 H27B        3.3700   -1.2330   -5.0760 hc        1 BZN      0.049200
     47 H26         2.0880    2.0520   -3.5540 hc        1 BZN      0.049200
     48 H26A        2.1450    1.1010   -5.0990 hc        1 BZN      0.049200
     49 H26B        3.6400    1.9130   -4.4780 hc        1 BZN      0.049200
     50 H23        -0.9180   -2.1100   -4.5270 ha        1 BZN      0.175500
     51 H22        -3.0690   -0.8690   -4.6580 ha        1 BZN      0.179500
     52 H21        -4.4380   -0.5030   -2.5950 ha        1 BZN      0.174000
     53 H20        -3.6270   -1.3710   -0.3880 ha        1 BZN      0.179500
     54 H19        -1.4740   -2.5970   -0.2400 ha        1 BZN      0.175500
     55 H8          3.5180    3.1160    3.4420 h1        1 BZN      0.038700
     56 H8A         5.1030    2.2910    3.0410 h1        1 BZN      0.038700
     57 H14         4.5630   -0.1350    4.9810 ha        1 BZN      0.135500
     58 H13         5.1080   -0.3760    7.4070 ha        1 BZN      0.137000
     59 H12         5.2810    1.6500    8.8550 ha        1 BZN      0.139000
     60 H11         4.9040    3.9150    7.8780 ha        1 BZN      0.137000
     61 H10         4.3530    4.1580    5.4620 ha        1 BZN      0.135500
     62 H161        2.7080   -2.2990   -2.4660 hn        1 BZN      0.402800
@<TRIPOS>BOND
     1    1    2 1   
     2    1    6 1   
     3    1   30 1   
     4    1   31 1   
     5    2    3 1   
     6    2    7 1   
     7    2   32 1   
     8    3    4 1   
     9    3    5 1   
    10    3   33 1   
    11    4    6 1   
    12    4   34 1   
    13    4   35 1   
    14    5   22 1   
    15    5   36 1   
    16    5   37 1   
    17    6   38 1   
    18    7    8 1   
    19    7   39 1   
    20    7   40 1   
    21    8    9 1   
    22    8   62 1   
    23    9   10 1   
    24    9   41 1   
    25    9   42 1   
    26   10   11 1   
    27   10   12 1   
    28   10   43 1   
    29   11   44 1   
    30   11   45 1   
    31   11   46 1   
    32   12   47 1   
    33   12   48 1   
    34   12   49 1   
    35   13   14 1   
    36   13   15 1   
    37   13   16 1   
    38   16   17 ar  
    39   16   21 ar  
    40   17   18 ar  
    41   17   50 1   
    42   18   19 ar  
    43   18   51 1   
    44   19   20 ar  
    45   19   52 1   
    46   20   21 ar  
    47   20   53 1   
    48   21   54 1   
    49   22   23 1   
    50   23   24 1   
    51   23   55 1   
    52   23   56 1   
    53   24   25 ar  
    54   24   29 ar  
    55   25   26 ar  
    56   25   57 1   
    57   26   27 ar  
    58   26   58 1   
    59   27   28 ar  
    60   27   59 1   
    61   28   29 ar  
    62   28   60 1   
    63   29   61 1   
@<TRIPOS>SUBSTRUCTURE
     1 BZN         1 TEMP              0 ****  ****    0 ROOT
