@<TRIPOS>MOLECULE
BZO
   18    18     1     0     0
SMALL
bcc


@<TRIPOS>ATOM
      1 C1         -0.1080    0.2010    0.7990 c         1 BZO      0.620900
      2 O1          0.8920    0.8420    0.4930 o         1 BZO     -0.488000
      3 O2         -1.2840    0.8610    0.5330 os        1 BZO     -0.427900
      4 C2         -2.4860    0.1580    0.8550 c3        1 BZO      0.175700
      5 C3         -2.7050    0.0220    2.3250 ca        1 BZO     -0.143300
      6 C4         -2.3620    1.0640    3.1940 ca        1 BZO     -0.114000
      7 C5         -2.6060    0.9430    4.5610 ca        1 BZO     -0.129500
      8 C6         -3.2000   -0.2140    5.0660 ca        1 BZO     -0.119000
      9 C7         -3.5480   -1.2520    4.2020 ca        1 BZO     -0.129500
     10 C8         -3.3010   -1.1370    2.8350 ca        1 BZO     -0.114000
     11 H11        -0.1610   -0.8080    1.2460 h5        1 BZO      0.045200
     12 H21        -2.4820   -0.8460    0.3530 h1        1 BZO      0.066200
     13 H22        -3.2870    0.8050    0.3990 h1        1 BZO      0.066200
     14 H4         -1.8950    1.9750    2.7870 ha        1 BZO      0.140500
     15 H5         -2.3320    1.7640    5.2400 ha        1 BZO      0.136500
     16 H6         -3.3950   -0.3070    6.1440 ha        1 BZO      0.135000
     17 H7         -4.0180   -2.1640    4.5980 ha        1 BZO      0.136500
     18 H8         -3.5780   -1.9580    2.1560 ha        1 BZO      0.140500
@<TRIPOS>BOND
     1    1    2 2   
     2    1    3 1   
     3    1   11 1   
     4    3    4 1   
     5    4    5 1   
     6    4   12 1   
     7    4   13 1   
     8    5    6 ar  
     9    5   10 ar  
    10    6    7 ar  
    11    6   14 1   
    12    7    8 ar  
    13    7   15 1   
    14    8    9 ar  
    15    8   16 1   
    16    9   10 ar  
    17    9   17 1   
    18   10   18 1   
@<TRIPOS>SUBSTRUCTURE
     1 BZO         1 TEMP              0 ****  ****    0 ROOT
