@<TRIPOS>MOLECULE
BZO
   18    15     1     0     0
SMALL
bcc


@<TRIPOS>ATOM
      1 C1          0.9400   -0.5230   -3.3650 c1        1 BZO      0.249000
      2 O1          0.8730    0.1840   -4.3530 o         1 BZO     -0.299000
      3 O2          0.2290   -0.1760   -2.2030 o         1 BZO     -0.266000
      4 C2          1.0430    0.0050   -1.0690 c3        1 BZO      0.018000
      5 C3          0.1760    0.0780    0.1690 c2        1 BZO     -0.136000
      6 C4         -0.2720    1.3070    0.6290 c1        1 BZO     -0.108000
      7 C5         -1.0360    1.3780    1.7840 c1        1 BZO     -0.124000
      8 C6         -1.3520    0.2210    2.4780 c1        1 BZO     -0.124000
      9 C7         -0.9040   -1.0080    2.0180 c1        1 BZO     -0.131000
     10 C8         -0.1400   -1.0790    0.8630 c2        1 BZO     -0.120000
     11 H11         1.4690   -1.3450   -3.3870 ha        1 BZO      0.138000
     12 H21         1.5520    0.8370   -1.1610 h1        1 BZO      0.105500
     13 H22         1.6630   -0.7500   -0.9880 h1        1 BZO      0.105500
     14 H4         -0.0500    2.1220    0.1400 ha        1 BZO      0.150000
     15 H5         -1.3510    2.2430    2.1080 ha        1 BZO      0.136500
     16 H6         -1.8890    0.2710    3.2910 ha        1 BZO      0.136500
     17 H7         -1.1260   -1.8230    2.5070 ha        1 BZO      0.135000
     18 H8          0.1750   -1.9440    0.5390 ha        1 BZO      0.131000
@<TRIPOS>BOND
     1    1    2 1   
     2    1   11 1   
     3    3    4 1   
     4    4    5 1   
     5    4   12 1   
     6    4   13 1   
     7    5    6 1   
     8    5   10 1   
     9    6   14 1   
    10    7    8 1   
    11    7   15 1   
    12    8   16 1   
    13    9   10 1   
    14    9   17 1   
    15   10   18 1   
@<TRIPOS>SUBSTRUCTURE
     1 BZO         1 TEMP              0 ****  ****    0 ROOT
