@<TRIPOS>MOLECULE
BZP
   18    18     1     0     0
SMALL
bcc


@<TRIPOS>ATOM
      1 N1         -0.4910    0.3530   -0.7470 n         1 BZP     -0.513800
      2 C1         -1.1840    0.8130   -1.9510 c         1 BZP      1.006600
      3 O1         -2.4350    0.5290   -2.1240 o         1 BZP     -0.835300
      4 O2         -0.4950    1.3850   -2.9320 o         1 BZP     -0.835300
      5 C2          0.9680    0.3320   -0.7100 c3        1 BZP      0.100000
      6 C3          1.4840    0.3360    0.6360 c3        1 BZP      0.150800
      7 N4          0.9090   -0.6620    1.4300 n3        1 BZP     -0.817200
      8 C5         -0.5480   -0.6410    1.3940 c3        1 BZP      0.150800
      9 C6         -1.0630   -0.6460    0.0470 c3        1 BZP      0.100000
     10 H21         1.3120    1.1230   -1.1850 h1        1 BZP      0.031700
     11 H22         1.2790   -0.4600   -1.1590 h1        1 BZP      0.031700
     12 H31         2.4550    0.1960    0.6040 h1        1 BZP      0.009200
     13 H32         1.3150    1.1510    1.0150 h1        1 BZP      0.009200
     14 HN4         1.1920   -0.5670    2.2830 hn        1 BZP      0.328800
     15 H51        -0.8580    0.1390    1.8420 h1        1 BZP      0.009200
     16 H52        -0.8640   -1.3780    1.8300 h1        1 BZP      0.009200
     17 H61        -2.0990   -0.5030    0.0800 h1        1 BZP      0.031700
     18 H62        -0.8770   -1.5010   -0.3520 h1        1 BZP      0.031700
@<TRIPOS>BOND
     1    1    2 1   
     2    1    5 1   
     3    1    9 1   
     4    2    3 1   
     5    2    4 1   
     6    5    6 1   
     7    5   10 1   
     8    5   11 1   
     9    6    7 1   
    10    6   12 1   
    11    6   13 1   
    12    7    8 1   
    13    7   14 1   
    14    8    9 1   
    15    8   15 1   
    16    8   16 1   
    17    9   17 1   
    18    9   18 1   
@<TRIPOS>SUBSTRUCTURE
     1 BZP         1 TEMP              0 ****  ****    0 ROOT
