@<TRIPOS>MOLECULE
BZP
   18    18     1     0     0
SMALL
bcc


@<TRIPOS>ATOM
      1 N1          0.0070   -0.2150   -0.2110 n         1 BZP     -0.486800
      2 C1         -0.6860    1.0440   -0.5140 c         1 BZP      0.990600
      3 O1         -0.0070    1.9780   -1.0330 o         1 BZP     -0.835300
      4 O2         -1.9280    1.1030   -0.2740 o         1 BZP     -0.835300
      5 C2          1.4370   -0.1650   -0.0780 c3        1 BZP      0.087000
      6 C3          1.9550    0.0010    1.3710 c3        1 BZP      0.124800
      7 N4          1.3140   -0.8840    2.3270 n3        1 BZP     -0.816200
      8 C5         -0.1300   -0.9500    2.1950 c3        1 BZP      0.124800
      9 C6         -0.6170   -1.1010    0.7330 c3        1 BZP      0.087000
     10 H21         1.8640   -1.1250   -0.4880 h1        1 BZP      0.043200
     11 H22         1.8310    0.6960   -0.6870 h1        1 BZP      0.043200
     12 H31         1.8390    1.0870    1.6600 h1        1 BZP      0.015200
     13 H32         3.0550   -0.2380    1.3860 h1        1 BZP      0.015200
     14 HN4         1.5410   -0.5770    3.2560 hn        1 BZP      0.326800
     15 H51        -0.4750   -1.8470    2.7800 h1        1 BZP      0.015200
     16 H52        -0.6350   -0.0410    2.6360 h1        1 BZP      0.015200
     17 H61        -0.4120   -2.1620    0.4100 h1        1 BZP      0.043200
     18 H62        -1.7290   -0.9260    0.7180 h1        1 BZP      0.043200
@<TRIPOS>BOND
     1    1    2 1   
     2    1    5 1   
     3    1    9 1   
     4    2    3 1   
     5    2    4 1   
     6    5    6 1   
     7    5   10 1   
     8    5   11 1   
     9    6    7 1   
    10    6   12 1   
    11    6   13 1   
    12    7    8 1   
    13    7   14 1   
    14    8    9 1   
    15    8   15 1   
    16    8   16 1   
    17    9   17 1   
    18    9   18 1   
@<TRIPOS>SUBSTRUCTURE
     1 BZP         1 TEMP              0 ****  ****    0 ROOT
