@<TRIPOS>MOLECULE
BZP
   18    18     1     0     0
SMALL
bcc


@<TRIPOS>ATOM
      1 N1         -0.0310   -0.5810    0.3520 n         1 BZP     -0.486800
      2 C1         -0.0570    0.3080    1.5210 c         1 BZP      0.990600
      3 O1         -1.1890    0.6590    1.9670 o         1 BZP     -0.835300
      4 O2          1.0530    0.6340    2.0360 o         1 BZP     -0.835300
      5 C2         -1.2060   -0.6170   -0.4750 c3        1 BZP      0.087000
      6 C3         -1.1760    0.3310   -1.6980 c3        1 BZP      0.124800
      7 N4          0.0650    0.2770   -2.4500 n3        1 BZP     -0.816200
      8 C5          1.2580    0.3030   -1.6230 c3        1 BZP      0.124800
      9 C6          1.1910   -0.6440   -0.4010 c3        1 BZP      0.087000
     10 H21        -1.3350   -1.6700   -0.8580 h1        1 BZP      0.043200
     11 H22        -2.1020   -0.3470    0.1510 h1        1 BZP      0.043200
     12 H31        -2.0020    0.0300   -2.4020 h1        1 BZP      0.015200
     13 H32        -1.4030    1.3750   -1.3340 h1        1 BZP      0.015200
     14 HN4         0.0930    1.0550   -3.0850 hn        1 BZP      0.326800
     15 H51         2.1180   -0.0160   -2.2750 h1        1 BZP      0.015200
     16 H52         1.4850    1.3430   -1.2450 h1        1 BZP      0.015200
     17 H61         2.0530   -0.3930    0.2790 h1        1 BZP      0.043200
     18 H62         1.3200   -1.7000   -0.7760 h1        1 BZP      0.043200
@<TRIPOS>BOND
     1    1    2 1   
     2    1    5 1   
     3    1    9 1   
     4    2    3 1   
     5    2    4 1   
     6    5    6 1   
     7    5   10 1   
     8    5   11 1   
     9    6    7 1   
    10    6   12 1   
    11    6   13 1   
    12    7    8 1   
    13    7   14 1   
    14    8    9 1   
    15    8   15 1   
    16    8   16 1   
    17    9   17 1   
    18    9   18 1   
@<TRIPOS>SUBSTRUCTURE
     1 BZP         1 TEMP              0 ****  ****    0 ROOT
