@<TRIPOS>MOLECULE
BZP
   18    18     1     0     0
SMALL
bcc


@<TRIPOS>ATOM
      1 N1          0.0030   -0.2190   -0.2090 n         1 BZP     -0.486800
      2 C1         -0.6910    1.0390   -0.5130 c         1 BZP      0.990600
      3 O1         -0.0140    1.9720   -1.0380 o         1 BZP     -0.835300
      4 O2         -1.9330    1.0990   -0.2700 o         1 BZP     -0.835300
      5 C2          1.4340   -0.1680   -0.0820 c3        1 BZP      0.087000
      6 C3          1.9570    0.0020    1.3650 c3        1 BZP      0.124800
      7 N4          1.3190   -0.8790    2.3260 n3        1 BZP     -0.816200
      8 C5         -0.1260   -0.9450    2.1990 c3        1 BZP      0.124800
      9 C6         -0.6170   -1.1020    0.7400 c3        1 BZP      0.087000
     10 H21         1.8250    0.6910   -0.6950 h1        1 BZP      0.043200
     11 H22         1.8580   -1.1300   -0.4910 h1        1 BZP      0.043200
     12 H31         1.8420    1.0890    1.6500 h1        1 BZP      0.015200
     13 H32         3.0570   -0.2370    1.3760 h1        1 BZP      0.015200
     14 HN4         1.5500   -0.5700    3.2530 hn        1 BZP      0.326800
     15 H51        -0.4680   -1.8410    2.7880 h1        1 BZP      0.015200
     16 H52        -0.6280   -0.0350    2.6400 h1        1 BZP      0.015200
     17 H61        -0.4140   -2.1640    0.4190 h1        1 BZP      0.043200
     18 H62        -1.7300   -0.9270    0.7290 h1        1 BZP      0.043200
@<TRIPOS>BOND
     1    1    2 1   
     2    1    5 1   
     3    1    9 1   
     4    2    3 1   
     5    2    4 1   
     6    5    6 1   
     7    5   10 1   
     8    5   11 1   
     9    6    7 1   
    10    6   12 1   
    11    6   13 1   
    12    7    8 1   
    13    7   14 1   
    14    8    9 1   
    15    8   15 1   
    16    8   16 1   
    17    9   17 1   
    18    9   18 1   
@<TRIPOS>SUBSTRUCTURE
     1 BZP         1 TEMP              0 ****  ****    0 ROOT
