@<TRIPOS>MOLECULE
BZQ
   24    25     1     0     0
SMALL
bcc


@<TRIPOS>ATOM
      1 C1          1.4630   -0.8280    2.5770 ca        1 BZQ     -0.143500
      2 C2          0.9480   -0.1950    3.7090 ca        1 BZQ     -0.105000
      3 C3         -0.2380    0.5340    3.6220 ca        1 BZQ     -0.143500
      4 C4         -0.9100    0.6310    2.4050 ca        1 BZQ     -0.085500
      5 C5         -0.3880    0.0090    1.2620 ca        1 BZQ     -0.168600
      6 C6          0.7990   -0.7260    1.3560 ca        1 BZQ     -0.085500
      7 C7         -1.1320    0.1130   -0.0140 c         1 BZQ      0.588300
      8 C8         -0.9190   -0.4320   -2.4270 ca        1 BZQ     -0.085500
      9 C9         -0.3500    0.1200   -1.2710 ca        1 BZQ     -0.168600
     10 C10         0.9230    0.6970   -1.3350 ca        1 BZQ     -0.085500
     11 C11         1.6240    0.7120   -2.5400 ca        1 BZQ     -0.143500
     12 C12         1.0600    0.1480   -3.6850 ca        1 BZQ     -0.105000
     13 C13        -0.2110   -0.4240   -3.6270 ca        1 BZQ     -0.143500
     14 O          -2.3680    0.1920   -0.0290 o         1 BZQ     -0.529100
     15 H1          2.3930   -1.4110    2.6480 ha        1 BZQ      0.136500
     16 H2          1.4760   -0.2750    4.6710 ha        1 BZQ      0.134000
     17 H3         -0.6480    1.0290    4.5140 ha        1 BZQ      0.136500
     18 H4         -1.8570    1.1880    2.3290 ha        1 BZQ      0.146500
     19 H6          1.2050   -1.2280    0.4640 ha        1 BZQ      0.146500
     20 H10         1.3680    1.1450   -0.4320 ha        1 BZQ      0.146500
     21 H11         2.6220    1.1710   -2.5860 ha        1 BZQ      0.136500
     22 H12         1.6170    0.1580   -4.6340 ha        1 BZQ      0.134000
     23 H13        -0.6580   -0.8640   -4.5300 ha        1 BZQ      0.136500
     24 H8         -1.9310   -0.8640   -2.3760 ha        1 BZQ      0.146500
@<TRIPOS>BOND
     1    1    2 ar  
     2    1    6 ar  
     3    1   15 1   
     4    2    3 ar  
     5    2   16 1   
     6    3    4 ar  
     7    3   17 1   
     8    4    5 ar  
     9    4   18 1   
    10    5    6 ar  
    11    5    7 1   
    12    6   19 1   
    13    7    9 1   
    14    7   14 2   
    15    8    9 ar  
    16    8   13 ar  
    17    8   24 1   
    18    9   10 ar  
    19   10   11 ar  
    20   10   20 1   
    21   11   12 ar  
    22   11   21 1   
    23   12   13 ar  
    24   12   22 1   
    25   13   23 1   
@<TRIPOS>SUBSTRUCTURE
     1 BZQ         1 TEMP              0 ****  ****    0 ROOT
