@<TRIPOS>MOLECULE
BZQ
   24    25     1     0     0
SMALL
bcc


@<TRIPOS>ATOM
      1 C1         -0.0720   -0.2690    0.0280 ca        1 BZQ     -0.143500
      2 C2          1.3200   -0.1950   -0.0430 ca        1 BZQ     -0.105000
      3 C3          2.0670    0.0060    1.1180 ca        1 BZQ     -0.143500
      4 C4          1.4250    0.1320    2.3490 ca        1 BZQ     -0.085500
      5 C5          0.0260    0.0740    2.4210 ca        1 BZQ     -0.168600
      6 C6         -0.7190   -0.1320    1.2550 ca        1 BZQ     -0.085500
      7 C7         -0.6280    0.1940    3.7440 c         1 BZQ      0.588300
      8 C8         -2.8770    0.4010    4.7770 ca        1 BZQ     -0.085500
      9 C9         -1.9680    0.8230    3.7970 ca        1 BZQ     -0.168600
     10 C10        -2.3270    1.8500    2.9170 ca        1 BZQ     -0.085500
     11 C11        -3.5860    2.4410    3.0100 ca        1 BZQ     -0.143500
     12 C12        -4.4940    2.0070    3.9770 ca        1 BZQ     -0.105000
     13 C13        -4.1380    0.9870    4.8590 ca        1 BZQ     -0.143500
     14 O          -0.0740   -0.2180    4.7720 o         1 BZQ     -0.529100
     15 H1         -0.6610   -0.4360   -0.8860 ha        1 BZQ      0.136500
     16 H2          1.8280   -0.2990   -1.0130 ha        1 BZQ      0.134000
     17 H3          3.1640    0.0590    1.0650 ha        1 BZQ      0.136500
     18 H4          2.0070    0.2720    3.2740 ha        1 BZQ      0.146500
     19 H6         -1.8170   -0.1930    1.3090 ha        1 BZQ      0.146500
     20 H10        -1.6100    2.1940    2.1550 ha        1 BZQ      0.146500
     21 H11        -3.8620    3.2510    2.3190 ha        1 BZQ      0.136500
     22 H12        -5.4880    2.4730    4.0450 ha        1 BZQ      0.134000
     23 H13        -4.8510    0.6480    5.6250 ha        1 BZQ      0.136500
     24 H8         -2.5800   -0.3920    5.4820 ha        1 BZQ      0.146500
@<TRIPOS>BOND
     1    1    2 ar  
     2    1    6 ar  
     3    1   15 1   
     4    2    3 ar  
     5    2   16 1   
     6    3    4 ar  
     7    3   17 1   
     8    4    5 ar  
     9    4   18 1   
    10    5    6 ar  
    11    5    7 1   
    12    6   19 1   
    13    7    9 1   
    14    7   14 2   
    15    8    9 ar  
    16    8   13 ar  
    17    8   24 1   
    18    9   10 ar  
    19   10   11 ar  
    20   10   20 1   
    21   11   12 ar  
    22   11   21 1   
    23   12   13 ar  
    24   12   22 1   
    25   13   23 1   
@<TRIPOS>SUBSTRUCTURE
     1 BZQ         1 TEMP              0 ****  ****    0 ROOT
