@<TRIPOS>MOLECULE
BZQ
   24    19     1     0     0
SMALL
bcc


@<TRIPOS>ATOM
      1 C1          0.2830    0.9020   -3.2640 c1        1 BZQ     -0.061875
      2 C2          1.6550    1.0960   -3.2750 c1        1 BZQ     -0.061875
      3 C3          2.3390    1.2800   -2.0830 c1        1 BZQ     -0.061875
      4 C4          1.6500    1.2710   -0.8800 c1        1 BZQ     -0.028000
      5 C5          0.2770    1.0780   -0.8690 cg        1 BZQ     -0.117200
      6 C6         -0.4060    0.8930   -2.0610 c1        1 BZQ     -0.061875
      7 C7         -0.4870    1.1650    0.4340 c         1 BZQ      0.485500
      8 C8         -0.2080   -1.2990    0.8370 c1        1 BZQ     -0.061875
      9 C9         -0.7230   -0.0830    1.2580 cg        1 BZQ     -0.117200
     10 C10        -1.4290   -0.0040    2.4480 c1        1 BZQ     -0.028000
     11 C11        -1.6200   -1.1420    3.2170 c1        1 BZQ     -0.061875
     12 C12        -1.1050   -2.3580    2.7960 c1        1 BZQ     -0.061875
     13 C13        -0.3990   -2.4360    1.6060 c1        1 BZQ     -0.061875
     14 O          -0.9390    2.2300    0.8030 o         1 BZQ     -0.529100
     15 H1         -0.1980    0.7720   -4.1030 ha        1 BZQ      0.080875
     16 H2          2.1410    1.1020   -4.1210 ha        1 BZQ      0.080875
     17 H3          3.3050    1.4170   -2.0910 ha        1 BZQ      0.080875
     18 H4          2.1310    1.4020   -0.0410 ha        1 BZQ      0.089000
     19 H6         -1.3730    0.7570   -2.0540 ha        1 BZQ      0.080875
     20 H8          0.2900   -1.3550   -0.0010 ha        1 BZQ      0.080875
     21 H10        -1.7920    0.8520    2.7440 ha        1 BZQ      0.089000
     22 H11        -2.1180   -1.0860    4.0550 ha        1 BZQ      0.080875
     23 H12        -1.2400   -3.1590    3.3370 ha        1 BZQ      0.080875
     24 H13        -0.0360   -3.2930    1.3090 ha        1 BZQ      0.080875
@<TRIPOS>BOND
     1    1    6 3   
     2    1   15 1   
     3    2    3 3   
     4    2   16 1   
     5    3   17 1   
     6    4    5 3   
     7    4   18 1   
     8    5    7 1   
     9    6   19 1   
    10    7    9 1   
    11    7   14 2   
    12    8   13 3   
    13    8   20 1   
    14    9   10 3   
    15   10   21 1   
    16   11   12 3   
    17   11   22 1   
    18   12   23 1   
    19   13   24 1   
@<TRIPOS>SUBSTRUCTURE
     1 BZQ         1 TEMP              0 ****  ****    0 ROOT
