@<TRIPOS>MOLECULE
BZR
   37    40     1     0     0
SMALL
bcc


@<TRIPOS>ATOM
      1 C4C         1.3340    1.5740   -0.1220 c3        1 BZR     -0.073100
      2 C9C         2.8400    1.7860    0.0220 c3        1 BZR      0.143100
      3 O3          3.2240    1.8440    1.3890 oh        1 BZR     -0.585800
      4 C8B         3.5930    0.6170   -0.6240 c3        1 BZR      0.160100
      5 O2          4.9780    0.8940   -0.5610 oh        1 BZR     -0.589800
      6 C3B         3.2310   -0.6740    0.1310 c3        1 BZR      0.149400
      7 O1          3.9700   -1.7060   -0.5100 oh        1 BZR     -0.604800
      8 C3A         1.7470   -0.8970    0.0970 ca        1 BZR     -0.095300
      9 C2A         1.2520   -2.2320    0.2100 ca        1 BZR     -0.116000
     10 C4A         0.8730    0.1620   -0.0000 ca        1 BZR     -0.048300
     11 C1A        -0.0850   -2.4850    0.2230 ca        1 BZR     -0.115000
     12 C5A        -1.4820    0.9630   -0.1220 ca        1 BZR     -0.113000
     13 C4B        -0.5500   -0.0750   -0.0020 ca        1 BZR     -0.025000
     14 C6A        -3.8160    1.7730   -0.2380 ca        1 BZR     -0.120000
     15 C7A        -5.1550    1.5090   -0.2300 ca        1 BZR     -0.124000
     16 C8A        -5.6270    0.1700   -0.1010 ca        1 BZR     -0.126000
     17 C5B        -2.8600    0.7130   -0.1170 ca        1 BZR     -0.031000
     18 C9B        -3.3330   -0.6270    0.0100 ca        1 BZR     -0.034000
     19 C11        -1.0310   -1.4160    0.1170 ca        1 BZR     -0.033000
     20 C9A        -4.7450   -0.8660    0.0150 ca        1 BZR     -0.117000
     21 C10        -2.4070   -1.6690    0.1240 ca        1 BZR     -0.104000
     22 H4C1        0.8190    2.1940    0.6630 hc        1 BZR      0.060700
     23 H4C2        1.0170    1.9630   -1.1290 hc        1 BZR      0.060700
     24 H9C         3.1400    2.7430   -0.4920 h1        1 BZR      0.053700
     25 H3          2.8740    2.6710    1.7390 ho        1 BZR      0.400000
     26 H8B         3.2810    0.5260   -1.7030 h1        1 BZR      0.055700
     27 HO2         5.4330    0.0680   -0.7780 ho        1 BZR      0.420000
     28 H3B         3.5640   -0.5750    1.2060 h1        1 BZR      0.079700
     29 H1          3.9520   -2.4730    0.0720 ho        1 BZR      0.408000
     30 H2A         1.9750   -3.0600    0.2800 ha        1 BZR      0.128000
     31 H1A        -0.4700   -3.5130    0.3110 ha        1 BZR      0.134000
     32 H5A        -1.1410    2.0050   -0.2270 ha        1 BZR      0.133000
     33 H6A        -3.4400    2.8030   -0.3370 ha        1 BZR      0.132000
     34 H7A        -5.8930    2.3200   -0.3220 ha        1 BZR      0.133000
     35 H8A        -6.7130   -0.0080   -0.0980 ha        1 BZR      0.133000
     36 H9A        -5.0960   -1.9040    0.1140 ha        1 BZR      0.133000
     37 H10        -2.7650   -2.7060    0.2180 ha        1 BZR      0.135000
@<TRIPOS>BOND
     1    1    2 1   
     2    1   10 1   
     3    1   22 1   
     4    1   23 1   
     5    2    3 1   
     6    2    4 1   
     7    2   24 1   
     8    3   25 1   
     9    4    5 1   
    10    4    6 1   
    11    4   26 1   
    12    5   27 1   
    13    6    7 1   
    14    6    8 1   
    15    6   28 1   
    16    7   29 1   
    17    8    9 ar  
    18    8   10 ar  
    19    9   11 ar  
    20    9   30 1   
    21   10   13 ar  
    22   11   19 ar  
    23   11   31 1   
    24   12   13 ar  
    25   12   17 ar  
    26   12   32 1   
    27   13   19 ar  
    28   14   15 ar  
    29   14   17 ar  
    30   14   33 1   
    31   15   16 ar  
    32   15   34 1   
    33   16   20 ar  
    34   16   35 1   
    35   17   18 ar  
    36   18   20 ar  
    37   18   21 ar  
    38   19   21 ar  
    39   20   36 1   
    40   21   37 1   
@<TRIPOS>SUBSTRUCTURE
     1 BZR         1 TEMP              0 ****  ****    0 ROOT
