@<TRIPOS>MOLECULE
BZR
   37    35     1     0     0
SMALL
bcc


@<TRIPOS>ATOM
      1 C4C         1.5400   -0.9880   -1.0560 c3        1 BZR     -0.127000
      2 C9C         2.9870   -0.9880   -1.0560 c3        1 BZR      0.012000
      3 O3          3.4470    0.2320   -1.8030 oh        1 BZR     -0.326000
      4 C8B         3.6590   -0.9880    0.2760 c3        1 BZR     -0.046000
      5 O2          5.1380   -0.8400    0.0450 oh        1 BZR     -0.341000
      6 C3B         3.2520    0.0380    1.2120 c3        1 BZR      0.081000
      7 O1          3.5730   -0.4180    2.5370 oh        1 BZR     -0.323000
      8 C3A         1.6890    0.4530    1.1920 c2        1 BZR     -0.068000
      9 C2A         1.1760    1.4130    2.0300 c2        1 BZR     -0.096000
     10 C4A         0.8180   -0.1380    0.1110 c2        1 BZR     -0.048000
     11 C1A        -0.2040    1.7420    1.9740 c1        1 BZR     -0.127000
     12 C5A        -1.4200   -0.5780   -0.7490 c1        1 BZR     -0.114500
     13 C4B        -0.5710    0.0750    0.1620 c1        1 BZR     -0.028000
     14 C6A        -3.6450   -0.8980   -1.7100 c1        1 BZR     -0.114500
     15 C7A        -4.9960   -0.5700   -1.7580 c1        1 BZR     -0.126000
     16 C8A        -5.5100    0.4070   -0.9030 c1        1 BZR     -0.126000
     17 C5B        -2.7950   -0.2450   -0.7990 c1        1 BZR     -0.034000
     18 C9B        -3.3060    0.7250    0.0500 c1        1 BZR     -0.033000
     19 C11        -1.0880    1.0560    1.0200 c1        1 BZR     -0.028000
     20 C9A        -4.6710    1.0550   -0.0010 c1        1 BZR     -0.117000
     21 C10        -2.4510    1.3840    0.9690 c2        1 BZR     -0.107000
     22 H4C1        1.2380   -0.6360   -1.9150 hc        1 BZR      0.110500
     23 H4C2        1.2380   -1.9140   -0.9850 hc        1 BZR      0.110500
     24 H9C         3.2890   -1.7770   -1.5470 h1        1 BZR      0.073000
     25 H3          3.6850    0.0020   -2.6270 ho        1 BZR      0.214000
     26 H8B         3.5020   -1.8570    0.6930 h1        1 BZR      0.108000
     27 HO2         5.5500   -1.5930    0.2700 ho        1 BZR      0.211000
     28 H3B         3.7790    0.8390    1.0290 h1        1 BZR      0.105000
     29 H1          4.1400    0.1500    2.9160 ho        1 BZR      0.218000
     30 H2A         1.7640    1.8800    2.6550 ha        1 BZR      0.155000
     31 H1A        -0.5670    2.4240    2.5710 ha        1 BZR      0.135000
     32 H5A        -1.0670   -1.2810   -1.3270 ha        1 BZR      0.132000
     33 H6A        -3.2860   -1.5810   -2.3080 ha        1 BZR      0.132000
     34 H7A        -5.5850   -1.0240   -2.3910 ha        1 BZR      0.132000
     35 H8A        -6.4580    0.6370   -0.9380 ha        1 BZR      0.132000
     36 H9A        -5.0300    1.7380    0.5970 ha        1 BZR      0.133000
     37 H10        -2.8110    2.0670    1.5670 ha        1 BZR      0.135000
@<TRIPOS>BOND
     1    1    2 1   
     2    1   10 1   
     3    1   22 1   
     4    1   23 1   
     5    2    3 1   
     6    2    4 1   
     7    2   24 1   
     8    3   25 1   
     9    4    5 1   
    10    4    6 1   
    11    4   26 1   
    12    5   27 1   
    13    6    7 1   
    14    6    8 1   
    15    6   28 1   
    16    7   29 1   
    17    8    9 1   
    18    8   10 1   
    19    9   11 1   
    20    9   30 1   
    21   10   13 1   
    22   11   31 1   
    23   12   17 1   
    24   12   32 1   
    25   13   19 1   
    26   14   17 1   
    27   14   33 1   
    28   15   16 1   
    29   15   34 1   
    30   16   35 1   
    31   18   20 1   
    32   18   21 1   
    33   19   21 1   
    34   20   36 1   
    35   21   37 1   
@<TRIPOS>SUBSTRUCTURE
     1 BZR         1 TEMP              0 ****  ****    0 ROOT
