@<TRIPOS>MOLECULE
BZR
   37    40     1     0     0
SMALL
bcc


@<TRIPOS>ATOM
      1 C4C         0.0580    0.0830    0.0100 c3        1 BZR     -0.065100
      2 C9C         1.5410   -0.2220    0.1850 c3        1 BZR      0.113100
      3 O3          2.3720    0.6210   -0.6060 oh        1 BZR     -0.612800
      4 C8B         1.9950   -0.0200    1.6350 c3        1 BZR      0.116100
      5 O2          3.3730   -0.2920    1.7950 oh        1 BZR     -0.600800
      6 C3B         1.6910    1.4220    2.0750 c3        1 BZR      0.160400
      7 O1          2.0440    1.6110    3.4390 oh        1 BZR     -0.598800
      8 C3A         0.2390    1.7420    1.8890 ca        1 BZR     -0.061300
      9 C2A        -0.3450    2.7310    2.7390 ca        1 BZR     -0.098000
     10 C4A        -0.5020    1.1350    0.9040 ca        1 BZR     -0.068300
     11 C1A        -1.6470    3.0970    2.5830 ca        1 BZR     -0.125000
     12 C5A        -2.6910    0.9090   -0.2620 ca        1 BZR     -0.116000
     13 C4B        -1.8850    1.5000    0.7190 ca        1 BZR     -0.025000
     14 C6A        -4.8590    0.6780   -1.4320 ca        1 BZR     -0.120000
     15 C7A        -6.1620    1.0550   -1.5780 ca        1 BZR     -0.125000
     16 C8A        -6.7250    2.0550   -0.7330 ca        1 BZR     -0.127000
     17 C5B        -4.0310    1.2790   -0.4280 ca        1 BZR     -0.032000
     18 C9B        -4.5960    2.2800    0.4180 ca        1 BZR     -0.035000
     19 C11        -2.4580    2.4970    1.5680 ca        1 BZR     -0.030000
     20 C9A        -5.9670    2.6490    0.2350 ca        1 BZR     -0.116000
     21 C10        -3.7960    2.8700    1.4030 ca        1 BZR     -0.104000
     22 H4C1       -0.5160   -0.8680    0.1890 hc        1 BZR      0.060700
     23 H4C2       -0.1160    0.3860   -1.0600 hc        1 BZR      0.060700
     24 H9C         1.7360   -1.2920   -0.1160 h1        1 BZR      0.049700
     25 H3          2.0630    0.5560   -1.5160 ho        1 BZR      0.412000
     26 H8B         1.4760   -0.7560    2.3090 h1        1 BZR      0.096700
     27 HO2         3.8490    0.2130    1.1210 ho        1 BZR      0.420000
     28 H3B         2.3050    2.1330    1.4440 h1        1 BZR      0.064700
     29 H1          2.8830    1.1470    3.5700 ho        1 BZR      0.419000
     30 H2A         0.2890    3.1760    3.5230 ha        1 BZR      0.157000
     31 H1A        -2.1050    3.8580    3.2330 ha        1 BZR      0.135000
     32 H5A        -2.2790    0.1320   -0.9240 ha        1 BZR      0.130000
     33 H6A        -4.4130   -0.0930   -2.0780 ha        1 BZR      0.130000
     34 H7A        -6.8010    0.5960   -2.3470 ha        1 BZR      0.132000
     35 H8A        -7.7790    2.3350   -0.8780 ha        1 BZR      0.133000
     36 H9A        -6.3890    3.4220    0.8940 ha        1 BZR      0.133000
     37 H10        -4.2280    3.6400    2.0610 ha        1 BZR      0.136000
@<TRIPOS>BOND
     1    1    2 1   
     2    1   10 1   
     3    1   22 1   
     4    1   23 1   
     5    2    3 1   
     6    2    4 1   
     7    2   24 1   
     8    3   25 1   
     9    4    5 1   
    10    4    6 1   
    11    4   26 1   
    12    5   27 1   
    13    6    7 1   
    14    6    8 1   
    15    6   28 1   
    16    7   29 1   
    17    8    9 ar  
    18    8   10 ar  
    19    9   11 ar  
    20    9   30 1   
    21   10   13 ar  
    22   11   19 ar  
    23   11   31 1   
    24   12   13 ar  
    25   12   17 ar  
    26   12   32 1   
    27   13   19 ar  
    28   14   15 ar  
    29   14   17 ar  
    30   14   33 1   
    31   15   16 ar  
    32   15   34 1   
    33   16   20 ar  
    34   16   35 1   
    35   17   18 ar  
    36   18   20 ar  
    37   18   21 ar  
    38   19   21 ar  
    39   20   36 1   
    40   21   37 1   
@<TRIPOS>SUBSTRUCTURE
     1 BZR         1 TEMP              0 ****  ****    0 ROOT
