@<TRIPOS>MOLECULE
BZR
   37    40     1     0     0
SMALL
bcc


@<TRIPOS>ATOM
      1 C4C         0.0450    0.1700   -0.0970 c3        1 BZR     -0.041100
      2 C9C         1.5140   -0.1880    0.0990 c3        1 BZR      0.123100
      3 O3          2.2680    0.5710   -0.8360 oh        1 BZR     -0.598800
      4 C8B         1.9840    0.0540    1.5380 c3        1 BZR      0.065100
      5 O2          3.3970   -0.1020    1.6190 oh        1 BZR     -0.613800
      6 C3B         1.6980    1.5080    1.9520 c3        1 BZR      0.199400
      7 O1          2.0950    1.7190    3.2990 oh        1 BZR     -0.595800
      8 C3A         0.2360    1.8010    1.8100 ca        1 BZR     -0.075300
      9 C2A        -0.3490    2.7600    2.6920 ca        1 BZR     -0.096000
     10 C4A        -0.5130    1.1910    0.8330 ca        1 BZR     -0.055300
     11 C1A        -1.6640    3.0950    2.5770 ca        1 BZR     -0.127000
     12 C5A        -2.7170    0.9580   -0.3040 ca        1 BZR     -0.111000
     13 C4B        -1.9080    1.5340    0.6820 ca        1 BZR     -0.028000
     14 C6A        -4.9000    0.7140   -1.4410 ca        1 BZR     -0.118000
     15 C7A        -6.2150    1.0620   -1.5500 ca        1 BZR     -0.126000
     16 C8A        -6.7860    2.0190   -0.6600 ca        1 BZR     -0.126000
     17 C5B        -4.0680    1.3010   -0.4330 ca        1 BZR     -0.034000
     18 C9B        -4.6400    2.2600    0.4570 ca        1 BZR     -0.033000
     19 C11        -2.4850    2.4960    1.5680 ca        1 BZR     -0.028000
     20 C9A        -6.0240    2.6000    0.3120 ca        1 BZR     -0.117000
     21 C10        -3.8340    2.8410    1.4420 ca        1 BZR     -0.107000
     22 H4C1       -0.0770    0.5390   -1.1550 hc        1 BZR      0.071200
     23 H4C2       -0.5560   -0.7740    0.0100 hc        1 BZR      0.071200
     24 H9C         1.6660   -1.2790   -0.1500 h1        1 BZR      0.033700
     25 H3          3.1740    0.6230   -0.5020 ho        1 BZR      0.415000
     26 H8B         1.4710   -0.6560    2.2410 h1        1 BZR      0.068700
     27 HO2         3.5810   -1.0460    1.5430 ho        1 BZR      0.412000
     28 H3B         2.2840    2.1990    1.2770 h1        1 BZR      0.065700
     29 H1          3.0290    1.4710    3.3440 ho        1 BZR      0.419000
     30 H2A         0.2940    3.2080    3.4670 ha        1 BZR      0.155000
     31 H1A        -2.1240    3.8300    3.2540 ha        1 BZR      0.135000
     32 H5A        -2.2970    0.2180   -1.0040 ha        1 BZR      0.133000
     33 H6A        -4.4480   -0.0220   -2.1230 ha        1 BZR      0.131000
     34 H7A        -6.8570    0.6140   -2.3230 ha        1 BZR      0.132000
     35 H8A        -7.8490    2.2770   -0.7750 ha        1 BZR      0.132000
     36 H9A        -6.4510    3.3400    1.0050 ha        1 BZR      0.133000
     37 H10        -4.2700    3.5820    2.1300 ha        1 BZR      0.135000
@<TRIPOS>BOND
     1    1    2 1   
     2    1   10 1   
     3    1   22 1   
     4    1   23 1   
     5    2    3 1   
     6    2    4 1   
     7    2   24 1   
     8    3   25 1   
     9    4    5 1   
    10    4    6 1   
    11    4   26 1   
    12    5   27 1   
    13    6    7 1   
    14    6    8 1   
    15    6   28 1   
    16    7   29 1   
    17    8    9 ar  
    18    8   10 ar  
    19    9   11 ar  
    20    9   30 1   
    21   10   13 ar  
    22   11   19 ar  
    23   11   31 1   
    24   12   13 ar  
    25   12   17 ar  
    26   12   32 1   
    27   13   19 ar  
    28   14   15 ar  
    29   14   17 ar  
    30   14   33 1   
    31   15   16 ar  
    32   15   34 1   
    33   16   20 ar  
    34   16   35 1   
    35   17   18 ar  
    36   18   20 ar  
    37   18   21 ar  
    38   19   21 ar  
    39   20   36 1   
    40   21   37 1   
@<TRIPOS>SUBSTRUCTURE
     1 BZR         1 TEMP              0 ****  ****    0 ROOT
