@<TRIPOS>MOLECULE
BZS
   25    25     1     0     0
SMALL
bcc


@<TRIPOS>ATOM
      1 C1          1.5750    0.4520    2.5530 c         1 BZS      0.898600
      2 C2          0.3290   -0.3940    2.2760 c3        1 BZS     -0.160400
      3 CA         -0.2210   -0.2720    0.8630 c3        1 BZS     -0.138700
      4 C          -1.5740   -1.0090    0.7610 c         1 BZS      0.900600
      5 CB          0.7900   -0.8140   -0.1410 c3        1 BZS     -0.061100
      6 CG          0.5930   -0.2990   -1.5240 ca        1 BZS     -0.013300
      7 CD1         1.5240    0.5700   -2.1080 ca        1 BZS     -0.135500
      8 CD2        -0.5190   -0.7100   -2.2790 ca        1 BZS     -0.135500
      9 CE1         1.3560    1.0090   -3.4210 ca        1 BZS     -0.156000
     10 CE2        -0.6820   -0.2690   -3.5880 ca        1 BZS     -0.156000
     11 CZ          0.2570    0.5890   -4.1670 ca        1 BZS     -0.182000
     12 O1          2.7160    0.0310    2.1760 o         1 BZS     -0.883300
     13 O2          1.4560    1.5370    3.2010 o         1 BZS     -0.883300
     14 O3         -1.6280   -2.1770    0.2580 o         1 BZS     -0.877300
     15 O4         -2.6200   -0.4180    1.1650 o         1 BZS     -0.877300
     16 H21         0.5820   -1.4670    2.4770 hc        1 BZS      0.027200
     17 H22        -0.4790   -0.0830    2.9890 hc        1 BZS      0.027200
     18 HA         -0.4120    0.8150    0.6520 hc        1 BZS      0.041700
     19 HB1         1.8270   -0.5620    0.2200 hc        1 BZS      0.074200
     20 HB2         0.6850   -1.9350   -0.1610 hc        1 BZS      0.074200
     21 HD1         2.3850    0.9120   -1.5140 ha        1 BZS      0.167500
     22 HD2        -1.2590   -1.3740   -1.7870 ha        1 BZS      0.167500
     23 HE1         2.0910    1.6930   -3.8660 ha        1 BZS      0.096500
     24 HE2        -1.5570   -0.5910   -4.1690 ha        1 BZS      0.096500
     25 HZ          0.1250    0.9350   -5.2000 ha        1 BZS      0.088000
@<TRIPOS>BOND
     1    1    2 1   
     2    1   12 1   
     3    1   13 1   
     4    2    3 1   
     5    2   16 1   
     6    2   17 1   
     7    3    4 1   
     8    3    5 1   
     9    3   18 1   
    10    4   14 1   
    11    4   15 1   
    12    5    6 1   
    13    5   19 1   
    14    5   20 1   
    15    6    7 ar  
    16    6    8 ar  
    17    7    9 ar  
    18    7   21 1   
    19    8   10 ar  
    20    8   22 1   
    21    9   11 ar  
    22    9   23 1   
    23   10   11 ar  
    24   10   24 1   
    25   11   25 1   
@<TRIPOS>SUBSTRUCTURE
     1 BZS         1 TEMP              0 ****  ****    0 ROOT
