@<TRIPOS>MOLECULE
BZS
   25    25     1     0     0
SMALL
bcc


@<TRIPOS>ATOM
      1 C1          0.7690   -1.1230    0.1060 c         1 BZS      0.898600
      2 C2          1.0770    0.3680    0.2800 c3        1 BZS     -0.160400
      3 CA          1.8260    0.7170    1.5570 c3        1 BZS     -0.138700
      4 C           1.9050    2.2500    1.7160 c         1 BZS      0.900600
      5 CB          3.2110    0.0810    1.5430 c3        1 BZS     -0.061100
      6 CG          3.8130   -0.0720    2.8950 ca        1 BZS     -0.013300
      7 CD1         3.9990   -1.3400    3.4610 ca        1 BZS     -0.135500
      8 CD2         4.2360    1.0600    3.6130 ca        1 BZS     -0.135500
      9 CE1         4.6070   -1.4770    4.7090 ca        1 BZS     -0.156000
     10 CE2         4.8420    0.9180    4.8570 ca        1 BZS     -0.156000
     11 CZ          5.0340   -0.3500    5.4090 ca        1 BZS     -0.182000
     12 O1          1.6760   -1.9040   -0.3270 o         1 BZS     -0.883300
     13 O2         -0.4030   -1.5460    0.3470 o         1 BZS     -0.883300
     14 O3          2.9690    2.8710    1.3910 o         1 BZS     -0.877300
     15 O4          0.9060    2.8650    2.1940 o         1 BZS     -0.877300
     16 H21         0.1100    0.9340    0.2820 hc        1 BZS      0.027200
     17 H22         1.6810    0.7060   -0.6000 hc        1 BZS      0.027200
     18 HA          1.2400    0.3170    2.4290 hc        1 BZS      0.041700
     19 HB1         3.8840    0.7420    0.9270 hc        1 BZS      0.074200
     20 HB2         3.1420   -0.9220    1.0360 hc        1 BZS      0.074200
     21 HD1         3.6510   -2.2290    2.9140 ha        1 BZS      0.167500
     22 HD2         4.0520    2.0560    3.1600 ha        1 BZS      0.167500
     23 HE1         4.7450   -2.4770    5.1430 ha        1 BZS      0.096500
     24 HE2         5.1650    1.8100    5.4120 ha        1 BZS      0.096500
     25 HZ          5.5130   -0.4580    6.3910 ha        1 BZS      0.088000
@<TRIPOS>BOND
     1    1    2 1   
     2    1   12 1   
     3    1   13 1   
     4    2    3 1   
     5    2   16 1   
     6    2   17 1   
     7    3    4 1   
     8    3    5 1   
     9    3   18 1   
    10    4   14 1   
    11    4   15 1   
    12    5    6 1   
    13    5   19 1   
    14    5   20 1   
    15    6    7 ar  
    16    6    8 ar  
    17    7    9 ar  
    18    7   21 1   
    19    8   10 ar  
    20    8   22 1   
    21    9   11 ar  
    22    9   23 1   
    23   10   11 ar  
    24   10   24 1   
    25   11   25 1   
@<TRIPOS>SUBSTRUCTURE
     1 BZS         1 TEMP              0 ****  ****    0 ROOT
