@<TRIPOS>MOLECULE
BZS
   25    22     1     0     0
SMALL
bcc


@<TRIPOS>ATOM
      1 C1         -2.8370   -1.1600   -2.0050 c1        1 BZS      0.317000
      2 C2         -1.3480   -0.9090   -2.1060 c2        1 BZS     -0.189000
      3 CA         -0.9180    0.0230   -0.9950 c3        1 BZS     -0.129000
      4 C          -1.4760    1.4060   -1.2520 c2        1 BZS      0.322000
      5 CB          0.5920    0.0900   -0.9490 c3        1 BZS     -0.127000
      6 CG          1.0530    0.1200    0.4920 c2        1 BZS     -0.007000
      7 CD1         1.0960   -1.0530    1.2300 c1        1 BZS     -0.140000
      8 CD2         1.4940    1.3080    1.0540 c2        1 BZS     -0.126000
      9 CE1         1.5810   -1.0380    2.5280 c1        1 BZS     -0.171000
     10 CE2         1.9790    1.3230    2.3520 c1        1 BZS     -0.156000
     11 CZ          2.0220    0.1500    3.0890 c1        1 BZS     -0.171000
     12 O1         -3.2870   -1.9290   -1.1160 o         1 BZS     -0.619500
     13 O2         -3.6220   -0.6200   -2.8280 o         1 BZS     -0.619500
     14 O3         -1.1900    2.0120   -2.3180 o         1 BZS     -0.614500
     15 O4         -2.2440    1.9420   -0.4110 o         1 BZS     -0.614500
     16 H21        -0.8690   -1.7580   -2.0230 ha        1 BZS      0.068000
     17 H22        -1.1440   -0.5020   -2.9710 ha        1 BZS      0.068000
     18 HA         -1.2550   -0.3100   -0.1410 hc        1 BZS      0.089000
     19 HB1         0.9670   -0.6960   -1.3950 hc        1 BZS      0.099000
     20 HB2         0.8970    0.9000   -1.4050 hc        1 BZS      0.099000
     21 HD1         0.7850   -1.8900    0.8350 ha        1 BZS      0.148000
     22 HD2         1.4630    2.1340    0.5340 ha        1 BZS      0.196000
     23 HE1         1.6110   -1.8640    3.0480 ha        1 BZS      0.090000
     24 HE2         2.2850    2.1600    2.7490 ha        1 BZS      0.098000
     25 HZ          2.3630    0.1610    4.0040 ha        1 BZS      0.090000
@<TRIPOS>BOND
     1    1   12 1   
     2    1   13 1   
     3    2    3 1   
     4    2   16 1   
     5    2   17 1   
     6    3    4 1   
     7    3    5 1   
     8    3   18 1   
     9    4   14 1   
    10    4   15 1   
    11    5    6 1   
    12    5   19 1   
    13    5   20 1   
    14    6    7 1   
    15    6    8 1   
    16    7   21 1   
    17    8   10 1   
    18    8   22 1   
    19    9   11 1   
    20    9   23 1   
    21   10   24 1   
    22   11   25 1   
@<TRIPOS>SUBSTRUCTURE
     1 BZS         1 TEMP              0 ****  ****    0 ROOT
