@<TRIPOS>MOLECULE
BZS
   25    25     1     0     0
SMALL
bcc


@<TRIPOS>ATOM
      1 C1          0.7150   -1.1160    0.0830 c         1 BZS      0.897600
      2 C2          0.9850    0.3630    0.3680 c3        1 BZS     -0.160400
      3 CA          1.7660    0.6780    1.6320 c3        1 BZS     -0.139700
      4 C           1.8100    2.2040    1.8510 c         1 BZS      0.902600
      5 CB          3.1640    0.0790    1.5460 c3        1 BZS     -0.041100
      6 CG          3.8370   -0.0590    2.8660 ca        1 BZS     -0.014300
      7 CD1         3.9640   -1.3130    3.4780 ca        1 BZS     -0.133000
      8 CD2         4.3810    1.0680    3.5050 ca        1 BZS     -0.133000
      9 CE1         4.6450   -1.4440    4.6880 ca        1 BZS     -0.158000
     10 CE2         5.0590    0.9320    4.7130 ca        1 BZS     -0.158000
     11 CZ          5.2010   -0.3250    5.3050 ca        1 BZS     -0.182000
     12 O1          0.9780   -2.0180    0.9360 o         1 BZS     -0.884800
     13 O2          0.2090   -1.4090   -1.0490 o         1 BZS     -0.884800
     14 O3          2.8400    2.8690    1.5070 o         1 BZS     -0.879800
     15 O4          0.8120    2.7700    2.3910 o         1 BZS     -0.879800
     16 H21        -0.0080    0.8790    0.4340 hc        1 BZS      0.029200
     17 H22         1.5270    0.7890   -0.5160 hc        1 BZS      0.029200
     18 HA          1.2240    0.2150    2.5010 hc        1 BZS      0.049700
     19 HB1         3.0800   -0.9350    1.0640 hc        1 BZS      0.059700
     20 HB2         3.7880    0.7450    0.8890 hc        1 BZS      0.059700
     21 HD1         3.5010   -2.1900    2.9980 ha        1 BZS      0.172000
     22 HD2         4.2200    2.0570    3.0300 ha        1 BZS      0.172000
     23 HE1         4.7370   -2.4320    5.1590 ha        1 BZS      0.095500
     24 HE2         5.4780    1.8190    5.2070 ha        1 BZS      0.095500
     25 HZ          5.7380   -0.4290    6.2570 ha        1 BZS      0.087000
@<TRIPOS>BOND
     1    1    2 1   
     2    1   12 1   
     3    1   13 1   
     4    2    3 1   
     5    2   16 1   
     6    2   17 1   
     7    3    4 1   
     8    3    5 1   
     9    3   18 1   
    10    4   14 1   
    11    4   15 1   
    12    5    6 1   
    13    5   19 1   
    14    5   20 1   
    15    6    7 ar  
    16    6    8 ar  
    17    7    9 ar  
    18    7   21 1   
    19    8   10 ar  
    20    8   22 1   
    21    9   11 ar  
    22    9   23 1   
    23   10   11 ar  
    24   10   24 1   
    25   11   25 1   
@<TRIPOS>SUBSTRUCTURE
     1 BZS         1 TEMP              0 ****  ****    0 ROOT
