@<TRIPOS>MOLECULE
BZT
   73    78     1     0     0
SMALL
bcc


@<TRIPOS>ATOM
      1 C1          5.4710    0.6740    3.2200 ca        1 BZT      0.132100
      2 C2          5.3770    1.1290    1.9050 ca        1 BZT     -0.134000
      3 C3          4.3250    0.6550    1.1170 ca        1 BZT     -0.044100
      4 C4          3.3800   -0.2670    1.6480 ca        1 BZT     -0.107800
      5 C5          3.4950   -0.7040    2.9750 ca        1 BZT     -0.048000
      6 C6          4.5350   -0.2390    3.7600 ca        1 BZT     -0.209000
      7 S1          3.9660    1.0280   -0.4850 ss        1 BZT      0.036500
      8 C8          2.5960    0.0190   -0.5310 cc        1 BZT     -0.041600
      9 C9          2.3810   -0.6250    0.6650 cd        1 BZT     -0.052400
     10 C7          1.2890   -1.5850    0.9440 c3        1 BZT      0.020100
     11 C10         1.8100   -0.0920   -1.7420 ca        1 BZT     -0.073800
     12 C12         1.0610    1.0030   -2.2040 ca        1 BZT     -0.080500
     13 C14         0.3090    0.9090   -3.3660 ca        1 BZT     -0.184500
     14 C16         0.2990   -0.3020   -4.0860 ca        1 BZT      0.137100
     15 C18         1.0370   -1.4030   -3.6350 ca        1 BZT     -0.184500
     16 C20         1.7860   -1.2910   -2.4660 ca        1 BZT     -0.080500
     17 O2         -0.4790   -0.2900   -5.2240 os        1 BZT     -0.336900
     18 C24        -0.5140   -1.5110   -5.9770 c3        1 BZT      0.124400
     19 C11        -0.6020    0.0570    1.0970 ca        1 BZT     -0.110000
     20 C13         0.1470   -0.9720    1.6820 ca        1 BZT     -0.070300
     21 C15        -0.2030   -1.4340    2.9520 ca        1 BZT     -0.112000
     22 C32        -1.2910   -0.8820    3.6380 ca        1 BZT     -0.000900
     23 C19        -2.0420    0.1450    3.0520 ca        1 BZT     -0.053300
     24 C21        -1.6830    0.6040    1.7780 ca        1 BZT     -0.128000
     25 BR1        -1.6770   -1.5610    5.3450 br        1 BZT     -0.084100
     26 C31        -3.2010    0.7980    3.7520 c3        1 BZT      0.204100
     27 C17        -6.3890    0.2470    2.3530 c3        1 BZT     -0.097900
     28 C23        -6.7240    0.7800    3.7400 c3        1 BZT     -0.097900
     29 C26        -5.4710    0.5450    4.5990 c3        1 BZT      0.154300
     30 N2         -4.4020   -0.0250    3.7720 n3        1 BZT     -0.707600
     31 C27        -4.9610   -0.3130    2.4480 c3        1 BZT      0.154300
     32 C22        -1.6540   -0.7370   -9.5280 c3        1 BZT      0.152800
     33 N3         -0.7830   -0.7710   -8.3500 n3        1 BZT     -0.723600
     34 C28        -0.1590    0.5480   -8.2090 c3        1 BZT      0.152800
     35 C29        -0.7740    1.5230   -9.2260 c3        1 BZT     -0.096400
     36 C30        -1.7110    0.6920  -10.0920 c3        1 BZT     -0.096400
     37 C34        -1.4590   -1.2500   -7.1570 c3        1 BZT      0.163800
     38 O1          6.5220    1.1620    3.9640 oh        1 BZT     -0.497100
     39 H2          6.1170    1.8390    1.5110 ha        1 BZT      0.156000
     40 H5          2.7530   -1.4070    3.3830 ha        1 BZT      0.140000
     41 H6          4.6380   -0.5710    4.8030 ha        1 BZT      0.135000
     42 H71         0.9040   -1.9970   -0.0330 hc        1 BZT      0.062200
     43 H72         1.7050   -2.4500    1.5310 hc        1 BZT      0.062200
     44 H12         1.0710    1.9470   -1.6360 ha        1 BZT      0.141000
     45 H14        -0.2770    1.7610   -3.7350 ha        1 BZT      0.145500
     46 H18         1.0380   -2.3520   -4.1890 ha        1 BZT      0.145500
     47 H20         2.3700   -2.1540   -2.1100 ha        1 BZT      0.141000
     48 H241        0.5220   -1.7810   -6.3070 h1        1 BZT      0.051200
     49 H242       -0.9360   -2.3270   -5.3330 h1        1 BZT      0.051200
     50 H11        -0.3230    0.4290    0.0980 ha        1 BZT      0.145000
     51 H15         0.3850   -2.2430    3.4140 ha        1 BZT      0.141000
     52 H21        -2.2680    1.4120    1.3100 ha        1 BZT      0.135000
     53 H311       -2.9110    0.9960    4.8250 h1        1 BZT      0.043700
     54 H312       -3.3860    1.8040    3.2670 h1        1 BZT      0.043700
     55 H171       -7.1020   -0.5560    2.0460 hc        1 BZT      0.045950
     56 H172       -6.4430    1.0590    1.5880 hc        1 BZT      0.045950
     57 H231       -7.6000    0.2420    4.1780 hc        1 BZT      0.045950
     58 H232       -6.9760    1.8670    3.7020 hc        1 BZT      0.045950
     59 H261       -5.6880   -0.2090    5.4040 h1        1 BZT      0.047950
     60 H262       -5.1590    1.5010    5.1000 h1        1 BZT      0.047950
     61 H271       -4.3190    0.1000    1.6230 h1        1 BZT      0.047950
     62 H272       -4.9780   -1.4320    2.3420 h1        1 BZT      0.047950
     63 H222       -2.6920   -1.1060   -9.3030 h1        1 BZT      0.050450
     64 H281       -0.2590    0.9500   -7.1640 h1        1 BZT      0.050450
     65 H282        0.9360    0.4110   -8.4230 h1        1 BZT      0.050450
     66 H291        0.0280    2.0010   -9.8410 hc        1 BZT      0.046950
     67 H292       -1.3300    2.3370   -8.7010 hc        1 BZT      0.046950
     68 H301       -1.3860    0.7000  -11.1610 hc        1 BZT      0.046950
     69 H302       -2.7540    1.0890  -10.0500 hc        1 BZT      0.046950
     70 H341       -1.9380   -2.2370   -7.4170 h1        1 BZT      0.047200
     71 H342       -2.2720   -0.5490   -6.8050 h1        1 BZT      0.047200
     72 HO1         6.4620    0.7780    4.8510 ho        1 BZT      0.420000
     73 H221       -1.2000   -1.4340  -10.2850 h1        1 BZT      0.050450
@<TRIPOS>BOND
     1    1    2 ar  
     2    1    6 ar  
     3    1   38 1   
     4    2    3 ar  
     5    2   39 1   
     6    3    4 ar  
     7    3    7 1   
     8    4    5 ar  
     9    4    9 1   
    10    5    6 ar  
    11    5   40 1   
    12    6   41 1   
    13    7    8 1   
    14    8    9 2   
    15    8   11 1   
    16    9   10 1   
    17   10   20 1   
    18   10   42 1   
    19   10   43 1   
    20   11   12 ar  
    21   11   16 ar  
    22   12   13 ar  
    23   12   44 1   
    24   13   14 ar  
    25   13   45 1   
    26   14   15 ar  
    27   14   17 1   
    28   15   16 ar  
    29   15   46 1   
    30   16   47 1   
    31   17   18 1   
    32   18   37 1   
    33   18   48 1   
    34   18   49 1   
    35   19   20 ar  
    36   19   24 ar  
    37   19   50 1   
    38   20   21 ar  
    39   21   22 ar  
    40   21   51 1   
    41   22   23 ar  
    42   22   25 1   
    43   23   24 ar  
    44   23   26 1   
    45   24   52 1   
    46   26   30 1   
    47   26   53 1   
    48   26   54 1   
    49   27   28 1   
    50   27   31 1   
    51   27   55 1   
    52   27   56 1   
    53   28   29 1   
    54   28   57 1   
    55   28   58 1   
    56   29   30 1   
    57   29   59 1   
    58   29   60 1   
    59   30   31 1   
    60   31   61 1   
    61   31   62 1   
    62   32   33 1   
    63   32   36 1   
    64   32   63 1   
    65   32   73 1   
    66   33   34 1   
    67   33   37 1   
    68   34   35 1   
    69   34   64 1   
    70   34   65 1   
    71   35   36 1   
    72   35   66 1   
    73   35   67 1   
    74   36   68 1   
    75   36   69 1   
    76   37   70 1   
    77   37   71 1   
    78   38   72 1   
@<TRIPOS>SUBSTRUCTURE
     1 BZT         1 TEMP              0 ****  ****    0 ROOT
