@<TRIPOS>MOLECULE
BZT
   73    66     1     0     0
SMALL
bcc


@<TRIPOS>ATOM
      1 C1         -3.3930    1.4330   -5.2540 c1        1 BZT      0.092000
      2 C2         -1.9830    1.3220   -5.1330 c1        1 BZT     -0.124500
      3 C3         -1.3960    1.2110   -3.8700 c1        1 BZT     -0.180500
      4 C4         -2.2220    1.2080   -2.6900 c1        1 BZT     -0.180500
      5 C5         -3.6080    1.3180   -2.8120 c1        1 BZT     -0.124500
      6 C6         -4.2020    1.4320   -4.1040 c1        1 BZT     -0.155000
      7 S1          0.1030    1.0910   -3.4150 s         1 BZT      0.499000
      8 C8          0.1190    1.0170   -1.8590 c2        1 BZT     -0.292000
      9 C9         -1.2560    1.0840   -1.3960 c1        1 BZT     -0.059000
     10 C7         -1.6740    1.2120    0.0910 c2        1 BZT     -0.070000
     11 C10         1.4880    1.2290   -1.7320 c1        1 BZT     -0.064000
     12 C12         1.9480    2.3550   -1.0590 c1        1 BZT     -0.128250
     13 C14         3.3010    2.4680   -0.7280 c1        1 BZT     -0.128250
     14 C16         4.1880    1.4540   -1.0710 c1        1 BZT      0.089000
     15 C18         3.7270    0.3240   -1.7460 c1        1 BZT     -0.159000
     16 C20         2.3770    0.2120   -2.0760 c1        1 BZT     -0.086000
     17 O2          5.6380    1.6280   -0.8300 os        1 BZT     -0.211000
     18 C24         6.0880    1.1460    0.4830 c3        1 BZT     -0.024000
     19 C11        -2.8960   -0.1860    1.8000 c1        1 BZT     -0.128250
     20 C13        -2.6110    0.0740    0.4590 c1        1 BZT     -0.064000
     21 C15        -3.2260   -0.6790   -0.5450 c1        1 BZT     -0.100000
     22 C32        -4.1230   -1.6900   -0.2060 c1        1 BZT     -0.159000
     23 C19        -4.4100   -1.9510    1.1360 c1        1 BZT     -0.049000
     24 C21        -3.7980   -1.2010    2.1390 c1        1 BZT     -0.128250
     25 BR1        -5.0330   -2.6570   -1.5810 br        1 BZT      0.042000
     26 C31        -5.3580   -3.0950    1.5050 c3        1 BZT     -0.048000
     27 C17        -8.8770   -2.6610    1.5210 c3        1 BZT     -0.176000
     28 C23        -8.6650   -3.3290    2.8740 c3        1 BZT     -0.176000
     29 C26        -7.3560   -3.6130    2.9190 c3        1 BZT     -0.084000
     30 N2         -6.6290   -2.5440    1.9790 n3        1 BZT     -0.240000
     31 C27        -7.4230   -2.3520    0.9690 c3        1 BZT     -0.084000
     32 C22         8.6690    0.2160    2.5780 c3        1 BZT     -0.079000
     33 N3          7.9940    1.5280    1.9510 n3        1 BZT     -0.251000
     34 C28         8.9120    2.4620    1.9890 c3        1 BZT     -0.079000
     35 C29        10.2950    1.6890    1.9340 c3        1 BZT     -0.172000
     36 C30         9.9530    0.2170    2.1660 c3        1 BZT     -0.172000
     37 C34         7.6280    1.2730    0.5840 c3        1 BZT     -0.104000
     38 O1         -4.1640    0.8980   -6.3640 oh        1 BZT     -0.250000
     39 H2         -1.3990    1.3220   -5.9660 ha        1 BZT      0.139500
     40 H5         -4.1830    1.3170   -1.9970 ha        1 BZT      0.139500
     41 H6         -5.1870    1.5100   -4.1920 ha        1 BZT      0.152000
     42 H71        -2.1250    2.0600    0.2280 ha        1 BZT      0.101500
     43 H72        -0.8640    1.1710    0.6680 ha        1 BZT      0.101500
     44 H12         1.3250    3.0700   -0.8180 ha        1 BZT      0.142500
     45 H14         3.6250    3.2640   -0.2520 ha        1 BZT      0.142500
     46 H18         4.3490   -0.3870   -1.9870 ha        1 BZT      0.152000
     47 H20         2.0530   -0.5810   -2.5500 ha        1 BZT      0.144000
     48 H241        5.8300    0.2020    0.5930 h1        1 BZT      0.104500
     49 H242        5.6730    1.6830    1.1860 h1        1 BZT      0.104500
     50 H11        -2.4650    0.3420    2.5040 ha        1 BZT      0.142500
     51 H15        -3.0270   -0.4970   -1.4880 ha        1 BZT      0.155000
     52 H21        -3.9950   -1.3810    3.0610 ha        1 BZT      0.142500
     53 H311       -5.5190   -3.6550    0.7140 h1        1 BZT      0.088500
     54 H312       -4.9540   -3.6360    2.2090 h1        1 BZT      0.088500
     55 H171       -9.3560   -3.2760    0.9030 hc        1 BZT      0.086000
     56 H172       -9.3800   -1.8290    1.6310 hc        1 BZT      0.086000
     57 H231       -8.9050   -2.7180    3.5980 hc        1 BZT      0.086000
     58 H232       -9.1930   -4.1490    2.9320 hc        1 BZT      0.086000
     59 H261       -7.2000   -4.5140    2.5870 h1        1 BZT      0.088000
     60 H262       -7.0250   -3.5300    3.8350 h1        1 BZT      0.088000
     61 H271       -7.3670   -1.4150    0.6570 h1        1 BZT      0.088000
     62 H272       -7.1980   -2.9680    0.2390 h1        1 BZT      0.088000
     63 H221        8.6270    0.2520    3.5590 h1        1 BZT      0.083500
     64 H222        8.2090   -0.5910    2.2480 h1        1 BZT      0.083500
     65 H281        8.8460    2.9600    2.7990 h1        1 BZT      0.083500
     66 H282        8.8230    3.0490    1.2260 h1        1 BZT      0.083500
     67 H291       10.9100    2.0210    2.6600 hc        1 BZT      0.087500
     68 H292       10.7240    1.8090    1.0340 hc        1 BZT      0.087500
     69 H301       10.5460   -0.1670    2.8790 hc        1 BZT      0.087500
     70 H302       10.0460   -0.2870    1.3410 hc        1 BZT      0.087500
     71 H341        8.0520    0.4310    0.2800 h1        1 BZT      0.084000
     72 H342        7.9330    2.0170    0.0170 h1        1 BZT      0.084000
     73 HO1        -4.3540    1.5580   -6.9420 ho        1 BZT      0.219000
@<TRIPOS>BOND
     1    1    6 1   
     2    1   38 1   
     3    2    3 1   
     4    2   39 1   
     5    4    5 1   
     6    5   40 1   
     7    6   41 1   
     8    7    8 1   
     9    8    9 1   
    10    8   11 1   
    11   10   20 1   
    12   10   42 1   
    13   10   43 1   
    14   11   16 1   
    15   12   13 1   
    16   12   44 1   
    17   13   45 1   
    18   14   15 1   
    19   14   17 1   
    20   15   46 1   
    21   16   47 1   
    22   17   18 1   
    23   18   37 1   
    24   18   48 1   
    25   18   49 1   
    26   19   24 1   
    27   19   50 1   
    28   20   21 1   
    29   21   51 1   
    30   22   23 1   
    31   22   25 1   
    32   23   26 1   
    33   24   52 1   
    34   26   30 1   
    35   26   53 1   
    36   26   54 1   
    37   27   28 1   
    38   27   31 1   
    39   27   55 1   
    40   27   56 1   
    41   28   29 1   
    42   28   57 1   
    43   28   58 1   
    44   29   30 1   
    45   29   59 1   
    46   29   60 1   
    47   30   31 1   
    48   31   61 1   
    49   31   62 1   
    50   32   33 1   
    51   32   36 1   
    52   32   63 1   
    53   32   64 1   
    54   33   34 1   
    55   33   37 1   
    56   34   35 1   
    57   34   65 1   
    58   34   66 1   
    59   35   36 1   
    60   35   67 1   
    61   35   68 1   
    62   36   69 1   
    63   36   70 1   
    64   37   71 1   
    65   37   72 1   
    66   38   73 1   
@<TRIPOS>SUBSTRUCTURE
     1 BZT         1 TEMP              0 ****  ****    0 ROOT
