@<TRIPOS>MOLECULE
BZT
   73    78     1     0     0
SMALL
bcc


@<TRIPOS>ATOM
      1 C1          0.6590   -0.1840   -0.2660 ca        1 BZT      0.132100
      2 C2          2.0310   -0.0900   -0.0240 ca        1 BZT     -0.134000
      3 C3          2.4650   -0.0580    1.3030 ca        1 BZT     -0.044100
      4 C4          1.5300   -0.1180    2.3740 ca        1 BZT     -0.107800
      5 C5          0.1580   -0.2170    2.1030 ca        1 BZT     -0.048000
      6 C6         -0.2790   -0.2490    0.7910 ca        1 BZT     -0.209000
      7 S1          4.0410    0.0490    1.8870 ss        1 BZT      0.036500
      8 C8          3.5580    0.0200    3.5190 cc        1 BZT     -0.041600
      9 C9          2.1930   -0.0690    3.6580 cd        1 BZT     -0.052400
     10 C7          1.4570   -0.0930    4.9430 c3        1 BZT      0.020100
     11 C10         4.5460    0.0940    4.5750 ca        1 BZT     -0.073800
     12 C12         5.4410   -0.9690    4.7840 ca        1 BZT     -0.080500
     13 C14         6.3960   -0.9050    5.7890 ca        1 BZT     -0.184500
     14 C16         6.4620    0.2400    6.6080 ca        1 BZT      0.137100
     15 C18         5.5740    1.3050    6.4130 ca        1 BZT     -0.184500
     16 C20         4.6220    1.2230    5.3990 ca        1 BZT     -0.080500
     17 O2          7.4440    0.2020    7.5740 os        1 BZT     -0.336900
     18 C24         7.5340    1.3520    8.4270 c3        1 BZT      0.124400
     19 C11         2.0210   -2.4380    5.6360 ca        1 BZT     -0.110000
     20 C13         1.0510   -1.4680    5.3570 ca        1 BZT     -0.070300
     21 C15        -0.3000   -1.7930    5.4950 ca        1 BZT     -0.112000
     22 C32        -0.6870   -3.0730    5.9100 ca        1 BZT     -0.000900
     23 C19         0.2830   -4.0430    6.1910 ca        1 BZT     -0.053300
     24 C21         1.6370   -3.7080    6.0490 ca        1 BZT     -0.128000
     25 BR1        -2.5260   -3.4200    6.0550 br        1 BZT     -0.084100
     26 C31        -0.0710   -5.4420    6.6110 c3        1 BZT      0.204100
     27 C17         0.7860   -6.3570    9.9050 c3        1 BZT     -0.097900
     28 C23        -0.2000   -7.4460    9.5050 c3        1 BZT     -0.097900
     29 C26        -1.0220   -6.8680    8.3410 c3        1 BZT      0.154300
     30 N2         -0.5190   -5.5350    7.9930 n3        1 BZT     -0.707600
     31 C27         0.4940   -5.1620    8.9840 c3        1 BZT      0.154300
     32 C22        10.9910    1.4350   10.0250 c3        1 BZT      0.152800
     33 N3          9.9650    1.5280    8.9820 n3        1 BZT     -0.723600
     34 C28        10.4820    0.8710    7.7780 c3        1 BZT      0.152800
     35 C29        11.8170    0.1780    8.0980 c3        1 BZT     -0.096400
     36 C30        12.1580    0.5650    9.5300 c3        1 BZT     -0.096400
     37 C34         8.6640    1.0510    9.4200 c3        1 BZT      0.163800
     38 O1          0.2700   -0.2110   -1.5860 oh        1 BZT     -0.497100
     39 H2          2.7380   -0.0430   -0.8630 ha        1 BZT      0.156000
     40 H5         -0.5580   -0.2770    2.9360 ha        1 BZT      0.140000
     41 H6         -1.3510   -0.3280    0.5610 ha        1 BZT      0.135000
     42 H71         0.5490    0.5650    4.8550 hc        1 BZT      0.062200
     43 H72         2.1120    0.3440    5.7500 hc        1 BZT      0.062200
     44 H12         5.3840   -1.8620    4.1420 ha        1 BZT      0.141000
     45 H14         7.1010   -1.7310    5.9570 ha        1 BZT      0.145500
     46 H18         5.6160    2.2030    7.0450 ha        1 BZT      0.145500
     47 H20         3.9230    2.0600    5.2420 ha        1 BZT      0.141000
     48 H241        7.7340    2.2650    7.8100 h1        1 BZT      0.051200
     49 H242        6.5680    1.4700    8.9860 h1        1 BZT      0.051200
     50 H11         3.0880   -2.1860    5.5200 ha        1 BZT      0.145000
     51 H15        -1.0650   -1.0310    5.2760 ha        1 BZT      0.141000
     52 H21         2.4070   -4.4650    6.2670 ha        1 BZT      0.135000
     53 H311       -0.9140   -5.8120    5.9580 h1        1 BZT      0.043700
     54 H312        0.8220   -6.1090    6.4100 h1        1 BZT      0.043700
     55 H171        1.8400   -6.7040    9.7750 hc        1 BZT      0.045950
     56 H172        0.6550   -6.0650   10.9750 hc        1 BZT      0.045950
     57 H231        0.3330   -8.3740    9.1870 hc        1 BZT      0.045950
     58 H232       -0.8720   -7.7140   10.3570 hc        1 BZT      0.045950
     59 H261       -2.0940   -6.7350    8.6520 h1        1 BZT      0.047950
     60 H262       -1.0040   -7.5730    7.4660 h1        1 BZT      0.047950
     61 H271        1.4390   -4.7950    8.4990 h1        1 BZT      0.047950
     62 H272        0.0620   -4.3120    9.5810 h1        1 BZT      0.047950
     63 H222       10.5830    1.0240   10.9890 h1        1 BZT      0.050200
     64 H281       10.6430    1.6800    7.0130 h1        1 BZT      0.050200
     65 H282        9.7460    0.1350    7.3530 h1        1 BZT      0.050200
     66 H291       12.6100    0.5160    7.3880 hc        1 BZT      0.046950
     67 H292       11.7170   -0.9300    7.9950 hc        1 BZT      0.046950
     68 H301       13.1150    1.1380    9.5760 hc        1 BZT      0.046950
     69 H302       12.2730   -0.3410   10.1740 hc        1 BZT      0.046950
     70 H341        8.6560   -0.0580    9.6340 h1        1 BZT      0.047200
     71 H342        8.4140    1.5940   10.3750 h1        1 BZT      0.047200
     72 HO1        -0.6950   -0.2890   -1.6110 ho        1 BZT      0.420000
     73 H221       11.3460    2.4830   10.2220 h1        1 BZT      0.050200
@<TRIPOS>BOND
     1    1    2 ar  
     2    1    6 ar  
     3    1   38 1   
     4    2    3 ar  
     5    2   39 1   
     6    3    4 ar  
     7    3    7 1   
     8    4    5 ar  
     9    4    9 1   
    10    5    6 ar  
    11    5   40 1   
    12    6   41 1   
    13    7    8 1   
    14    8    9 2   
    15    8   11 1   
    16    9   10 1   
    17   10   20 1   
    18   10   42 1   
    19   10   43 1   
    20   11   12 ar  
    21   11   16 ar  
    22   12   13 ar  
    23   12   44 1   
    24   13   14 ar  
    25   13   45 1   
    26   14   15 ar  
    27   14   17 1   
    28   15   16 ar  
    29   15   46 1   
    30   16   47 1   
    31   17   18 1   
    32   18   37 1   
    33   18   48 1   
    34   18   49 1   
    35   19   20 ar  
    36   19   24 ar  
    37   19   50 1   
    38   20   21 ar  
    39   21   22 ar  
    40   21   51 1   
    41   22   23 ar  
    42   22   25 1   
    43   23   24 ar  
    44   23   26 1   
    45   24   52 1   
    46   26   30 1   
    47   26   53 1   
    48   26   54 1   
    49   27   28 1   
    50   27   31 1   
    51   27   55 1   
    52   27   56 1   
    53   28   29 1   
    54   28   57 1   
    55   28   58 1   
    56   29   30 1   
    57   29   59 1   
    58   29   60 1   
    59   30   31 1   
    60   31   61 1   
    61   31   62 1   
    62   32   33 1   
    63   32   36 1   
    64   32   63 1   
    65   32   73 1   
    66   33   34 1   
    67   33   37 1   
    68   34   35 1   
    69   34   64 1   
    70   34   65 1   
    71   35   36 1   
    72   35   66 1   
    73   35   67 1   
    74   36   68 1   
    75   36   69 1   
    76   37   70 1   
    77   37   71 1   
    78   38   72 1   
@<TRIPOS>SUBSTRUCTURE
     1 BZT         1 TEMP              0 ****  ****    0 ROOT
