@<TRIPOS>MOLECULE
BZT
   73    78     1     0     0
SMALL
bcc


@<TRIPOS>ATOM
      1 C1          0.6620   -0.1790   -0.2700 ca        1 BZT      0.132100
      2 C2          2.0330   -0.0870   -0.0290 ca        1 BZT     -0.134000
      3 C3          2.4680   -0.0550    1.2980 ca        1 BZT     -0.044100
      4 C4          1.5330   -0.1130    2.3690 ca        1 BZT     -0.107800
      5 C5          0.1610   -0.2090    2.0980 ca        1 BZT     -0.048000
      6 C6         -0.2770   -0.2410    0.7860 ca        1 BZT     -0.209000
      7 S1          4.0440    0.0480    1.8830 ss        1 BZT      0.036500
      8 C8          3.5610    0.0210    3.5140 cc        1 BZT     -0.041600
      9 C9          2.1950   -0.0650    3.6530 cd        1 BZT     -0.052400
     10 C7          1.4600   -0.0860    4.9380 c3        1 BZT      0.020100
     11 C10         4.5490    0.0920    4.5710 ca        1 BZT     -0.073800
     12 C12         5.4410   -0.9730    4.7800 ca        1 BZT     -0.080500
     13 C14         6.3950   -0.9110    5.7860 ca        1 BZT     -0.184500
     14 C16         6.4640    0.2340    6.6040 ca        1 BZT      0.137100
     15 C18         5.5790    1.3010    6.4090 ca        1 BZT     -0.184500
     16 C20         4.6270    1.2220    5.3940 ca        1 BZT     -0.080500
     17 O2          7.4460    0.1930    7.5710 os        1 BZT     -0.336900
     18 C24         7.5370    1.3430    8.4250 c3        1 BZT      0.124400
     19 C11         2.0200   -2.4320    5.6320 ca        1 BZT     -0.110000
     20 C13         1.0510   -1.4600    5.3540 ca        1 BZT     -0.070300
     21 C15        -0.3000   -1.7830    5.4940 ca        1 BZT     -0.112000
     22 C32        -0.6900   -3.0610    5.9110 ca        1 BZT     -0.000900
     23 C19         0.2790   -4.0320    6.1920 ca        1 BZT     -0.053300
     24 C21         1.6340   -3.7010    6.0480 ca        1 BZT     -0.128000
     25 Br1        -2.5290   -3.4040    6.0580 br        1 BZT     -0.084100
     26 C31        -0.0770   -5.4300    6.6140 c3        1 BZT      0.204100
     27 C17         0.7850   -6.3440    9.9070 c3        1 BZT     -0.097900
     28 C23        -0.2040   -7.4310    9.5100 c3        1 BZT     -0.097900
     29 C26        -1.0280   -6.8530    8.3470 c3        1 BZT      0.154300
     30 N2         -0.5230   -5.5210    7.9970 n3        1 BZT     -0.707600
     31 C27         0.4920   -5.1490    8.9850 c3        1 BZT      0.154300
     32 C22        10.9910    1.4140   10.0310 c3        1 BZT      0.152800
     33 N3          9.9680    1.5100    8.9850 n3        1 BZT     -0.723600
     34 C28        10.4850    0.8500    7.7830 c3        1 BZT      0.152800
     35 C29        11.8160    0.1520    8.1060 c3        1 BZT     -0.096400
     36 C30        12.1550    0.5390    9.5400 c3        1 BZT     -0.096400
     37 C34         8.6640    1.0380    9.4200 c3        1 BZT      0.163800
     38 O1          0.2730   -0.2060   -1.5910 oh        1 BZT     -0.497100
     39 H2          2.7410   -0.0430   -0.8680 ha        1 BZT      0.156000
     40 H5         -0.5560   -0.2660    2.9310 ha        1 BZT      0.140000
     41 H6         -1.3490   -0.3180    0.5560 ha        1 BZT      0.135000
     42 H71         2.1150    0.3510    5.7440 hc        1 BZT      0.062200
     43 H72         0.5520    0.5730    4.8500 hc        1 BZT      0.062200
     44 H12         5.3810   -1.8660    4.1390 ha        1 BZT      0.141000
     45 H14         7.0970   -1.7390    5.9550 ha        1 BZT      0.145500
     46 H18         5.6240    2.2000    7.0390 ha        1 BZT      0.145500
     47 H20         3.9310    2.0610    5.2360 ha        1 BZT      0.141000
     48 H241        6.5710    1.4640    8.9810 h1        1 BZT      0.051200
     49 H242        7.7420    2.2560    7.8090 h1        1 BZT      0.051200
     50 H11         3.0870   -2.1820    5.5150 ha        1 BZT      0.145000
     51 H15        -1.0640   -1.0190    5.2750 ha        1 BZT      0.141000
     52 H21         2.4020   -4.4590    6.2660 ha        1 BZT      0.135000
     53 H311        0.8130   -6.0990    6.4120 h1        1 BZT      0.043700
     54 H312       -0.9230   -5.8000    5.9630 h1        1 BZT      0.043700
     55 H171        0.6550   -6.0500   10.9770 hc        1 BZT      0.045950
     56 H172        1.8380   -6.6930    9.7750 hc        1 BZT      0.045950
     57 H231        0.3270   -8.3610    9.1910 hc        1 BZT      0.045950
     58 H232       -0.8740   -7.6980   10.3630 hc        1 BZT      0.045950
     59 H261       -1.0140   -7.5590    7.4730 h1        1 BZT      0.047950
     60 H262       -2.0990   -6.7160    8.6610 h1        1 BZT      0.047950
     61 H271        0.0640   -4.2980    9.5830 h1        1 BZT      0.047950
     62 H272        1.4380   -4.7840    8.4980 h1        1 BZT      0.047950
     63 H222       11.3490    2.4610   10.2280 h1        1 BZT      0.050450
     64 H281       10.6520    1.6580    7.0180 h1        1 BZT      0.050450
     65 H282        9.7470    0.1170    7.3560 h1        1 BZT      0.050450
     66 H291       11.7120   -0.9550    8.0040 hc        1 BZT      0.046950
     67 H292       12.6130    0.4860    7.3980 hc        1 BZT      0.046950
     68 H301       12.2650   -0.3670   10.1850 hc        1 BZT      0.046950
     69 H302       13.1150    1.1090    9.5870 hc        1 BZT      0.046950
     70 H341        8.6510   -0.0710    9.6350 h1        1 BZT      0.047200
     71 H342        8.4140    1.5820   10.3750 h1        1 BZT      0.047200
     72 HO1        -0.6920   -0.2810   -1.6150 ho        1 BZT      0.420000
     73 H221       10.5790    1.0060   10.9940 h1        1 BZT      0.050450
@<TRIPOS>BOND
     1    1    2 ar  
     2    1    6 ar  
     3    1   38 1   
     4    2    3 ar  
     5    2   39 1   
     6    3    4 ar  
     7    3    7 1   
     8    4    5 ar  
     9    4    9 1   
    10    5    6 ar  
    11    5   40 1   
    12    6   41 1   
    13    7    8 1   
    14    8    9 2   
    15    8   11 1   
    16    9   10 1   
    17   10   20 1   
    18   10   42 1   
    19   10   43 1   
    20   11   12 ar  
    21   11   16 ar  
    22   12   13 ar  
    23   12   44 1   
    24   13   14 ar  
    25   13   45 1   
    26   14   15 ar  
    27   14   17 1   
    28   15   16 ar  
    29   15   46 1   
    30   16   47 1   
    31   17   18 1   
    32   18   37 1   
    33   18   48 1   
    34   18   49 1   
    35   19   20 ar  
    36   19   24 ar  
    37   19   50 1   
    38   20   21 ar  
    39   21   22 ar  
    40   21   51 1   
    41   22   23 ar  
    42   22   25 1   
    43   23   24 ar  
    44   23   26 1   
    45   24   52 1   
    46   26   30 1   
    47   26   53 1   
    48   26   54 1   
    49   27   28 1   
    50   27   31 1   
    51   27   55 1   
    52   27   56 1   
    53   28   29 1   
    54   28   57 1   
    55   28   58 1   
    56   29   30 1   
    57   29   59 1   
    58   29   60 1   
    59   30   31 1   
    60   31   61 1   
    61   31   62 1   
    62   32   33 1   
    63   32   36 1   
    64   32   63 1   
    65   32   73 1   
    66   33   34 1   
    67   33   37 1   
    68   34   35 1   
    69   34   64 1   
    70   34   65 1   
    71   35   36 1   
    72   35   66 1   
    73   35   67 1   
    74   36   68 1   
    75   36   69 1   
    76   37   70 1   
    77   37   71 1   
    78   38   72 1   
@<TRIPOS>SUBSTRUCTURE
     1 BZT         1 TEMP              0 ****  ****    0 ROOT
