@<TRIPOS>MOLECULE
BZT
   73    78     1     0     0
SMALL
bcc


@<TRIPOS>ATOM
      1 C1          0.6580   -0.1800   -0.2670 ca        1 BZT      0.132100
      2 C2          2.0300   -0.0880   -0.0260 ca        1 BZT     -0.134000
      3 C3          2.4650   -0.0560    1.3000 ca        1 BZT     -0.044100
      4 C4          1.5300   -0.1140    2.3720 ca        1 BZT     -0.107800
      5 C5          0.1580   -0.2100    2.1010 ca        1 BZT     -0.048000
      6 C6         -0.2800   -0.2430    0.7900 ca        1 BZT     -0.209000
      7 S1          4.0410    0.0480    1.8840 ss        1 BZT      0.036500
      8 C8          3.5590    0.0210    3.5150 cc        1 BZT     -0.041600
      9 C9          2.1940   -0.0660    3.6560 cd        1 BZT     -0.052400
     10 C7          1.4590   -0.0870    4.9410 c3        1 BZT      0.020100
     11 C10         4.5470    0.0930    4.5720 ca        1 BZT     -0.073800
     12 C12         5.4390   -0.9720    4.7810 ca        1 BZT     -0.080500
     13 C14         6.3940   -0.9100    5.7860 ca        1 BZT     -0.184500
     14 C16         6.4640    0.2360    6.6040 ca        1 BZT      0.137100
     15 C18         5.5790    1.3030    6.4080 ca        1 BZT     -0.184500
     16 C20         4.6270    1.2230    5.3940 ca        1 BZT     -0.080500
     17 O2          7.4460    0.1960    7.5700 os        1 BZT     -0.336900
     18 C24         7.5390    1.3460    8.4220 c3        1 BZT      0.124400
     19 C11         2.0200   -2.4330    5.6350 ca        1 BZT     -0.110000
     20 C13         1.0510   -1.4610    5.3560 ca        1 BZT     -0.070300
     21 C15        -0.3000   -1.7840    5.4970 ca        1 BZT     -0.112000
     22 C32        -0.6890   -3.0630    5.9130 ca        1 BZT     -0.000900
     23 C19         0.2800   -4.0340    6.1940 ca        1 BZT     -0.053300
     24 C21         1.6340   -3.7020    6.0500 ca        1 BZT     -0.128000
     25 BR1        -2.5290   -3.4070    6.0600 br        1 BZT     -0.084100
     26 C31        -0.0760   -5.4320    6.6160 c3        1 BZT      0.204100
     27 C17         0.7840   -6.3460    9.9090 c3        1 BZT     -0.097900
     28 C23        -0.2040   -7.4330    9.5120 c3        1 BZT     -0.097900
     29 C26        -1.0270   -6.8550    8.3480 c3        1 BZT      0.154300
     30 N2         -0.5230   -5.5240    7.9990 n3        1 BZT     -0.707600
     31 C27         0.4920   -5.1510    8.9880 c3        1 BZT      0.154300
     32 C22        10.9950    1.4180   10.0240 c3        1 BZT      0.152800
     33 N3          9.9710    1.5130    8.9780 n3        1 BZT     -0.723600
     34 C28        10.4860    0.8510    7.7770 c3        1 BZT      0.152800
     35 C29        11.8180    0.1530    8.1000 c3        1 BZT     -0.096400
     36 C30        12.1590    0.5410    9.5320 c3        1 BZT     -0.096400
     37 C34         8.6680    1.0430    9.4160 c3        1 BZT      0.163800
     38 O1          0.2680   -0.2080   -1.5870 oh        1 BZT     -0.497100
     39 H2          2.7370   -0.0430   -0.8660 ha        1 BZT      0.156000
     40 H5         -0.5580   -0.2680    2.9350 ha        1 BZT      0.140000
     41 H6         -1.3520   -0.3200    0.5610 ha        1 BZT      0.135000
     42 H71         0.5510    0.5720    4.8530 hc        1 BZT      0.062200
     43 H72         2.1150    0.3500    5.7470 hc        1 BZT      0.062200
     44 H12         5.3800   -1.8660    4.1410 ha        1 BZT      0.141000
     45 H14         7.0970   -1.7380    5.9560 ha        1 BZT      0.145500
     46 H18         5.6250    2.2020    7.0380 ha        1 BZT      0.145500
     47 H20         3.9310    2.0620    5.2360 ha        1 BZT      0.141000
     48 H241        7.7440    2.2580    7.8040 h1        1 BZT      0.051200
     49 H242        6.5740    1.4690    8.9790 h1        1 BZT      0.051200
     50 H11         3.0870   -2.1820    5.5190 ha        1 BZT      0.145000
     51 H15        -1.0650   -1.0210    5.2770 ha        1 BZT      0.141000
     52 H21         2.4030   -4.4590    6.2690 ha        1 BZT      0.135000
     53 H311       -0.9210   -5.8020    5.9640 h1        1 BZT      0.043700
     54 H312        0.8150   -6.1010    6.4140 h1        1 BZT      0.043700
     55 H171        1.8380   -6.6940    9.7780 hc        1 BZT      0.045950
     56 H172        0.6540   -6.0520   10.9790 hc        1 BZT      0.045950
     57 H231        0.3270   -8.3630    9.1930 hc        1 BZT      0.045950
     58 H232       -0.8750   -7.7000   10.3650 hc        1 BZT      0.045950
     59 H261       -1.0120   -7.5610    7.4740 h1        1 BZT      0.047950
     60 H262       -2.0990   -6.7200    8.6610 h1        1 BZT      0.047950
     61 H271        0.0630   -4.3000    9.5850 h1        1 BZT      0.047950
     62 H272        1.4380   -4.7860    8.5020 h1        1 BZT      0.047950
     63 H222       10.5840    1.0130   10.9880 h1        1 BZT      0.050450
     64 H281        9.7480    0.1170    7.3520 h1        1 BZT      0.050450
     65 H282       10.6520    1.6570    7.0110 h1        1 BZT      0.050450
     66 H291       11.7130   -0.9550    8.0000 hc        1 BZT      0.046950
     67 H292       12.6130    0.4850    7.3910 hc        1 BZT      0.046950
     68 H301       13.1180    1.1110    9.5780 hc        1 BZT      0.046950
     69 H302       12.2680   -0.3630   10.1790 hc        1 BZT      0.046950
     70 H341        8.4180    1.5880   10.3710 h1        1 BZT      0.047200
     71 H342        8.6540   -0.0660    9.6330 h1        1 BZT      0.047200
     72 HO1        -0.6970   -0.2830   -1.6110 ho        1 BZT      0.420000
     73 H221       11.3550    2.4660   10.2180 h1        1 BZT      0.050450
@<TRIPOS>BOND
     1    1    2 ar  
     2    1    6 ar  
     3    1   38 1   
     4    2    3 ar  
     5    2   39 1   
     6    3    4 ar  
     7    3    7 1   
     8    4    5 ar  
     9    4    9 1   
    10    5    6 ar  
    11    5   40 1   
    12    6   41 1   
    13    7    8 1   
    14    8    9 2   
    15    8   11 1   
    16    9   10 1   
    17   10   20 1   
    18   10   42 1   
    19   10   43 1   
    20   11   12 ar  
    21   11   16 ar  
    22   12   13 ar  
    23   12   44 1   
    24   13   14 ar  
    25   13   45 1   
    26   14   15 ar  
    27   14   17 1   
    28   15   16 ar  
    29   15   46 1   
    30   16   47 1   
    31   17   18 1   
    32   18   37 1   
    33   18   48 1   
    34   18   49 1   
    35   19   20 ar  
    36   19   24 ar  
    37   19   50 1   
    38   20   21 ar  
    39   21   22 ar  
    40   21   51 1   
    41   22   23 ar  
    42   22   25 1   
    43   23   24 ar  
    44   23   26 1   
    45   24   52 1   
    46   26   30 1   
    47   26   53 1   
    48   26   54 1   
    49   27   28 1   
    50   27   31 1   
    51   27   55 1   
    52   27   56 1   
    53   28   29 1   
    54   28   57 1   
    55   28   58 1   
    56   29   30 1   
    57   29   59 1   
    58   29   60 1   
    59   30   31 1   
    60   31   61 1   
    61   31   62 1   
    62   32   33 1   
    63   32   36 1   
    64   32   63 1   
    65   32   73 1   
    66   33   34 1   
    67   33   37 1   
    68   34   35 1   
    69   34   64 1   
    70   34   65 1   
    71   35   36 1   
    72   35   66 1   
    73   35   67 1   
    74   36   68 1   
    75   36   69 1   
    76   37   70 1   
    77   37   71 1   
    78   38   72 1   
@<TRIPOS>SUBSTRUCTURE
     1 BZT         1 TEMP              0 ****  ****    0 ROOT
