@<TRIPOS>MOLECULE
BZU
   46    45     1     0     0
SMALL
bcc


@<TRIPOS>ATOM
      1 C3         -0.3180   -0.2150    0.0810 cc        1 BZU     -0.551600
      2 C9          3.3370    0.3200    3.2450 c3        1 BZU      0.206000
      3 C10         2.9270    0.2070    1.8120 c2        1 BZU     -0.409200
      4 C12         4.7800   -1.8650    6.6680 c2        1 BZU      0.029100
      5 C14         3.2110   -3.5830    6.1910 c3        1 BZU      0.130400
      6 C15         2.1000   -3.8610    5.2080 c3        1 BZU     -0.119100
      7 O1A        -0.1140   -0.4490   -2.4020 o         1 BZU     -0.543300
      8 O2A        -2.1630   -1.1710   -1.3250 o         1 BZU     -0.543300
      9 N21        -1.7530    1.3100   -1.6030 n4        1 BZU     -0.797500
     10 S1         -1.0150   -0.4190   -1.3650 sy        1 BZU      1.511200
     11 C4          1.0700    0.0440    0.1200 cd        1 BZU     -0.150000
     12 C5          1.5890    0.0780    1.4490 cd        1 BZU      0.186000
     13 C6          0.5200   -0.1120    2.3960 cd        1 BZU     -1.096100
     14 S2         -0.8850   -0.3840    1.6000 ss        1 BZU      0.539200
     15 S7          0.7320   -0.0200    3.9920 s6        1 BZU      1.922100
     16 O3B         0.0650   -1.0160    4.6740 o         1 BZU     -0.518700
     17 O4B         0.7710    1.2670    4.4800 o         1 BZU     -0.562300
     18 N8          2.5010   -0.5440    4.1100 n4        1 BZU     -0.706900
     19 N16         3.9800    0.2980    0.8310 n4        1 BZU     -0.645400
     20 O13         3.7460   -2.2890    5.8420 os        1 BZU     -0.448900
     21 C17         6.6970    1.3810    0.8930 c2        1 BZU     -0.248500
     22 C18         6.2640    2.5380    0.4020 c2        1 BZU     -0.248500
     23 H91         2.8540   -0.4690    5.0780 hn        1 BZU      0.485800
     24 H92         3.1950    1.3860    3.6110 hx        1 BZU      0.108700
     25 H10         4.4240    0.0500    3.3980 hx        1 BZU      0.108700
     26 H111        2.6280   -1.5320    3.8640 hn        1 BZU      0.485800
     27 H112        6.1170   -0.2740    7.0870 ha        1 BZU      0.122500
     28 H121        4.9490    0.0270    5.6750 ha        1 BZU      0.122500
     29 H122        5.1080   -2.5710    7.4470 h4        1 BZU      0.170000
     30 H141        4.0310   -4.3440    6.1120 h1        1 BZU      0.067200
     31 H142        2.8280   -3.5460    7.2450 h1        1 BZU      0.067200
     32 H151        1.6690   -4.8690    5.4280 hc        1 BZU      0.053033
     33 H152        1.2860   -3.1000    5.2980 hc        1 BZU      0.053033
     34 H153        2.4880   -3.8600    4.1610 hc        1 BZU      0.053033
     35 HN11       -1.5250    1.9630   -0.8580 hn        1 BZU      0.468467
     36 HN12       -2.7730    1.2580   -1.6660 hn        1 BZU      0.468467
     37 H4          1.6700    0.1840   -0.7860 ha        1 BZU      0.177000
     38 HN6         3.6750   -0.1120   -0.0560 hn        1 BZU      0.452133
     39 H171        4.2550    1.2840    0.6770 hn        1 BZU      0.452133
     40 H172        6.7840    1.1930    1.9730 ha        1 BZU      0.129500
     41 H181        7.0990    0.5800    0.2550 ha        1 BZU      0.129500
     42 H182        6.2550    2.7590   -0.6770 ha        1 BZU      0.129500
     43 H183        5.9400    3.3730    1.0420 ha        1 BZU      0.129500
     44 C11         5.2980   -0.6510    6.4610 c2        1 BZU     -0.288000
     45 H213       -1.4200    1.7180   -2.4790 hn        1 BZU      0.468467
     46 H162        4.8150   -0.2060    1.1610 hn        1 BZU      0.452133
@<TRIPOS>BOND
     1    1   10 1   
     2    1   11 2   
     3    1   14 1   
     4    2    3 1   
     5    2   18 1   
     6    2   24 1   
     7    2   25 1   
     8    3   12 2   
     9    3   19 1   
    10    4   20 1   
    11    4   29 1   
    12    4   44 2   
    13    5    6 1   
    14    5   20 1   
    15    5   30 1   
    16    5   31 1   
    17    6   32 1   
    18    6   33 1   
    19    6   34 1   
    20    7   10 2   
    21    8   10 2   
    22    9   10 1   
    23    9   35 1   
    24    9   36 1   
    25    9   45 1   
    26   11   12 1   
    27   11   37 1   
    28   12   13 1   
    29   13   14 1   
    30   13   15 2   
    31   15   16 1   
    32   15   17 2   
    33   15   18 1   
    34   18   23 1   
    35   18   26 1   
    36   19   38 1   
    37   19   39 1   
    38   19   46 1   
    39   21   22 2   
    40   21   40 1   
    41   21   41 1   
    42   22   42 1   
    43   22   43 1   
    44   27   44 1   
    45   28   44 1   
@<TRIPOS>SUBSTRUCTURE
     1 BZU         1 TEMP              0 ****  ****    0 ROOT
