@<TRIPOS>MOLECULE
BZU
   44    45     1     0     0
SMALL
bcc


@<TRIPOS>ATOM
      1 C3          1.0390   -0.8950    1.2260 cc        1 BZU     -0.509600
      2 C9          4.6330   -0.5510    4.3900 c3        1 BZU      0.213800
      3 C10         4.3880   -1.0840    2.9390 c3        1 BZU      0.206800
      4 C12         4.8120   -3.3680    5.5080 c3        1 BZU      0.106400
      5 C14         4.3460   -5.2090    4.0940 c3        1 BZU      0.129400
      6 C15         3.2270   -5.7820    3.2560 c3        1 BZU     -0.099100
      7 O1A         1.1970   -1.4250   -1.2190 o         1 BZU     -0.655300
      8 O2A        -0.9330   -1.6690   -0.1130 o         1 BZU     -0.655300
      9 N21        -0.0730    0.5790   -0.5660 n3        1 BZU     -1.027700
     10 S1          0.2720   -0.9550   -0.2680 sy        1 BZU      1.562200
     11 C4          2.4500   -0.9690    1.2650 cd        1 BZU     -0.077000
     12 C5          2.9380   -0.9340    2.5830 cd        1 BZU     -0.059300
     13 C6          1.8740   -0.8170    3.5120 cc        1 BZU     -0.461600
     14 S2          0.4560   -0.8070    2.7320 ss        1 BZU      0.542200
     15 S7          2.1420   -0.6570    5.1750 sy        1 BZU      1.535200
     16 O3B         1.2760   -1.5180    5.8730 o         1 BZU     -0.649300
     17 O4B         1.9840    0.7060    5.4870 o         1 BZU     -0.649300
     18 N8          3.6980   -1.1040    5.3300 n3        1 BZU     -0.785500
     19 N16         5.3320   -0.4540    2.0340 n3        1 BZU     -0.826200
     20 O13         3.8550   -3.9950    4.6650 os        1 BZU     -0.425600
     21 C17         5.8270   -1.3150    0.9770 c3        1 BZU      0.162800
     22 C18         6.5110   -0.5570   -0.1480 c3        1 BZU     -0.102100
     23 H91         5.6880   -0.8000    4.6910 h1        1 BZU      0.074200
     24 H92         4.5290    0.5740    4.4010 h1        1 BZU      0.074200
     25 H10         4.5920   -2.2040    2.9620 h1        1 BZU      0.089700
     26 H111        3.2270   -2.5580    6.7470 h1        1 BZU      0.071700
     27 H112        4.8700   -1.7580    6.9300 h1        1 BZU      0.071700
     28 H121        5.1530   -4.0820    6.3050 h1        1 BZU      0.035700
     29 H122        5.6990   -3.0490    4.8970 h1        1 BZU      0.035700
     30 H141        5.2500   -4.9840    3.4670 h1        1 BZU      0.025200
     31 H142        4.6400   -5.9170    4.9150 h1        1 BZU      0.025200
     32 H151        3.5610   -6.7460    2.8040 hc        1 BZU      0.049033
     33 H152        2.3240   -5.9650    3.8870 hc        1 BZU      0.049033
     34 H153        2.9470   -5.0730    2.4410 hc        1 BZU      0.049033
     35 HN11        0.5670    1.2200   -0.9620 hn        1 BZU      0.449300
     36 HN12       -0.9610    0.9810   -0.3990 hn        1 BZU      0.449300
     37 H4          3.0700   -1.0670    0.3670 ha        1 BZU      0.181000
     38 HN6         4.9640    0.4030    1.6690 hn        1 BZU      0.370800
     39 H171        6.5720   -2.0170    1.4520 h1        1 BZU      0.034200
     40 H172        5.0110   -1.9560    0.5290 h1        1 BZU      0.034200
     41 H181        5.7910    0.1130   -0.6780 hc        1 BZU      0.043367
     42 H182        7.3550    0.0640    0.2370 hc        1 BZU      0.043367
     43 H183        6.9170   -1.2920   -0.8840 hc        1 BZU      0.043367
     44 C11         4.1290   -2.1720    6.1850 c3        1 BZU      0.223800
@<TRIPOS>BOND
     1    1   10 1   
     2    1   11 2   
     3    1   14 1   
     4    2    3 1   
     5    2   18 1   
     6    2   23 1   
     7    2   24 1   
     8    3   12 1   
     9    3   19 1   
    10    3   25 1   
    11    4   20 1   
    12    4   28 1   
    13    4   29 1   
    14    4   44 1   
    15    5    6 1   
    16    5   20 1   
    17    5   30 1   
    18    5   31 1   
    19    6   32 1   
    20    6   33 1   
    21    6   34 1   
    22    7   10 2   
    23    8   10 2   
    24    9   10 1   
    25    9   35 1   
    26    9   36 1   
    27   11   12 1   
    28   11   37 1   
    29   12   13 2   
    30   13   14 1   
    31   13   15 1   
    32   15   16 2   
    33   15   17 2   
    34   15   18 1   
    35   18   44 1   
    36   19   21 1   
    37   19   38 1   
    38   21   22 1   
    39   21   39 1   
    40   21   40 1   
    41   22   41 1   
    42   22   42 1   
    43   22   43 1   
    44   26   44 1   
    45   27   44 1   
@<TRIPOS>SUBSTRUCTURE
     1 BZU         1 TEMP              0 ****  ****    0 ROOT
