@<TRIPOS>MOLECULE
BZU
   46    44     1     0     0
SMALL
bcc


@<TRIPOS>ATOM
      1 C3         -0.2900    0.0520   -0.1880 cc        1 BZU     -0.551600
      2 C9          3.3410    0.4650    3.0240 c3        1 BZU      0.205000
      3 C10         2.9270    0.5000    1.5880 c2        1 BZU     -0.408200
      4 C12         4.5920   -2.3360    6.2220 c2        1 BZU      0.027100
      5 C14         3.1550   -5.0580    7.5830 c2        1 BZU     -0.241500
      6 C15         2.0310   -5.2370    6.8990 c2        1 BZU     -0.241500
      7 O1A        -0.0770    0.0800   -2.6820 o         1 BZU     -0.543300
      8 O2A        -2.0700   -0.8810   -1.6900 o         1 BZU     -0.543300
      9 N21        -1.8290    1.6360   -1.7190 nz        1 BZU     -0.797500
     10 S1         -0.9760   -0.0540   -1.6500 sy        1 BZU      1.511200
     11 C4          1.0790    0.3960   -0.1180 cd        1 BZU     -0.150000
     12 C5          1.5970    0.3300    1.2100 cd        1 BZU      0.186000
     13 C6          0.5440   -0.0180    2.1280 cd        1 BZU     -1.099100
     14 S2         -0.8410   -0.3040    1.3040 ss        1 BZU      0.542200
     15 S7          0.7560   -0.0540    3.7260 s6        1 BZU      1.923100
     16 O3B         0.1190   -1.1190    4.3250 o         1 BZU     -0.517700
     17 O4B         0.7650    1.1880    4.3220 o         1 BZU     -0.561300
     18 N8          2.5470   -0.5300    3.7830 ny        1 BZU     -0.702900
     19 N16         3.9630    0.7770    0.6240 nz        1 BZU     -0.645400
     20 O13         3.4140   -2.5070    5.5140 oh        1 BZU     -0.616100
     21 C17         6.5720    2.0980    0.7150 c2        1 BZU     -0.241500
     22 C18         6.0150    3.2530    0.3650 c2        1 BZU     -0.241500
     23 H91         2.8970   -0.5620    4.7530 hn        1 BZU      0.484300
     24 H92         3.1570    1.4740    3.5120 hx        1 BZU      0.108200
     25 H10         4.4390    0.2240    3.1420 hx        1 BZU      0.108200
     26 H111        2.7060   -1.4700    3.4130 hn        1 BZU      0.484300
     27 H112        6.3080   -1.1170    6.4860 ha        1 BZU      0.121000
     28 H121        5.1210   -0.5400    5.1800 ha        1 BZU      0.121000
     29 H122        4.8110   -3.1030    6.9840 h4        1 BZU      0.169000
     30 H141        2.9640   -3.2900    5.8810 ho        1 BZU      0.464000
     31 H142        4.0990   -5.5500    7.3110 ha        1 BZU      0.124625
     32 H151        3.2040   -4.4420    8.4920 ha        1 BZU      0.124625
     33 H152        1.0760   -4.7790    7.1950 ha        1 BZU      0.124625
     34 H153        1.9720   -5.8880    6.0150 ha        1 BZU      0.124625
     35 HN11       -1.6430    2.2270   -0.9120 hn        1 BZU      0.468467
     36 HN12       -2.8430    1.5230   -1.7910 hn        1 BZU      0.468467
     37 H4          1.6660    0.6630   -1.0040 ha        1 BZU      0.177000
     38 HN6         3.6940    0.4220   -0.2980 hn        1 BZU      0.452133
     39 H171        4.8440    0.3240    0.9090 hn        1 BZU      0.452133
     40 H172        6.7300    1.8130    1.7660 ha        1 BZU      0.124625
     41 H181        7.0100    1.4050   -0.0190 ha        1 BZU      0.124625
     42 H182        5.6520    3.9870    1.1000 ha        1 BZU      0.124625
     43 H183        5.9330    3.5790   -0.6840 ha        1 BZU      0.124625
     44 C11         5.3670   -1.2840    5.9450 c2        1 BZU     -0.288000
     45 H213       -1.5260    2.1510   -2.5490 hn        1 BZU      0.468467
     46 H162        4.1450    1.7930    0.5600 hn        1 BZU      0.452133
@<TRIPOS>BOND
     1    1   10 1   
     2    1   11 2   
     3    1   14 1   
     4    2    3 1   
     5    2   18 1   
     6    2   24 1   
     7    2   25 1   
     8    3   12 2   
     9    3   19 1   
    10    4   20 1   
    11    4   29 1   
    12    4   44 2   
    13    5    6 2   
    14    5   31 1   
    15    5   32 1   
    16    6   33 1   
    17    6   34 1   
    18    7   10 2   
    19    8   10 2   
    20    9   10 1   
    21    9   35 1   
    22    9   36 1   
    23    9   45 1   
    24   11   12 1   
    25   11   37 1   
    26   12   13 1   
    27   13   14 1   
    28   13   15 2   
    29   15   16 1   
    30   15   17 2   
    31   15   18 1   
    32   18   23 1   
    33   18   26 1   
    34   19   38 1   
    35   19   39 1   
    36   19   46 1   
    37   20   30 1   
    38   21   22 2   
    39   21   40 1   
    40   21   41 1   
    41   22   42 1   
    42   22   43 1   
    43   27   44 1   
    44   28   44 1   
@<TRIPOS>SUBSTRUCTURE
     1 BZU         1 TEMP              0 ****  ****    0 ROOT
