@<TRIPOS>MOLECULE
BZU
   44    42     1     0     0
SMALL
bcc


@<TRIPOS>ATOM
      1 C3         -0.4160   -0.3740    0.5620 c3        1 BZU     -0.899000
      2 C9          2.9350    1.1180    3.7870 c3        1 BZU     -0.109000
      3 C10         2.4700    1.0510    2.3360 c2        1 BZU      0.212000
      4 C12         5.0960   -2.2180    4.8620 c2        1 BZU     -0.015000
      5 C14         3.2670   -3.4810    4.0600 c3        1 BZU     -0.019000
      6 C15         1.8250   -3.2780    3.6640 c3        1 BZU     -0.233000
      7 O1A         0.8210   -2.6460    0.4800 o         1 BZU     -0.938500
      8 O2A        -1.3530   -2.5220   -0.5040 o         1 BZU     -0.938500
      9 N21         0.4970   -1.4000   -1.6430 n3        1 BZU     -0.947000
     10 S1         -0.1150   -1.8940   -0.2520 s6        1 BZU      2.844000
     11 C4          0.8820    0.2960    0.6850 c1        1 BZU     -0.159000
     12 C5          1.1470    0.7320    1.9840 c2        1 BZU     -0.160000
     13 C6          0.0190    0.6170    2.9260 c2        1 BZU     -1.411000
     14 S2         -1.1040   -0.4580    2.2000 ss        1 BZU      0.291000
     15 S7         -0.1260    1.3640    4.1620 s4        1 BZU      2.112800
     16 O3B        -1.0260    0.9930    5.1340 o         1 BZU     -0.509400
     17 O4B         0.5340    2.5580    4.3770 o         1 BZU     -0.509400
     18 N8          2.1630    0.2760    4.6790 n3        1 BZU     -0.396000
     19 N16         3.3870    1.3190    1.3810 n3        1 BZU     -0.311000
     20 O13         3.7570   -2.2070    4.5190 os        1 BZU     -0.261000
     21 C17         6.4670    1.3370    2.8690 c2        1 BZU     -0.232000
     22 C18         6.7760    1.1860    1.5880 c2        1 BZU     -0.232000
     23 H91         2.5930    0.2640    5.5850 hn        1 BZU      0.190000
     24 H92         4.0400    0.8700    3.8370 h1        1 BZU      0.121500
     25 H10         2.8080    2.1930    4.1280 h1        1 BZU      0.121500
     26 H111        2.1110   -0.6690    4.3280 hn        1 BZU      0.190000
     27 H112        6.6950   -1.0740    5.6590 ha        1 BZU      0.122500
     28 H121        5.0550   -0.2010    5.5710 ha        1 BZU      0.122500
     29 H122        5.6460   -3.1530    4.6750 h4        1 BZU      0.136000
     30 H141        3.8850   -3.8210    3.1880 h1        1 BZU      0.076500
     31 H142        3.3630   -4.2220    4.8970 h1        1 BZU      0.076500
     32 H151        1.7440   -2.6640    2.7320 hc        1 BZU      0.103000
     33 H152        1.2590   -2.7710    4.4820 hc        1 BZU      0.103000
     34 H153        1.3610   -4.2740    3.4660 hc        1 BZU      0.103000
     35 HN11        0.0960   -1.6110   -2.5210 hn        1 BZU      0.247000
     36 HN12        1.2660   -0.7790   -1.6990 hn        1 BZU      0.247000
     37 H4         -1.0940    0.2660   -0.0640 h2        1 BZU      0.193000
     38 HN6         3.1100    1.2330    0.4250 hn        1 BZU      0.252500
     39 H171        4.3540    1.3870    1.6050 hn        1 BZU      0.252500
     40 H172        6.3380    2.3240    3.3360 ha        1 BZU      0.117750
     41 H181        6.3390    0.4850    3.5560 ha        1 BZU      0.117750
     42 H182        6.9230    0.2010    1.1250 ha        1 BZU      0.117750
     43 H183        6.9230    2.0380    0.9080 ha        1 BZU      0.117750
     44 C11         5.6360   -1.1100    5.3820 c2        1 BZU     -0.310000
@<TRIPOS>BOND
     1    1   10 1   
     2    1   11 1   
     3    1   14 1   
     4    1   37 1   
     5    2    3 1   
     6    2   18 1   
     7    2   24 1   
     8    2   25 1   
     9    3   12 1   
    10    3   19 1   
    11    4   20 1   
    12    4   29 1   
    13    4   44 1   
    14    5    6 1   
    15    5   20 1   
    16    5   30 1   
    17    5   31 1   
    18    6   32 1   
    19    6   33 1   
    20    6   34 1   
    21    7   10 1   
    22    8   10 1   
    23    9   10 1   
    24    9   35 1   
    25    9   36 1   
    26   11   12 1   
    27   12   13 1   
    28   13   14 1   
    29   13   15 1   
    30   15   16 1   
    31   15   17 1   
    32   18   23 1   
    33   18   26 1   
    34   19   38 1   
    35   19   39 1   
    36   21   22 1   
    37   21   40 1   
    38   21   41 1   
    39   22   42 1   
    40   22   43 1   
    41   27   44 1   
    42   28   44 1   
@<TRIPOS>SUBSTRUCTURE
     1 BZU         1 TEMP              0 ****  ****    0 ROOT
