@<TRIPOS>MOLECULE
BZU
   44    41     1     0     0
SMALL
bcc


@<TRIPOS>ATOM
      1 C3         -2.3080    0.7190   -3.4070 c1        1 BZU     -1.222000
      2 C9          1.1470    0.1090    0.2640 c3        1 BZU     -0.063000
      3 C10         1.0800    0.3210   -1.2460 c3        1 BZU      0.007000
      4 C11         0.2510   -1.4810    1.9440 c3        1 BZU     -0.019000
      5 C12         0.0950   -0.7800    3.3170 c3        1 BZU     -0.036000
      6 C14        -0.0240   -1.2950    5.6790 c3        1 BZU     -0.018000
      7 C15        -0.3780   -2.4230    6.6640 c3        1 BZU     -0.216000
      8 O1A        -4.4760   -0.6380   -4.1170 o         1 BZU     -0.541900
      9 O2A        -2.9010   -0.5420   -5.6700 o         1 BZU     -0.541900
     10 N21        -4.2090    1.6130   -5.2800 n3        1 BZU     -0.952000
     11 S1         -3.4980    0.2640   -4.6450 s4        1 BZU      2.117800
     12 C4         -0.8330    0.7400   -3.3960 c1        1 BZU     -0.045000
     13 C5         -0.3440    0.7330   -1.8770 c2        1 BZU     -0.027000
     14 C6         -1.5380    0.7070   -1.0010 c1        1 BZU     -1.197000
     15 S2         -2.8020    0.6980   -1.9170 ss        1 BZU      1.080000
     16 S7         -1.3560    0.0910    0.6300 ss        1 BZU      2.884000
     17 O3B        -1.6060    1.1680    1.5590 o         1 BZU     -0.928500
     18 O4B        -2.3300   -0.9550    0.8440 o         1 BZU     -0.928500
     19 N8          0.0470   -0.5060    0.8730 n2        1 BZU     -0.815000
     20 N16         2.0160    1.3390   -1.5880 n3        1 BZU     -0.301000
     21 O13        -0.2230   -1.7590    4.3240 os        1 BZU     -0.284000
     22 C17         3.0700    0.7760   -2.3470 c3        1 BZU     -0.072000
     23 C18         4.1040    1.8670   -2.6730 c3        1 BZU     -0.217000
     24 H91         1.9190   -0.4650    0.4320 h1        1 BZU      0.105500
     25 H92         1.2310    0.9900    0.6650 h1        1 BZU      0.105500
     26 H10         1.3690   -0.5130   -1.6770 h1        1 BZU      0.124000
     27 H111       -0.4090   -2.1910    1.8660 h1        1 BZU      0.114500
     28 H112        1.1510   -1.8640    1.8710 h1        1 BZU      0.114500
     29 H121       -0.6220   -0.1230    3.2660 h1        1 BZU      0.073500
     30 H122        0.9310   -0.3320    3.5490 h1        1 BZU      0.073500
     31 H141       -0.6010   -0.5200    5.8480 h1        1 BZU      0.066500
     32 H142        0.9280   -1.0330    5.8040 h1        1 BZU      0.066500
     33 H151       -1.2800   -2.7490    6.4750 hc        1 BZU      0.086333
     34 H152        0.2620   -3.1580    6.5640 hc        1 BZU      0.086333
     35 H153       -0.3400   -2.0790    7.5820 hc        1 BZU      0.086333
     36 HN11       -4.7990    2.0960   -4.7790 hn        1 BZU      0.245000
     37 HN12       -4.0240    1.8680   -6.1540 hn        1 BZU      0.245000
     38 H4         -0.2480    0.8330   -4.1920 DU        1 BZU      0.190000
     39 HN6         2.3570    1.7150   -0.8180 hn        1 BZU      0.164000
     40 H171        2.7070    0.4020   -3.1880 h1        1 BZU      0.071500
     41 H172        3.5030    0.0540   -1.8260 h1        1 BZU      0.071500
     42 H181        3.6600    2.6110   -3.1460 hc        1 BZU      0.083000
     43 H182        4.8130    1.4880   -3.2470 hc        1 BZU      0.083000
     44 H183        4.5070    2.2040   -1.8290 hc        1 BZU      0.083000
@<TRIPOS>BOND
     1    1   12 1   
     2    1   15 1   
     3    2    3 1   
     4    2   19 1   
     5    2   24 1   
     6    2   25 1   
     7    3   13 1   
     8    3   20 1   
     9    3   26 1   
    10    4    5 1   
    11    4   19 1   
    12    4   27 1   
    13    4   28 1   
    14    5   21 1   
    15    5   29 1   
    16    5   30 1   
    17    6    7 1   
    18    6   21 1   
    19    6   31 1   
    20    6   32 1   
    21    7   33 1   
    22    7   34 1   
    23    7   35 1   
    24    8   11 1   
    25    9   11 1   
    26   10   11 1   
    27   10   36 1   
    28   10   37 1   
    29   12   13 1   
    30   13   14 1   
    31   14   15 1   
    32   16   17 1   
    33   16   18 1   
    34   20   22 1   
    35   20   39 1   
    36   22   23 1   
    37   22   40 1   
    38   22   41 1   
    39   23   42 1   
    40   23   43 1   
    41   23   44 1   
@<TRIPOS>SUBSTRUCTURE
     1 BZU         1 TEMP              0 ****  ****    0 ROOT
