@<TRIPOS>MOLECULE
BZX
   16    14     1     0     0
SMALL
bcc


@<TRIPOS>ATOM
      1 C1         -0.1380    0.0490   -1.3990 c1        1 BZX     -0.078000
      2 C2          1.2520    0.0490   -1.3990 c1        1 BZX      0.109600
      3 C3          1.9500    0.0490   -0.1920 c1        1 BZX     -0.107500
      4 C4          1.2550    0.0490    1.0120 c1        1 BZX     -0.078000
      5 C5         -0.1460    0.0490    1.0140 c1        1 BZX      0.039100
      6 C6         -0.8380    0.0490   -0.1850 c1        1 BZX      0.039100
      7 O7         -2.2330    0.0490    0.1120 os        1 BZX     -0.316900
      8 C8         -2.3790    0.0490    1.5060 c3        1 BZX      0.322200
      9 O9         -1.1000    0.0490    2.0740 os        1 BZX     -0.316900
     10 O10         1.9550    0.0740   -2.6170 oh        1 BZX     -0.477600
     11 H1         -0.6260    0.0490   -2.2440 ha        1 BZX      0.100000
     12 H3          2.9260    0.0490   -0.1920 ha        1 BZX      0.099500
     13 H4          1.7440    0.0490    1.8570 ha        1 BZX      0.100000
     14 H8         -2.8510   -0.7610    1.7790 h2        1 BZX      0.072700
     15 H8A        -2.8510    0.8590    1.7790 h2        1 BZX      0.072700
     16 HO10        2.0770   -0.7570   -2.9050 ho        1 BZX      0.421000
@<TRIPOS>BOND
     1    1    6 3   
     2    1   11 1   
     3    2    3 3   
     4    2   10 1   
     5    3   12 1   
     6    4    5 3   
     7    4   13 1   
     8    5    9 1   
     9    6    7 1   
    10    7    8 1   
    11    8    9 1   
    12    8   14 1   
    13    8   15 1   
    14   10   16 1   
@<TRIPOS>SUBSTRUCTURE
     1 BZX         1 TEMP              0 ****  ****    0 ROOT
