@<TRIPOS>MOLECULE
BZX
   16    17     1     0     0
SMALL
bcc


@<TRIPOS>ATOM
      1 C1          0.0420   -0.0900   -0.0270 ca        1 BZX     -0.196000
      2 C2          1.4500   -0.1890    0.0670 ca        1 BZX      0.126100
      3 C3          2.1360   -0.1080    1.2880 ca        1 BZX     -0.165000
      4 C4          1.4420    0.0800    2.4930 ca        1 BZX     -0.075000
      5 C5          0.0680    0.1770    2.4090 ca        1 BZX      0.017100
      6 C6         -0.6190    0.0930    1.1690 ca        1 BZX      0.094100
      7 O7         -1.9850    0.2240    1.3890 os        1 BZX     -0.333900
      8 C8         -2.1630    0.3960    2.8160 c3        1 BZX      0.322200
      9 O9         -0.8580    0.3630    3.4350 os        1 BZX     -0.332900
     10 O10         2.2300   -0.3740   -1.0530 oh        1 BZX     -0.494100
     11 H1         -0.4840   -0.1560   -0.9860 ha        1 BZX      0.157000
     12 H3          3.2330   -0.1920    1.2920 ha        1 BZX      0.157000
     13 H4          1.9710    0.1450    3.4520 ha        1 BZX      0.158000
     14 H8         -2.6210    1.3990    2.9980 h2        1 BZX      0.072700
     15 H8A        -2.7660   -0.4620    3.2040 h2        1 BZX      0.072700
     16 HO10        1.6440   -0.4140   -1.8220 ho        1 BZX      0.421000
@<TRIPOS>BOND
     1    1    2 ar  
     2    1    6 ar  
     3    1   11 1   
     4    2    3 ar  
     5    2   10 1   
     6    3    4 ar  
     7    3   12 1   
     8    4    5 ar  
     9    4   13 1   
    10    5    6 ar  
    11    5    9 1   
    12    6    7 1   
    13    7    8 1   
    14    8    9 1   
    15    8   14 1   
    16    8   15 1   
    17   10   16 1   
@<TRIPOS>SUBSTRUCTURE
     1 BZX         1 TEMP              0 ****  ****    0 ROOT
