@<TRIPOS>MOLECULE
BZX
   16    17     1     0     0
SMALL
bcc


@<TRIPOS>ATOM
      1 C1         -0.8970   -1.0760    0.1970 ca        1 BZX     -0.196000
      2 C2         -1.8960   -0.0790    0.0930 ca        1 BZX      0.126100
      3 C3         -1.5950    1.2870   -0.0140 ca        1 BZX     -0.165000
      4 C4         -0.2640    1.7320   -0.0240 ca        1 BZX     -0.075000
      5 C5          0.7150    0.7640    0.0760 ca        1 BZX      0.017100
      6 C6          0.4020   -0.6160    0.1840 ca        1 BZX      0.094100
      7 O7          1.5790   -1.3500    0.2690 os        1 BZX     -0.333900
      8 C8          2.6690   -0.3990    0.2120 c3        1 BZX      0.322200
      9 O9          2.1000    0.9240    0.0910 os        1 BZX     -0.332900
     10 O10        -3.2340   -0.4040    0.0930 oh        1 BZX     -0.494100
     11 H1         -1.1440   -2.1410    0.2800 ha        1 BZX      0.157000
     12 H3         -2.4180    2.0120   -0.0910 ha        1 BZX      0.157000
     13 H4         -0.0200    2.7990   -0.1080 ha        1 BZX      0.158000
     14 H8          3.2410   -0.4570    1.1710 h2        1 BZX      0.072700
     15 H8A         3.2790   -0.6120   -0.7000 h2        1 BZX      0.072700
     16 HO10       -3.3080   -1.3660    0.1720 ho        1 BZX      0.421000
@<TRIPOS>BOND
     1    1    2 ar  
     2    1    6 ar  
     3    1   11 1   
     4    2    3 ar  
     5    2   10 1   
     6    3    4 ar  
     7    3   12 1   
     8    4    5 ar  
     9    4   13 1   
    10    5    6 ar  
    11    5    9 1   
    12    6    7 1   
    13    7    8 1   
    14    8    9 1   
    15    8   14 1   
    16    8   15 1   
    17   10   16 1   
@<TRIPOS>SUBSTRUCTURE
     1 BZX         1 TEMP              0 ****  ****    0 ROOT
