@<TRIPOS>MOLECULE
BZY
   60    61     1     0     0
SMALL
bcc


@<TRIPOS>ATOM
      1 C1         -0.0020    0.3680    0.2690 ca        1 BZY     -0.173300
      2 C2         -0.6830    0.3740   -1.0560 c3        1 BZY      0.182100
      3 N3         -0.9800    1.7860   -1.5530 ny        1 BZY     -0.662800
      4 C4         -1.6960    1.7960   -2.8610 c         1 BZY      0.506100
      5 C5         -1.9670    3.1650   -3.5230 c3        1 BZY      0.066500
      6 N6         -2.8060    2.9940   -4.7790 ny        1 BZY     -0.680800
      7 C7         -2.3500    3.8180   -5.9710 c         1 BZY      0.513100
      8 C8         -3.3190    3.8740   -7.1660 c3        1 BZY      0.071500
      9 C9         -4.6370    4.5560   -6.7530 c3        1 BZY     -0.132400
     10 C10        -5.6020    4.7080   -7.9320 c3        1 BZY     -0.014100
     11 N11        -2.6820    4.5750   -8.3290 nz        1 BZY     -0.842600
     12 O12        -1.2690    4.3750   -5.8960 o         1 BZY     -0.367100
     13 C13        -2.6320    4.1170   -2.5360 c3        1 BZY     -0.166100
     14 O14        -2.0270    0.7320   -3.3670 o         1 BZY     -0.372100
     15 C15         1.3980    0.3300    0.3400 ca        1 BZY     -0.080500
     16 C16         2.0360    0.1620    1.5710 ca        1 BZY     -0.079500
     17 C17         1.2760    0.0310    2.7400 ca        1 BZY     -0.180900
     18 C18         1.9580   -0.0900    4.0580 ce        1 BZY      0.552800
     19 N19         2.1890   -1.5120    4.4840 nz        1 BZY     -0.817600
     20 N20         2.3640    0.8130    4.8610 n2        1 BZY     -0.648100
     21 C21        -0.1220    0.0810    2.6770 ca        1 BZY     -0.079500
     22 C22        -0.7580    0.2500    1.4450 ca        1 BZY     -0.080500
     23 C23        -6.9710    4.9660   -7.4230 ca        1 BZY     -0.222300
     24 C24        -7.7700    3.8920   -6.9920 ca        1 BZY     -0.071500
     25 C25        -9.0720    4.1010   -6.5740 ca        1 BZY     -0.178000
     26 C26        -9.6010    5.4130   -6.5920 ca        1 BZY      0.199100
     27 O27       -10.8830    5.5430   -6.1600 oh        1 BZY     -0.455100
     28 C28        -8.8120    6.4920   -7.0280 ca        1 BZY     -0.178000
     29 C29        -7.5050    6.2610   -7.4410 ca        1 BZY     -0.071500
     30 H1         -0.0390   -0.1210   -1.8420 hx        1 BZY      0.136200
     31 H2         -1.6720   -0.1720   -1.0020 hx        1 BZY      0.136200
     32 H3         -1.5600    2.2690   -0.8480 hn        1 BZY      0.481800
     33 H4         -0.9580    3.5920   -3.8440 hx        1 BZY      0.175700
     34 H5         -2.8060    1.9980   -5.0640 hn        1 BZY      0.496300
     35 H6         -3.5420    2.8100   -7.5080 hx        1 BZY      0.163700
     36 H7         -5.1440    3.9060   -5.9890 hc        1 BZY      0.094700
     37 H8         -4.4410    5.5630   -6.3000 hc        1 BZY      0.094700
     38 H9         -5.5990    3.7670   -8.5460 hc        1 BZY      0.062700
     39 H10        -5.2790    5.5640   -8.5850 hc        1 BZY      0.062700
     40 H11        -1.8150    4.1070   -8.6300 hn        1 BZY      0.500467
     41 H12        -2.4680    5.5570   -8.0980 hn        1 BZY      0.500467
     42 H14        -2.9430    5.0740   -3.0350 hc        1 BZY      0.115367
     43 H15        -1.8970    4.4140   -1.7430 hc        1 BZY      0.115367
     44 H16        -3.5350    3.6650   -2.0540 hc        1 BZY      0.115367
     45 H17         2.0130    0.4020   -0.5730 ha        1 BZY      0.166000
     46 H18         3.1410    0.1330    1.6080 ha        1 BZY      0.187500
     47 H19         2.7830   -1.9800    3.7890 hn        1 BZY      0.485467
     48 H20         2.6580   -1.5570    5.4070 hn        1 BZY      0.485467
     49 H21         2.2470    1.7830    4.6500 hn        1 BZY      0.501400
     50 H22        -0.7330   -0.0110    3.5930 ha        1 BZY      0.187500
     51 H23        -1.8610    0.2580    1.4120 ha        1 BZY      0.166000
     52 H24        -7.3720    2.8670   -7.0190 ha        1 BZY      0.126500
     53 H25        -9.7180    3.2680   -6.2530 ha        1 BZY      0.178000
     54 H26       -11.1830    6.4580   -6.3030 ho        1 BZY      0.457000
     55 H27        -9.2340    7.5100   -7.0620 ha        1 BZY      0.178000
     56 H28        -6.9000    7.1070   -7.8030 ha        1 BZY      0.126500
     57 H32        -0.0910    2.3010   -1.6400 hn        1 BZY      0.481800
     58 H62        -3.7830    3.2610   -4.5580 hn        1 BZY      0.496300
     59 H113       -3.3600    4.5690   -9.1170 hn        1 BZY      0.500467
     60 H193        1.2870   -1.9960    4.5480 hn        1 BZY      0.485467
@<TRIPOS>BOND
     1    1    2 1   
     2    1   15 ar  
     3    1   22 ar  
     4    2    3 1   
     5    2   30 1   
     6    2   31 1   
     7    3    4 1   
     8    3   32 1   
     9    3   57 1   
    10    4    5 1   
    11    4   14 2   
    12    5    6 1   
    13    5   13 1   
    14    5   33 1   
    15    6    7 1   
    16    6   34 1   
    17    6   58 1   
    18    7    8 1   
    19    7   12 2   
    20    8    9 1   
    21    8   11 1   
    22    8   35 1   
    23    9   10 1   
    24    9   36 1   
    25    9   37 1   
    26   10   23 1   
    27   10   38 1   
    28   10   39 1   
    29   11   40 1   
    30   11   41 1   
    31   11   59 1   
    32   13   42 1   
    33   13   43 1   
    34   13   44 1   
    35   15   16 ar  
    36   15   45 1   
    37   16   17 ar  
    38   16   46 1   
    39   17   18 1   
    40   17   21 ar  
    41   18   19 1   
    42   18   20 2   
    43   19   47 1   
    44   19   48 1   
    45   19   60 1   
    46   20   49 1   
    47   21   22 ar  
    48   21   50 1   
    49   22   51 1   
    50   23   24 ar  
    51   23   29 ar  
    52   24   25 ar  
    53   24   52 1   
    54   25   26 ar  
    55   25   53 1   
    56   26   27 1   
    57   26   28 ar  
    58   27   54 1   
    59   28   29 ar  
    60   28   55 1   
    61   29   56 1   
@<TRIPOS>SUBSTRUCTURE
     1 BZY         1 TEMP              0 ****  ****    0 ROOT
