@<TRIPOS>MOLECULE
BZY
   60    61     1     0     0
SMALL
bcc


@<TRIPOS>ATOM
      1 C1         -0.0120    0.3750    0.2820 ca        1 BZY     -0.173300
      2 C2         -0.6890    0.3780   -1.0450 c3        1 BZY      0.182100
      3 N3         -0.9840    1.7890   -1.5460 n4        1 BZY     -0.662800
      4 C4         -1.6960    1.7970   -2.8560 c         1 BZY      0.506100
      5 C5         -1.9660    3.1650   -3.5220 c3        1 BZY      0.066500
      6 N6         -2.8020    2.9910   -4.7790 n4        1 BZY     -0.680800
      7 C7         -2.3420    3.8110   -5.9730 c         1 BZY      0.513100
      8 C8         -3.3080    3.8650   -7.1700 c3        1 BZY      0.071500
      9 C9         -4.6270    4.5480   -6.7620 c3        1 BZY     -0.132400
     10 C10        -5.5890    4.6980   -7.9440 c3        1 BZY     -0.014100
     11 N11        -2.6670    4.5630   -8.3340 n4        1 BZY     -0.842600
     12 O12        -1.2610    4.3680   -5.8960 o         1 BZY     -0.367100
     13 C13        -2.6330    4.1190   -2.5390 c3        1 BZY     -0.166100
     14 O14        -2.0260    0.7320   -3.3610 o         1 BZY     -0.372100
     15 C15         1.3880    0.3350    0.3560 ca        1 BZY     -0.080500
     16 C16         2.0230    0.1680    1.5890 ca        1 BZY     -0.079500
     17 C17         1.2600    0.0420    2.7560 ca        1 BZY     -0.180900
     18 C18         1.9390   -0.0760    4.0760 ce        1 BZY      0.552800
     19 N19         2.1650   -1.4970    4.5080 n4        1 BZY     -0.817600
     20 N20         2.3470    0.8280    4.8770 n2        1 BZY     -0.648100
     21 C21        -0.1370    0.0950    2.6900 ca        1 BZY     -0.079500
     22 C22        -0.7700    0.2620    1.4560 ca        1 BZY     -0.080500
     23 C23        -6.9590    4.9570   -7.4390 ca        1 BZY     -0.222300
     24 C24        -7.7600    3.8850   -7.0080 ca        1 BZY     -0.071500
     25 C25        -9.0620    4.0950   -6.5930 ca        1 BZY     -0.178000
     26 C26        -9.5910    5.4070   -6.6160 ca        1 BZY      0.199100
     27 O27       -10.8740    5.5400   -6.1870 oh        1 BZY     -0.455100
     28 C28        -8.8000    6.4850   -7.0520 ca        1 BZY     -0.178000
     29 C29        -7.4920    6.2520   -7.4610 ca        1 BZY     -0.071500
     30 H1         -1.6800   -0.1660   -0.9920 hx        1 BZY      0.136200
     31 H2         -0.0440   -0.1200   -1.8290 hx        1 BZY      0.136200
     32 H3         -0.0940    2.3030   -1.6330 hn        1 BZY      0.481800
     33 H4         -0.9560    3.5900   -3.8410 hx        1 BZY      0.175700
     34 H5         -2.8020    1.9940   -5.0620 hn        1 BZY      0.496300
     35 H6         -3.5300    2.8000   -7.5100 hx        1 BZY      0.163700
     36 H7         -5.1360    3.9010   -5.9980 hc        1 BZY      0.094700
     37 H8         -4.4320    5.5560   -6.3120 hc        1 BZY      0.094700
     38 H9         -5.5850    3.7550   -8.5560 hc        1 BZY      0.062700
     39 H10        -5.2640    5.5510   -8.5980 hc        1 BZY      0.062700
     40 H11        -2.4540    5.5460   -8.1040 hn        1 BZY      0.500467
     41 H12        -1.8010    4.0940   -8.6310 hn        1 BZY      0.500467
     42 H14        -3.5370    3.6680   -2.0580 hc        1 BZY      0.115367
     43 H15        -1.9000    4.4170   -1.7440 hc        1 BZY      0.115367
     44 H16        -2.9420    5.0750   -3.0410 hc        1 BZY      0.115367
     45 H17         2.0050    0.4030   -0.5560 ha        1 BZY      0.166000
     46 H18         3.1280    0.1380    1.6280 ha        1 BZY      0.187500
     47 H19         2.6310   -1.5400    5.4320 hn        1 BZY      0.485467
     48 H20         2.7580   -1.9690    3.8160 hn        1 BZY      0.485467
     49 H21         2.2330    1.7980    4.6620 hn        1 BZY      0.501400
     50 H22        -0.7510    0.0080    3.6050 ha        1 BZY      0.187500
     51 H23        -1.8730    0.2720    1.4210 ha        1 BZY      0.166000
     52 H24        -7.3620    2.8590   -7.0320 ha        1 BZY      0.126500
     53 H25        -9.7100    3.2640   -6.2720 ha        1 BZY      0.178000
     54 H26       -11.1740    6.4540   -6.3330 ho        1 BZY      0.457000
     55 H27        -9.2210    7.5030   -7.0890 ha        1 BZY      0.178000
     56 H28        -6.8860    7.0980   -7.8230 ha        1 BZY      0.126500
     57 H32        -1.5640    2.2760   -0.8450 hn        1 BZY      0.481800
     58 H62        -3.7790    3.2590   -4.5610 hn        1 BZY      0.496300
     59 H113       -3.3440    4.5560   -9.1230 hn        1 BZY      0.500467
     60 H193        1.2600   -1.9780    4.5710 hn        1 BZY      0.485467
@<TRIPOS>BOND
     1    1    2 1   
     2    1   15 ar  
     3    1   22 ar  
     4    2    3 1   
     5    2   30 1   
     6    2   31 1   
     7    3    4 1   
     8    3   32 1   
     9    3   57 1   
    10    4    5 1   
    11    4   14 2   
    12    5    6 1   
    13    5   13 1   
    14    5   33 1   
    15    6    7 1   
    16    6   34 1   
    17    6   58 1   
    18    7    8 1   
    19    7   12 2   
    20    8    9 1   
    21    8   11 1   
    22    8   35 1   
    23    9   10 1   
    24    9   36 1   
    25    9   37 1   
    26   10   23 1   
    27   10   38 1   
    28   10   39 1   
    29   11   40 1   
    30   11   41 1   
    31   11   59 1   
    32   13   42 1   
    33   13   43 1   
    34   13   44 1   
    35   15   16 ar  
    36   15   45 1   
    37   16   17 ar  
    38   16   46 1   
    39   17   18 1   
    40   17   21 ar  
    41   18   19 1   
    42   18   20 2   
    43   19   47 1   
    44   19   48 1   
    45   19   60 1   
    46   20   49 1   
    47   21   22 ar  
    48   21   50 1   
    49   22   51 1   
    50   23   24 ar  
    51   23   29 ar  
    52   24   25 ar  
    53   24   52 1   
    54   25   26 ar  
    55   25   53 1   
    56   26   27 1   
    57   26   28 ar  
    58   27   54 1   
    59   28   29 ar  
    60   28   55 1   
    61   29   56 1   
@<TRIPOS>SUBSTRUCTURE
     1 BZY         1 TEMP              0 ****  ****    0 ROOT
