@<TRIPOS>MOLECULE
BZZ
   19    16     1     0     0
SMALL
bcc


@<TRIPOS>ATOM
      1 C1'        -2.1100   -0.2170   -1.3630 c1        1 BZZ     -0.070250
      2 C2'        -0.7270   -0.1960   -1.2890 c1        1 BZZ     -0.053500
      3 C3'        -0.1020   -0.2700   -0.0690 c1        1 BZZ     -0.053100
      4 C4'        -0.8650   -0.3680    1.1070 c1        1 BZZ     -0.070250
      5 C5'        -2.2550   -0.3890    1.0320 c1        1 BZZ     -0.070250
      6 C6'        -2.8770   -0.3140   -0.1970 c1        1 BZZ     -0.070250
      7 NX1         1.9270    0.8770    0.6780 n3        1 BZZ     -0.590000
      8 NX2         3.1910    1.1830    0.2250 n3        1 BZZ     -0.657600
      9 C1          1.4460   -0.3130    0.0040 c3        1 BZZ      0.127900
     10 H1'        -2.5480   -0.1640   -2.2260 ha        1 BZZ      0.074500
     11 H2'        -0.2060   -0.1290   -2.0930 ha        1 BZZ      0.077500
     12 H4'        -0.4200   -0.4210    1.9770 ha        1 BZZ      0.074500
     13 H5'        -2.8130   -0.4580    1.8840 ha        1 BZZ      0.074500
     14 H6'        -3.8760   -0.3290   -0.2560 ha        1 BZZ      0.074500
     15 HNX1        1.9540    0.7320    1.5570 hn        1 BZZ      0.375800
     16 HX21        3.6010    0.4090   -0.0960 hn        1 BZZ      0.336300
     17 HX22        3.1330    1.8180   -0.4660 hn        1 BZZ      0.336300
     18 H11         1.7260   -1.1050    0.4990 h1        1 BZZ      0.040700
     19 H12         1.8210   -0.3470   -0.9080 h1        1 BZZ      0.040700
@<TRIPOS>BOND
     1    1    6 3   
     2    1   10 1   
     3    2    3 3   
     4    2   11 1   
     5    3    9 1   
     6    4    5 3   
     7    4   12 1   
     8    5   13 1   
     9    6   14 1   
    10    7    8 1   
    11    7    9 1   
    12    7   15 1   
    13    8   16 1   
    14    8   17 1   
    15    9   18 1   
    16    9   19 1   
@<TRIPOS>SUBSTRUCTURE
     1 BZZ         1 TEMP              0 ****  ****    0 ROOT
