@<TRIPOS>MOLECULE
BZZ
   21    21     1     0     0
SMALL
bcc


@<TRIPOS>ATOM
      1 C1'         0.0080   -0.0490   -0.0110 ca        1 BZZ     -0.127000
      2 C2'         1.3920    0.0110   -0.0140 ca        1 BZZ     -0.050000
      3 C3'         2.1050    0.0560    1.2120 ca        1 BZZ     -0.250300
      4 C4'         1.3850    0.0100    2.4330 ca        1 BZZ     -0.050000
      5 C5'         0.0010   -0.0490    2.4220 ca        1 BZZ     -0.127000
      6 C6'        -0.6950   -0.0770    1.2030 ca        1 BZZ      0.029000
      7 NX1         4.1570   -1.2610    1.2170 n4        1 BZZ     -0.672800
      8 NX2         5.5790   -1.3870    1.2220 n4        1 BZZ     -0.669400
      9 C1          3.5350    0.2530    1.2160 c3        1 BZZ      0.250100
     10 H1'        -0.5490   -0.0610   -0.9660 ha        1 BZZ      0.196000
     11 H2'         1.9370    0.0610   -0.9720 ha        1 BZZ      0.156000
     12 H4'         1.9230    0.0600    3.3940 ha        1 BZZ      0.156000
     13 H5'        -0.5620   -0.0620    3.3740 ha        1 BZZ      0.196000
     14 H6'        -1.8020   -0.1150    1.2000 ha        1 BZZ      0.198000
     15 HNX1        3.7630   -1.7430    2.0530 hn        1 BZZ      0.485800
     16 HX21        5.9680   -0.9170    2.0670 hn        1 BZZ      0.515467
     17 HX22        5.9730   -0.9160    0.3790 hn        1 BZZ      0.515467
     18 H11         3.9420    0.7270    2.1500 hx        1 BZZ      0.123700
     19 H12         3.9470    0.7280    0.2850 hx        1 BZZ      0.123700
     20 HX12        3.7680   -1.7430    0.3790 hn        1 BZZ      0.485800
     21 HX23        5.8860   -2.3840    1.2220 hn        1 BZZ      0.515467
@<TRIPOS>BOND
     1    1    2 ar  
     2    1    6 ar  
     3    1   10 1   
     4    2    3 ar  
     5    2   11 1   
     6    3    4 ar  
     7    3    9 1   
     8    4    5 ar  
     9    4   12 1   
    10    5    6 ar  
    11    5   13 1   
    12    6   14 1   
    13    7    8 1   
    14    7    9 1   
    15    7   15 1   
    16    7   20 1   
    17    8   16 1   
    18    8   17 1   
    19    8   21 1   
    20    9   18 1   
    21    9   19 1   
@<TRIPOS>SUBSTRUCTURE
     1 BZZ         1 TEMP              0 ****  ****    0 ROOT
