@<TRIPOS>MOLECULE
BZZ
   19    19     1     0     0
SMALL
bcc


@<TRIPOS>ATOM
      1 C1'         0.8370   -0.4370    0.5150 ca        1 BZZ     -0.129500
      2 C2'         0.7460   -0.3930    1.9070 ca        1 BZZ     -0.120000
      3 C3'         1.7380   -0.9880    2.6920 ca        1 BZZ     -0.089300
      4 C4'         2.8240   -1.6180    2.0750 ca        1 BZZ     -0.120000
      5 C5'         2.9130   -1.6580    0.6850 ca        1 BZZ     -0.129500
      6 C6'         1.9190   -1.0680   -0.0960 ca        1 BZZ     -0.127000
      7 NX1         2.6280   -0.0830    4.8090 n3        1 BZZ     -0.603000
      8 NX2         2.9420   -0.4030    6.1220 n3        1 BZZ     -0.677600
      9 C1          1.6310   -0.9740    4.1870 c3        1 BZZ      0.184100
     10 H1'         0.0530    0.0310   -0.0990 ha        1 BZZ      0.132000
     11 H2'        -0.1050    0.1120    2.3860 ha        1 BZZ      0.134000
     12 H4'         3.6060   -2.0880    2.6910 ha        1 BZZ      0.134000
     13 H5'         3.7680   -2.1550    0.2040 ha        1 BZZ      0.132000
     14 H6'         1.9900   -1.1000   -1.1930 ha        1 BZZ      0.132000
     15 HNX1        3.4940   -0.1760    4.2840 hn        1 BZZ      0.361800
     16 HX21        3.3770    0.4270    6.5100 hn        1 BZZ      0.345300
     17 HX22        2.0780   -0.5350    6.6330 hn        1 BZZ      0.345300
     18 H11         0.6190   -0.5820    4.4950 h1        1 BZZ      0.047700
     19 H12         1.7020   -2.0430    4.5480 h1        1 BZZ      0.047700
@<TRIPOS>BOND
     1    1    2 ar  
     2    1    6 ar  
     3    1   10 1   
     4    2    3 ar  
     5    2   11 1   
     6    3    4 ar  
     7    3    9 1   
     8    4    5 ar  
     9    4   12 1   
    10    5    6 ar  
    11    5   13 1   
    12    6   14 1   
    13    7    8 1   
    14    7    9 1   
    15    7   15 1   
    16    8   16 1   
    17    8   17 1   
    18    9   18 1   
    19    9   19 1   
@<TRIPOS>SUBSTRUCTURE
     1 BZZ         1 TEMP              0 ****  ****    0 ROOT
