@<TRIPOS>MOLECULE
BZZ
   21    21     1     0     0
SMALL
bcc


@<TRIPOS>ATOM
      1 C1'         0.0090   -0.0400   -0.0110 ca        1 BZZ     -0.127000
      2 C2'         1.3940    0.0150   -0.0140 ca        1 BZZ     -0.050000
      3 C3'         2.1060    0.0580    1.2120 ca        1 BZZ     -0.250300
      4 C4'         1.3860    0.0130    2.4330 ca        1 BZZ     -0.050000
      5 C5'         0.0020   -0.0420    2.4220 ca        1 BZZ     -0.127000
      6 C6'        -0.6940   -0.0670    1.2030 ca        1 BZZ      0.029000
      7 NX1         4.1540   -1.2670    1.2170 ny        1 BZZ     -0.672800
      8 NX2         5.5750   -1.3970    1.2220 nz        1 BZZ     -0.669400
      9 C1          3.5380    0.2500    1.2160 c3        1 BZZ      0.250100
     10 H1'        -0.5480   -0.0510   -0.9670 ha        1 BZZ      0.196000
     11 H2'         1.9380    0.0640   -0.9720 ha        1 BZZ      0.156000
     12 H4'         1.9250    0.0600    3.3940 ha        1 BZZ      0.156000
     13 H5'        -0.5610   -0.0540    3.3740 ha        1 BZZ      0.196000
     14 H6'        -1.8010   -0.1010    1.2000 ha        1 BZZ      0.198000
     15 HNX1        3.7590   -1.7480    2.0520 hn        1 BZZ      0.485800
     16 HX21        5.9660   -0.9290    2.0680 hn        1 BZZ      0.515467
     17 HX22        5.9720   -0.9270    0.3800 hn        1 BZZ      0.515467
     18 H11         3.9460    0.7220    2.1510 hx        1 BZZ      0.123700
     19 H12         3.9510    0.7240    0.2850 hx        1 BZZ      0.123700
     20 HX12        3.7650   -1.7460    0.3780 hn        1 BZZ      0.485800
     21 HX23        5.8800   -2.3950    1.2220 hn        1 BZZ      0.515467
@<TRIPOS>BOND
     1    1    2 ar  
     2    1    6 ar  
     3    1   10 1   
     4    2    3 ar  
     5    2   11 1   
     6    3    4 ar  
     7    3    9 1   
     8    4    5 ar  
     9    4   12 1   
    10    5    6 ar  
    11    5   13 1   
    12    6   14 1   
    13    7    8 1   
    14    7    9 1   
    15    7   15 1   
    16    7   20 1   
    17    8   16 1   
    18    8   17 1   
    19    8   21 1   
    20    9   18 1   
    21    9   19 1   
@<TRIPOS>SUBSTRUCTURE
     1 BZZ         1 TEMP              0 ****  ****    0 ROOT
