@<TRIPOS>MOLECULE
400
   67    71     1     0     0
SMALL
bcc


@<TRIPOS>ATOM
      1 C1         -0.5800    2.6900    0.5330 cc        1 400      0.480200
      2 N2          0.2220    3.7880    0.7940 nd        1 400     -0.478800
      3 N3          0.5720    3.7580    2.0800 na        1 400      0.010400
      4 C4         -0.7360    1.9160    1.7510 cc        1 400     -0.213400
      5 C5          0.0400    2.6550    2.7360 cd        1 400     -0.090300
      6 C6          0.0050    2.0430    4.0030 cd        1 400     -0.011000
      7 C7         -0.7820    0.8780    3.9320 cc        1 400     -0.311700
      8 S8         -1.4290    0.5900    2.3860 ss        1 400      0.262200
      9 N9         -1.1470    2.3870   -0.7000 ns        1 400     -0.530400
     10 C10        -1.9430    1.2620   -0.9180 c         1 400      0.724700
     11 C11        -2.4950    1.0780   -2.2750 ca        1 400     -0.229600
     12 O12        -2.1540    0.4410    0.0060 o         1 400     -0.650100
     13 C13        -2.6970   -0.2310   -2.7360 ca        1 400     -0.036000
     14 C14        -3.2140   -0.4710   -3.9970 ca        1 400     -0.211500
     15 C15        -3.5830    0.6010   -4.8570 ca        1 400      0.224600
     16 C16        -3.3670    1.9220   -4.3710 ca        1 400     -0.211500
     17 C17        -2.8410    2.1470   -3.1100 ca        1 400     -0.036000
     18 N18        -4.1980    0.3700   -6.0870 nh        1 400     -0.640000
     19 C19        -4.2490    1.4760   -7.0270 c3        1 400      0.199300
     20 C20        -4.9900    1.1780   -8.3440 c3        1 400      0.159800
     21 N21        -4.6220   -0.1030   -8.9230 n3        1 400     -0.728600
     22 C22        -4.8470   -1.1790   -7.9720 c3        1 400      0.159800
     23 C23        -4.1000   -0.9680   -6.6410 c3        1 400      0.199300
     24 C24        -5.2510   -0.3430  -10.2020 c3        1 400      0.154100
     25 C25        -0.9690    0.0720    5.1040 c         1 400      0.618700
     26 O26        -0.5470    0.2500    6.2420 o         1 400     -0.459100
     27 N27        -1.7750   -1.2070    4.9080 ny        1 400     -0.680800
     28 C28        -2.8670   -1.3790    5.9440 c3        1 400      0.190800
     29 C29        -4.0640   -0.5530    5.5800 ca        1 400     -0.171300
     30 C30        -3.2480   -2.8560    6.1060 c3        1 400     -0.107400
     31 C31        -4.4390    0.5120    6.4070 ca        1 400     -0.107000
     32 C32        -5.5700    1.2680    6.0980 ca        1 400     -0.116500
     33 C33        -6.3220    0.9690    4.9620 ca        1 400     -0.088000
     34 C34        -5.9470   -0.0910    4.1340 ca        1 400     -0.116500
     35 C35        -4.8230   -0.8530    4.4420 ca        1 400     -0.107000
     36 C36        -2.1220   -3.7000    6.6430 c3        1 400     -0.119100
     37 H9         -0.9420    2.9930   -1.4660 hn        1 400      0.351500
     38 H3          1.1690    4.4620    2.4520 hn        1 400      0.350700
     39 H6          0.5070    2.4040    4.9060 ha        1 400      0.186000
     40 H13        -2.4360   -1.0770   -2.0790 ha        1 400      0.140000
     41 H17        -2.7200    3.1900   -2.7740 ha        1 400      0.140000
     42 H14        -3.3320   -1.5180   -4.3160 ha        1 400      0.146500
     43 H16        -3.6160    2.7980   -4.9890 ha        1 400      0.146500
     44 H191       -3.2030    1.8250   -7.2700 h1        1 400      0.049450
     45 H192       -4.8040    2.3270   -6.5370 h1        1 400      0.049450
     46 H231       -3.0160   -1.2480   -6.7860 h1        1 400      0.049450
     47 H232       -4.5580   -1.6870   -5.9030 h1        1 400      0.049450
     48 H201       -6.1010    1.2490   -8.1560 h1        1 400      0.046450
     49 H202       -4.7110    1.9880   -9.0750 h1        1 400      0.046450
     50 H221       -4.4610   -2.1350   -8.4240 h1        1 400      0.046450
     51 H222       -5.9460   -1.3190   -7.7500 h1        1 400      0.046450
     52 H241       -4.9720    0.4880  -10.9010 h1        1 400      0.040033
     53 H242       -6.3730   -0.4020  -10.1430 h1        1 400      0.040033
     54 H243       -4.8620   -1.3100  -10.6170 h1        1 400      0.040033
     55 H27        -1.1290   -2.0010    4.9900 hn        1 400      0.451800
     56 H28        -2.4250   -1.0140    6.9240 hx        1 400      0.123700
     57 H301       -3.6240   -3.2750    5.1350 hc        1 400      0.083700
     58 H302       -4.1110   -2.8780    6.8270 hc        1 400      0.083700
     59 H31        -3.8510    0.7520    7.3070 ha        1 400      0.138000
     60 H35        -4.5480   -1.6990    3.7930 ha        1 400      0.138000
     61 H361       -1.3440   -3.9020    5.8670 hc        1 400      0.054033
     62 H362       -2.5240   -4.6890    6.9770 hc        1 400      0.054033
     63 H363       -1.6340   -3.2120    7.5210 hc        1 400      0.054033
     64 H32        -5.8670    2.1000    6.7550 ha        1 400      0.156000
     65 H33        -7.2150    1.5680    4.7190 ha        1 400      0.157000
     66 H34        -6.5430   -0.3290    3.2380 ha        1 400      0.156000
     67 H272       -2.2000   -1.2190    3.9760 hn        1 400      0.451800
@<TRIPOS>BOND
     1    1    2 2   
     2    1    4 1   
     3    1    9 1   
     4    2    3 1   
     5    3    5 1   
     6    3   38 1   
     7    4    5 2   
     8    4    8 1   
     9    5    6 1   
    10    6    7 2   
    11    6   39 1   
    12    7    8 1   
    13    7   25 1   
    14    9   10 1   
    15    9   37 1   
    16   10   11 1   
    17   10   12 2   
    18   11   13 ar  
    19   11   17 ar  
    20   13   14 ar  
    21   13   40 1   
    22   14   15 ar  
    23   14   42 1   
    24   15   16 ar  
    25   15   18 1   
    26   16   17 ar  
    27   16   43 1   
    28   17   41 1   
    29   18   19 1   
    30   18   23 1   
    31   19   20 1   
    32   19   44 1   
    33   19   45 1   
    34   20   21 1   
    35   20   48 1   
    36   20   49 1   
    37   21   22 1   
    38   21   24 1   
    39   22   23 1   
    40   22   50 1   
    41   22   51 1   
    42   23   46 1   
    43   23   47 1   
    44   24   52 1   
    45   24   53 1   
    46   24   54 1   
    47   25   26 2   
    48   25   27 1   
    49   27   28 1   
    50   27   55 1   
    51   27   67 1   
    52   28   29 1   
    53   28   30 1   
    54   28   56 1   
    55   29   31 ar  
    56   29   35 ar  
    57   30   36 1   
    58   30   57 1   
    59   30   58 1   
    60   31   32 ar  
    61   31   59 1   
    62   32   33 ar  
    63   32   64 1   
    64   33   34 ar  
    65   33   65 1   
    66   34   35 ar  
    67   34   66 1   
    68   35   60 1   
    69   36   61 1   
    70   36   62 1   
    71   36   63 1   
@<TRIPOS>SUBSTRUCTURE
     1 400         1 TEMP              0 ****  ****    0 ROOT
