@<TRIPOS>MOLECULE
400
   68    72     1     0     0
SMALL
bcc


@<TRIPOS>ATOM
      1 C1         -5.0970    1.8180   -0.1640 cc        1 400      0.386200
      2 N2         -4.9520    3.1440   -0.5460 nd        1 400     -0.394800
      3 N3         -4.3750    3.7970    0.4370 na        1 400      0.071400
      4 C4         -4.5630    1.6290    1.1650 cc        1 400     -0.189400
      5 C5         -4.0990    2.9630    1.5190 cd        1 400     -0.098300
      6 C6         -3.5140    3.0180    2.8070 cd        1 400      0.010000
      7 C7         -3.5620    1.7480    3.3860 cc        1 400     -0.246700
      8 S8         -4.2480    0.5660    2.3770 ss        1 400      0.203200
      9 N9         -5.6980    0.8060   -1.0010 n4        1 400     -0.636500
     10 C10        -4.6540   -0.2260   -1.5230 c         1 400      0.605700
     11 C11        -4.1670   -0.0400   -2.8490 ca        1 400     -0.314600
     12 O12        -4.4470   -1.1100   -0.6960 o         1 400     -0.503100
     13 C13        -3.4440   -1.1260   -3.4170 ca        1 400      0.005000
     14 C14        -2.9610   -1.0730   -4.6980 ca        1 400     -0.229000
     15 C15        -3.1720    0.0800   -5.5320 ca        1 400      0.285600
     16 C16        -3.8480    1.1960   -4.9150 ca        1 400     -0.229000
     17 C17        -4.3290    1.1260   -3.6340 ca        1 400      0.005000
     18 N18        -2.7740    0.1120   -6.8320 nh        1 400     -0.592000
     19 C19        -2.8980    1.3440   -7.5940 c3        1 400      0.193800
     20 C20        -2.6470    1.2220   -9.1100 c3        1 400      0.156300
     21 N21        -1.5300    0.3490   -9.4210 n3        1 400     -0.729600
     22 C22        -1.7730   -0.9810   -8.8920 c3        1 400      0.156300
     23 C23        -1.9800   -0.9840   -7.3660 c3        1 400      0.193800
     24 C24        -1.1770    0.3500  -10.8240 c3        1 400      0.151100
     25 C25        -2.9870    1.5330    4.7030 c         1 400      0.592700
     26 O26        -2.0790    2.1780    5.2120 o         1 400     -0.398100
     27 N27        -3.5990    0.4460    5.5460 n4        1 400     -0.681800
     28 C28        -2.5720   -0.5360    6.1240 c3        1 400      0.208800
     29 C29        -2.7850   -0.6450    7.6020 ca        1 400     -0.200300
     30 C30        -2.6600   -1.9000    5.4390 c3        1 400     -0.114400
     31 C31        -1.8230   -0.1160    8.4720 ca        1 400     -0.101500
     32 C32        -1.9880   -0.2450    9.8510 ca        1 400     -0.115000
     33 C33        -3.1130   -0.8910   10.3650 ca        1 400     -0.071000
     34 C34        -4.0780   -1.4120    9.4980 ca        1 400     -0.115000
     35 C35        -3.9160   -1.2910    8.1200 ca        1 400     -0.101500
     36 C36        -2.2540   -1.8640    3.9910 c3        1 400     -0.109100
     37 H9         -6.1750    1.2400   -1.8020 hn        1 400      0.467300
     38 H3         -4.1790    4.7790    0.3520 hn        1 400      0.379700
     39 H6         -3.0860    3.9130    3.2750 ha        1 400      0.211000
     40 H13        -3.2760   -2.0290   -2.8030 ha        1 400      0.144000
     41 H17        -4.8200    2.0230   -3.2230 ha        1 400      0.144000
     42 H14        -2.3940   -1.9380   -5.0800 ha        1 400      0.164500
     43 H16        -3.9770    2.1370   -5.4730 ha        1 400      0.164500
     44 H191       -3.9480    1.7400   -7.4740 h1        1 400      0.065700
     45 H192       -2.1730    2.0970   -7.1660 h1        1 400      0.065700
     46 H231       -2.4920   -1.9580   -7.1130 h1        1 400      0.065700
     47 H232       -0.9690   -0.9630   -6.8620 h1        1 400      0.065700
     48 H201       -3.6030    0.8810   -9.6060 h1        1 400      0.059450
     49 H202       -2.4090    2.2560   -9.4900 h1        1 400      0.059450
     50 H221       -0.8700   -1.6210   -9.1050 h1        1 400      0.059450
     51 H222       -2.6680   -1.4720   -9.3770 h1        1 400      0.059450
     52 H241       -0.2650   -0.2870  -10.9640 h1        1 400      0.050033
     53 H242       -0.9340    1.4010  -11.1310 h1        1 400      0.050033
     54 H243       -1.9970   -0.0400  -11.4870 h1        1 400      0.050033
     55 H27        -4.2950   -0.0740    5.0060 hn        1 400      0.459800
     56 H28        -1.5530   -0.0830    5.9180 hx        1 400      0.119700
     57 H301       -1.9620   -2.5800    6.0050 hc        1 400      0.094700
     58 H302       -3.6890   -2.3360    5.5480 hc        1 400      0.094700
     59 H31        -0.9290    0.3920    8.0750 ha        1 400      0.138000
     60 H35        -4.6710   -1.7230    7.4460 ha        1 400      0.138000
     61 H361       -2.9630   -1.2480    3.3780 hc        1 400      0.049367
     62 H362       -2.2560   -2.9020    3.5730 hc        1 400      0.049367
     63 H363       -1.2240   -1.4460    3.8690 hc        1 400      0.049367
     64 H32        -1.2250    0.1620   10.5340 ha        1 400      0.165000
     65 H33        -3.2400   -0.9940   11.4550 ha        1 400      0.168000
     66 H34        -4.9640   -1.9250    9.9050 ha        1 400      0.165000
     67 H92        -6.3920    0.3040   -0.4320 hn        1 400      0.467300
     68 H272       -4.0760    0.8980    6.3420 hn        1 400      0.459800
@<TRIPOS>BOND
     1    1    2 2   
     2    1    4 1   
     3    1    9 1   
     4    2    3 1   
     5    3    5 1   
     6    3   38 1   
     7    4    5 2   
     8    4    8 1   
     9    5    6 1   
    10    6    7 2   
    11    6   39 1   
    12    7    8 1   
    13    7   25 1   
    14    9   10 1   
    15    9   37 1   
    16    9   67 1   
    17   10   11 1   
    18   10   12 2   
    19   11   13 ar  
    20   11   17 ar  
    21   13   14 ar  
    22   13   40 1   
    23   14   15 ar  
    24   14   42 1   
    25   15   16 ar  
    26   15   18 1   
    27   16   17 ar  
    28   16   43 1   
    29   17   41 1   
    30   18   19 1   
    31   18   23 1   
    32   19   20 1   
    33   19   44 1   
    34   19   45 1   
    35   20   21 1   
    36   20   48 1   
    37   20   49 1   
    38   21   22 1   
    39   21   24 1   
    40   22   23 1   
    41   22   50 1   
    42   22   51 1   
    43   23   46 1   
    44   23   47 1   
    45   24   52 1   
    46   24   53 1   
    47   24   54 1   
    48   25   26 2   
    49   25   27 1   
    50   27   28 1   
    51   27   55 1   
    52   27   68 1   
    53   28   29 1   
    54   28   30 1   
    55   28   56 1   
    56   29   31 ar  
    57   29   35 ar  
    58   30   36 1   
    59   30   57 1   
    60   30   58 1   
    61   31   32 ar  
    62   31   59 1   
    63   32   33 ar  
    64   32   64 1   
    65   33   34 ar  
    66   33   65 1   
    67   34   35 ar  
    68   34   66 1   
    69   35   60 1   
    70   36   61 1   
    71   36   62 1   
    72   36   63 1   
@<TRIPOS>SUBSTRUCTURE
     1 400         1 TEMP              0 ****  ****    0 ROOT
