@<TRIPOS>MOLECULE
400
   67    71     1     0     0
SMALL
bcc


@<TRIPOS>ATOM
      1 C1         -0.7310    2.8380    0.5370 cc        1 400      0.480200
      2 N2          0.0040    3.9820    0.7970 nd        1 400     -0.478800
      3 N3          0.3510    3.9760    2.0850 na        1 400      0.010400
      4 C4         -0.8450    2.0590    1.7570 cc        1 400     -0.213400
      5 C5         -0.1180    2.8450    2.7420 cd        1 400     -0.090300
      6 C6         -0.1200    2.2350    4.0110 cd        1 400     -0.011000
      7 C7         -0.8380    1.0260    3.9410 cc        1 400     -0.311700
      8 S8         -1.4620    0.6970    2.3940 ss        1 400      0.262200
      9 N9         -1.2740    2.4990   -0.6970 n         1 400     -0.530400
     10 C10        -2.0030    1.3280   -0.9150 c         1 400      0.724700
     11 C11        -2.5390    1.1090   -2.2730 ca        1 400     -0.229600
     12 O12        -2.1690    0.4990    0.0120 o         1 400     -0.650100
     13 C13        -2.6620   -0.2100   -2.7310 ca        1 400     -0.036000
     14 C14        -3.1600   -0.4830   -3.9930 ca        1 400     -0.211500
     15 C15        -3.5890    0.5640   -4.8560 ca        1 400      0.224600
     16 C16        -3.4520    1.8960   -4.3740 ca        1 400     -0.211500
     17 C17        -2.9450    2.1550   -3.1110 ca        1 400     -0.036000
     18 N18        -4.1860    0.2940   -6.0880 nh        1 400     -0.640000
     19 C19        -4.2980    1.3920   -7.0310 c3        1 400      0.199300
     20 C20        -5.0170    1.0490   -8.3490 c3        1 400      0.159800
     21 N21        -4.5740   -0.2100   -8.9230 n3        1 400     -0.728600
     22 C22        -4.7370   -1.2950   -7.9700 c3        1 400      0.159800
     23 C23        -4.0070   -1.0370   -6.6390 c3        1 400      0.199300
     24 C24        -5.1840   -0.4900  -10.2040 c3        1 400      0.154100
     25 C25        -0.9820    0.2140    5.1140 c         1 400      0.618700
     26 O26        -0.5760    0.4200    6.2530 o         1 400     -0.459100
     27 N27        -1.7110   -1.1100    4.9210 n4        1 400     -0.680800
     28 C28        -2.8000   -1.3400    5.9490 c3        1 400      0.190800
     29 C29        -4.0400   -0.5870    5.5700 ca        1 400     -0.171300
     30 C30        -3.0950   -2.8350    6.1170 c3        1 400     -0.107400
     31 C31        -4.4820    0.4600    6.3870 ca        1 400     -0.107000
     32 C32        -5.6520    1.1470    6.0630 ca        1 400     -0.116500
     33 C33        -6.3780    0.7980    4.9240 ca        1 400     -0.088000
     34 C34        -5.9350   -0.2440    4.1060 ca        1 400     -0.116500
     35 C35        -4.7700   -0.9380    4.4280 ca        1 400     -0.107000
     36 C36        -1.9270   -3.6080    6.6690 c3        1 400     -0.119100
     37 H9         -1.1030    3.1130   -1.4640 hn        1 400      0.351500
     38 H3          0.9060    4.7140    2.4570 hn        1 400      0.350700
     39 H6          0.3560    2.6280    4.9150 ha        1 400      0.186000
     40 H13        -2.3540   -1.0380   -2.0710 ha        1 400      0.140000
     41 H17        -2.8860    3.2030   -2.7770 ha        1 400      0.140000
     42 H14        -3.2160   -1.5360   -4.3090 ha        1 400      0.146500
     43 H16        -3.7510    2.7540   -4.9940 ha        1 400      0.146500
     44 H191       -4.9040    2.2110   -6.5440 h1        1 400      0.049450
     45 H192       -3.2740    1.8010   -7.2720 h1        1 400      0.049450
     46 H231       -2.9080   -1.2540   -6.7800 h1        1 400      0.049450
     47 H232       -4.4250   -1.7810   -5.9000 h1        1 400      0.049450
     48 H201       -6.1310    1.0550   -8.1640 h1        1 400      0.046450
     49 H202       -4.7840    1.8720   -9.0810 h1        1 400      0.046450
     50 H221       -4.2950   -2.2280   -8.4190 h1        1 400      0.046450
     51 H222       -5.8260   -1.4990   -7.7510 h1        1 400      0.046450
     52 H241       -4.7380   -1.4330  -10.6150 h1        1 400      0.040033
     53 H242       -4.9520    0.3550  -10.9040 h1        1 400      0.040033
     54 H243       -6.3000   -0.6150  -10.1480 h1        1 400      0.040033
     55 H27        -2.1270   -1.1520    3.9850 hn        1 400      0.451800
     56 H28        -2.3880   -0.9430    6.9300 hx        1 400      0.123700
     57 H301       -3.4380   -3.2810    5.1470 hc        1 400      0.083700
     58 H302       -3.9620   -2.9030    6.8330 hc        1 400      0.083700
     59 H31        -3.9160    0.7400    7.2890 ha        1 400      0.138000
     60 H35        -4.4420   -1.7710    3.7880 ha        1 400      0.138000
     61 H361       -2.2730   -4.6170    7.0070 hc        1 400      0.054033
     62 H362       -1.1320   -3.7690    5.9010 hc        1 400      0.054033
     63 H363       -1.4750   -3.0870    7.5490 hc        1 400      0.054033
     64 H32        -6.0030    1.9650    6.7120 ha        1 400      0.156000
     65 H33        -7.3010    1.3420    4.6700 ha        1 400      0.157000
     66 H34        -6.5080   -0.5220    3.2080 ha        1 400      0.156000
     67 H272       -1.0210   -1.8650    5.0130 hn        1 400      0.451800
@<TRIPOS>BOND
     1    1    2 2   
     2    1    4 1   
     3    1    9 1   
     4    2    3 1   
     5    3    5 1   
     6    3   38 1   
     7    4    5 2   
     8    4    8 1   
     9    5    6 1   
    10    6    7 2   
    11    6   39 1   
    12    7    8 1   
    13    7   25 1   
    14    9   10 1   
    15    9   37 1   
    16   10   11 1   
    17   10   12 2   
    18   11   13 ar  
    19   11   17 ar  
    20   13   14 ar  
    21   13   40 1   
    22   14   15 ar  
    23   14   42 1   
    24   15   16 ar  
    25   15   18 1   
    26   16   17 ar  
    27   16   43 1   
    28   17   41 1   
    29   18   19 1   
    30   18   23 1   
    31   19   20 1   
    32   19   44 1   
    33   19   45 1   
    34   20   21 1   
    35   20   48 1   
    36   20   49 1   
    37   21   22 1   
    38   21   24 1   
    39   22   23 1   
    40   22   50 1   
    41   22   51 1   
    42   23   46 1   
    43   23   47 1   
    44   24   52 1   
    45   24   53 1   
    46   24   54 1   
    47   25   26 2   
    48   25   27 1   
    49   27   28 1   
    50   27   55 1   
    51   27   67 1   
    52   28   29 1   
    53   28   30 1   
    54   28   56 1   
    55   29   31 ar  
    56   29   35 ar  
    57   30   36 1   
    58   30   57 1   
    59   30   58 1   
    60   31   32 ar  
    61   31   59 1   
    62   32   33 ar  
    63   32   64 1   
    64   33   34 ar  
    65   33   65 1   
    66   34   35 ar  
    67   34   66 1   
    68   35   60 1   
    69   36   61 1   
    70   36   62 1   
    71   36   63 1   
@<TRIPOS>SUBSTRUCTURE
     1 400         1 TEMP              0 ****  ****    0 ROOT
