@<TRIPOS>MOLECULE
400
   66    62     1     0     0
SMALL
bcc


@<TRIPOS>ATOM
      1 C1          2.5110    0.3590   -0.0520 c1        1 400      0.083000
      2 N2          3.8830    0.2580   -0.0380 n2        1 400     -0.051000
      3 N3          4.3140    0.3300    1.2970 n2        1 400     -0.143000
      4 C4          2.0840    0.4920    1.2430 c2        1 400     -0.496000
      5 C5          3.2240    0.4730    2.0810 c2        1 400     -0.055000
      6 C6          2.7320    0.5460    3.6150 c1        1 400     -0.116000
      7 C7          1.2960    0.6070    3.6260 c1        1 400     -0.414000
      8 S8          0.8110    0.5780    2.1630 ss        1 400      0.725000
      9 N9          1.6720    0.3960   -1.2330 n2        1 400     -0.314000
     10 C10         2.2770    0.4280   -2.5520 c2        1 400      0.362000
     11 C11         1.3840    0.3820   -3.8130 c2        1 400     -0.165000
     12 O12         3.4890    0.4250   -2.6650 o         1 400     -0.314000
     13 C13         1.0300   -0.8830   -4.2730 c2        1 400     -0.072000
     14 C14         0.1690   -1.0130   -5.3660 c1        1 400     -0.198000
     15 C15        -0.3340    0.1230   -5.9940 c1        1 400      0.094000
     16 C16         0.0210    1.3880   -5.5330 c1        1 400     -0.177000
     17 C17         0.8810    1.5170   -4.4420 c1        1 400     -0.050000
     18 N18        -1.2250   -0.0120   -7.1490 n3        1 400     -0.243000
     19 C19        -0.5110   -0.5800   -8.2380 c3        1 400     -0.047500
     20 C20        -1.4130   -0.8850   -9.4290 c3        1 400     -0.073000
     21 N21        -2.5530   -1.6510   -9.0620 n3        1 400     -0.258000
     22 C22        -3.2680   -1.0830   -7.9710 c3        1 400     -0.073000
     23 C23        -2.3680   -0.7800   -6.7830 c3        1 400     -0.047500
     24 C24        -3.4350   -1.7800  -10.2010 c3        1 400     -0.120000
     25 C25         0.4190    0.7930    4.8540 c1        1 400      0.375000
     26 O26        -0.7860    0.8290    4.7370 o         1 400     -0.368000
     27 N27         1.0110    0.8470    6.1490 n3        1 400     -0.359000
     28 C28         0.2070    1.1540    7.2860 c3        1 400      0.058000
     29 C29        -0.1960   -0.1270    7.9760 c2        1 400     -0.104000
     30 C30         0.9950    2.0140    8.2420 c3        1 400     -0.162000
     31 C31        -1.5600   -0.3760    7.9600 c2        1 400     -0.111000
     32 C32        -2.0710   -1.4810    8.6230 c1        1 400     -0.130000
     33 C33        -1.2180   -2.3380    9.3030 c1        1 400     -0.127500
     34 C34         0.1470   -2.0890    9.3200 c1        1 400     -0.127500
     35 C35         0.6570   -0.9830    8.6570 c1        1 400     -0.125000
     36 C36         0.2530    3.2980    8.4890 c3        1 400     -0.211000
     37 H9          0.7640    0.3730   -1.1480 hn        1 400      0.241000
     38 H3          5.1770    0.2880    1.5830 DU        1 400      0.216000
     39 H6          3.3110    0.5490    4.4050 DU        1 400      0.216000
     40 H13         1.3830   -1.6810   -3.8320 ha        1 400      0.134000
     41 H17         1.1310    2.4090   -4.1170 ha        1 400      0.154000
     42 H14        -0.0800   -1.9000   -5.6890 ha        1 400      0.138000
     43 H16        -0.3330    2.1880   -5.9760 ha        1 400      0.142000
     44 H191        0.1860    0.0460   -8.5200 h1        1 400      0.086500
     45 H192       -0.0880   -1.4100   -7.9400 h1        1 400      0.086500
     46 H231       -2.0680   -1.6240   -6.3890 h1        1 400      0.086500
     47 H232       -2.8820   -0.2830   -6.1140 h1        1 400      0.086500
     48 H201       -1.7120   -0.0410   -9.8240 h1        1 400      0.080250
     49 H202       -0.8990   -1.3820  -10.0960 h1        1 400      0.080250
     50 H221       -3.9660   -1.7110   -7.6880 h1        1 400      0.080250
     51 H222       -3.6900   -0.2520   -8.2680 h1        1 400      0.080250
     52 H241       -4.2280   -2.3040   -9.9440 h1        1 400      0.074000
     53 H242       -3.7150   -0.8870  -10.5000 h1        1 400      0.074000
     54 H243       -2.9630   -2.2370  -10.9300 h1        1 400      0.074000
     55 H27         1.8870    0.6120    6.2610 hn        1 400      0.222000
     56 H28        -0.5940    1.6360    6.9980 h1        1 400      0.136000
     57 H301        1.1130    1.5380    9.0880 hc        1 400      0.086000
     58 H302        1.8700    2.2130    7.8560 hc        1 400      0.086000
     59 H31        -2.1620    0.2280    7.4790 ha        1 400      0.141000
     60 H35         1.6200   -0.8070    8.6680 ha        1 400      0.126000
     61 H361       -0.6910    3.1000    8.6660 hc        1 400      0.077667
     62 H362        0.3230    3.8740    7.7000 hc        1 400      0.077667
     63 H363        0.6400    3.7550    9.2620 hc        1 400      0.077667
     64 H32        -3.0350   -1.6570    8.6110 ha        1 400      0.134000
     65 H33        -1.5790   -3.1190    9.7720 ha        1 400      0.132000
     66 H34         0.7480   -2.6930    9.8000 ha        1 400      0.132000
@<TRIPOS>BOND
     1    1    2 1   
     2    1    4 1   
     3    2    3 1   
     4    3    5 1   
     5    4    5 1   
     6    4    8 1   
     7    5    6 1   
     8    6    7 1   
     9    7    8 1   
    10    9   10 1   
    11    9   37 1   
    12   10   11 1   
    13   10   12 1   
    14   11   13 1   
    15   11   17 1   
    16   13   14 1   
    17   13   40 1   
    18   14   42 1   
    19   15   16 1   
    20   15   18 1   
    21   16   43 1   
    22   17   41 1   
    23   18   19 1   
    24   18   23 1   
    25   19   20 1   
    26   19   44 1   
    27   19   45 1   
    28   20   21 1   
    29   20   48 1   
    30   20   49 1   
    31   21   22 1   
    32   21   24 1   
    33   22   23 1   
    34   22   50 1   
    35   22   51 1   
    36   23   46 1   
    37   23   47 1   
    38   24   52 1   
    39   24   53 1   
    40   24   54 1   
    41   25   26 1   
    42   25   27 1   
    43   27   28 1   
    44   27   55 1   
    45   28   29 1   
    46   28   30 1   
    47   28   56 1   
    48   29   31 1   
    49   29   35 1   
    50   30   36 1   
    51   30   57 1   
    52   30   58 1   
    53   31   32 1   
    54   31   59 1   
    55   32   64 1   
    56   33   34 1   
    57   33   65 1   
    58   34   66 1   
    59   35   60 1   
    60   36   61 1   
    61   36   62 1   
    62   36   63 1   
@<TRIPOS>SUBSTRUCTURE
     1 400         1 TEMP              0 ****  ****    0 ROOT
