@<TRIPOS>MOLECULE
400
   66    70     1     0     0
SMALL
bcc


@<TRIPOS>ATOM
      1 C1          0.0990   -2.5040   -0.9430 cc        1 400      0.473200
      2 N2          0.1890   -3.6790   -1.6590 nd        1 400     -0.474800
      3 N3          1.4820   -3.9710   -1.8250 na        1 400      0.007400
      4 C4          1.4380   -2.0390   -0.6100 cc        1 400     -0.248400
      5 C5          2.3000   -3.0470   -1.1830 cd        1 400     -0.087300
      6 C6          3.6780   -2.7710   -0.9730 cd        1 400     -0.064000
      7 C7          3.8090   -1.5900   -0.2610 cc        1 400     -0.155700
      8 S8          2.3230   -0.8670    0.1390 ss        1 400      0.068200
      9 N9         -1.0710   -1.8310   -0.5930 n         1 400     -0.544400
     10 C10        -2.2890   -2.4590   -0.3210 c         1 400      0.686700
     11 C11        -3.4610   -1.5570   -0.1510 ca        1 400     -0.185600
     12 O12        -2.3850   -3.6920   -0.2120 o         1 400     -0.554100
     13 C13        -4.6970   -1.9770   -0.6580 ca        1 400     -0.061500
     14 C14        -5.8270   -1.1840   -0.5190 ca        1 400     -0.187500
     15 C15        -5.7600    0.0650    0.1480 ca        1 400      0.174600
     16 C16        -4.5050    0.4690    0.6640 ca        1 400     -0.187500
     17 C17        -3.3800   -0.3350    0.5190 ca        1 400     -0.061500
     18 N18        -6.9370    0.8150    0.3560 nh        1 400     -0.642000
     19 C19        -6.8280    1.9870    1.2060 c3        1 400      0.190300
     20 C20        -8.2010    2.6010    1.5510 c3        1 400      0.163800
     21 N21        -9.0290    2.8350    0.3780 n3        1 400     -0.732600
     22 C22        -9.1470    1.6440   -0.4500 c3        1 400      0.163800
     23 C23        -7.7810    1.0260   -0.8100 c3        1 400      0.190300
     24 C24       -10.3130    3.4080    0.7120 c3        1 400      0.156100
     25 C25         5.1310   -1.0490    0.1100 c         1 400      0.703700
     26 O26         6.1680   -1.7320   -0.0120 o         1 400     -0.597100
     27 N27         5.1610    0.2320    0.6400 n         1 400     -0.556900
     28 C28         6.4080    0.9210    0.9010 c3        1 400      0.141000
     29 C29         6.7020    1.9820   -0.1370 ca        1 400     -0.112300
     30 C30         6.4350    1.5740    2.2960 c3        1 400     -0.081400
     31 C31         7.8310    1.8590   -0.9530 ca        1 400     -0.118000
     32 C32         8.1160    2.8380   -1.9050 ca        1 400     -0.130000
     33 C33         7.2720    3.9380   -2.0530 ca        1 400     -0.125000
     34 C34         6.1420    4.0610   -1.2450 ca        1 400     -0.130000
     35 C35         5.8570    3.0860   -0.2900 ca        1 400     -0.118000
     36 C36         6.4360    0.5550    3.4040 c3        1 400     -0.093100
     37 H9         -1.0620   -0.8490   -0.7460 hn        1 400      0.324500
     38 H3          1.7420   -4.8860   -2.1160 hn        1 400      0.330700
     39 H6          4.5130   -3.3900   -1.3120 ha        1 400      0.184000
     40 H13        -4.7670   -2.9570   -1.1590 ha        1 400      0.144000
     41 H17        -2.4270    0.0040    0.9540 ha        1 400      0.144000
     42 H14        -6.7830   -1.5560   -0.9170 ha        1 400      0.139500
     43 H16        -4.3950    1.4280    1.1920 ha        1 400      0.139500
     44 H191       -6.3460    1.6780    2.1760 h1        1 400      0.046200
     45 H192       -6.1870    2.7840    0.7270 h1        1 400      0.046200
     46 H231       -7.2660    1.6960   -1.5590 h1        1 400      0.046200
     47 H232       -7.9810    0.0360   -1.3050 h1        1 400      0.046200
     48 H201       -8.7170    1.9330    2.3010 h1        1 400      0.041450
     49 H202       -8.0130    3.5950    2.0450 h1        1 400      0.041450
     50 H221       -9.7840    0.8530    0.0430 h1        1 400      0.041450
     51 H222       -9.6480    1.9420   -1.4140 h1        1 400      0.041450
     52 H241      -10.1460    4.3630    1.2750 h1        1 400      0.034367
     53 H242      -10.8620    3.6390   -0.2390 h1        1 400      0.034367
     54 H243      -10.9550    2.7300    1.3390 h1        1 400      0.034367
     55 H27         4.3540    0.8040    0.5560 hn        1 400      0.301500
     56 H28         7.2340    0.1420    0.8690 h1        1 400      0.097700
     57 H301        7.3680    2.1950    2.3540 hc        1 400      0.046200
     58 H302        5.5640    2.2690    2.4140 hc        1 400      0.046200
     59 H31         8.4950    0.9870   -0.8470 ha        1 400      0.133500
     60 H35         4.9680    3.1900    0.3500 ha        1 400      0.133500
     61 H361        5.4840   -0.0300    3.4120 hc        1 400      0.038367
     62 H362        7.2840   -0.1620    3.2830 hc        1 400      0.038367
     63 H363        6.5420    1.0650    4.3920 hc        1 400      0.038367
     64 H32         9.0060    2.7370   -2.5430 ha        1 400      0.132500
     65 H33         7.4970    4.7080   -2.8060 ha        1 400      0.132000
     66 H34         5.4750    4.9280   -1.3600 ha        1 400      0.132500
@<TRIPOS>BOND
     1    1    2 2   
     2    1    4 1   
     3    1    9 1   
     4    2    3 1   
     5    3    5 1   
     6    3   38 1   
     7    4    5 2   
     8    4    8 1   
     9    5    6 1   
    10    6    7 2   
    11    6   39 1   
    12    7    8 1   
    13    7   25 1   
    14    9   10 1   
    15    9   37 1   
    16   10   11 1   
    17   10   12 2   
    18   11   13 ar  
    19   11   17 ar  
    20   13   14 ar  
    21   13   40 1   
    22   14   15 ar  
    23   14   42 1   
    24   15   16 ar  
    25   15   18 1   
    26   16   17 ar  
    27   16   43 1   
    28   17   41 1   
    29   18   19 1   
    30   18   23 1   
    31   19   20 1   
    32   19   44 1   
    33   19   45 1   
    34   20   21 1   
    35   20   48 1   
    36   20   49 1   
    37   21   22 1   
    38   21   24 1   
    39   22   23 1   
    40   22   50 1   
    41   22   51 1   
    42   23   46 1   
    43   23   47 1   
    44   24   52 1   
    45   24   53 1   
    46   24   54 1   
    47   25   26 2   
    48   25   27 1   
    49   27   28 1   
    50   27   55 1   
    51   28   29 1   
    52   28   30 1   
    53   28   56 1   
    54   29   31 ar  
    55   29   35 ar  
    56   30   36 1   
    57   30   57 1   
    58   30   58 1   
    59   31   32 ar  
    60   31   59 1   
    61   32   33 ar  
    62   32   64 1   
    63   33   34 ar  
    64   33   65 1   
    65   34   35 ar  
    66   34   66 1   
    67   35   60 1   
    68   36   61 1   
    69   36   62 1   
    70   36   63 1   
@<TRIPOS>SUBSTRUCTURE
     1 400         1 TEMP              0 ****  ****    0 ROOT
