@<TRIPOS>MOLECULE
401
   51    52     1     0     0
SMALL
bcc


@<TRIPOS>ATOM
      1 O22        -0.4910   -0.2740   -0.4500 o         1 401     -0.835800
      2 O23         1.0860    1.3020   -0.5840 o         1 401     -0.835800
      3 C1          0.6300    0.2060   -0.1370 c         1 401      0.907600
      4 C2          1.4890   -0.5780    0.8910 c3        1 401     -0.189700
      5 C3          2.5980   -1.3230    0.1700 c3        1 401     -0.056400
      6 C4          2.0500   -2.4850   -0.6190 c3        1 401     -0.092100
      7 C5          2.0860    0.3790    1.9160 c3        1 401     -0.031100
      8 C6          1.0220    1.0800    2.6870 ca        1 401     -0.046300
      9 C7          0.6390    0.6360    3.9510 ca        1 401     -0.083000
     10 C8         -0.4090    1.2620    4.6400 ca        1 401     -0.240300
     11 C9         -1.0530    2.3680    4.0500 ca        1 401      0.113100
     12 C10        -0.6660    2.8310    2.7900 ca        1 401     -0.185000
     13 C11         0.3610    2.1820    2.1100 ca        1 401     -0.021000
     14 O30        -2.0490    2.9620    4.8190 os        1 401     -0.417900
     15 C21        -2.9710    3.7830    4.1010 c3        1 401      0.121700
     16 C12        -0.8840    0.7280    5.9340 c3        1 401      0.212100
     17 N24        -0.6240    1.7350    7.0370 n4        1 401     -0.678800
     18 C13        -1.2100    1.2910    8.3410 c         1 401      0.558700
     19 O25        -0.4990    0.5600    9.0220 o         1 401     -0.422100
     20 C14        -2.5500    1.7800    8.6900 ca        1 401     -0.211600
     21 C15        -2.9290    1.7640   10.0570 ca        1 401      0.210900
     22 C16        -4.2160    2.1990   10.4390 ca        1 401     -0.129000
     23 C17        -5.1040    2.6350    9.4640 ca        1 401     -0.085300
     24 C18        -4.7410    2.6480    8.1130 ca        1 401     -0.103000
     25 C19        -3.4730    2.2260    7.7310 ca        1 401     -0.071000
     26 C20        -6.4980    3.1240    9.8750 c3        1 401      0.686200
     27 F26        -2.0670    1.3470   11.0040 f         1 401     -0.092900
     28 F27        -6.5540    4.4780   10.0930 f         1 401     -0.218633
     29 F28        -7.4710    2.8790    8.9410 f         1 401     -0.218633
     30 F29        -6.9700    2.5620   11.0330 f         1 401     -0.218633
     31 H2          0.8230   -1.3150    1.4130 hc        1 401      0.040700
     32 H3          3.1180   -0.6070   -0.5210 hc        1 401      0.026700
     33 H3A         3.3580   -1.6920    0.9090 hc        1 401      0.026700
     34 H4          1.1860   -2.1440   -1.2440 hc        1 401      0.033700
     35 H4A         2.8370   -2.9130   -1.2840 hc        1 401      0.033700
     36 H4B         1.6880   -3.2910    0.0650 hc        1 401      0.033700
     37 H5          2.7610   -0.1790    2.6170 hc        1 401      0.050200
     38 H5A         2.7010    1.1380    1.3580 hc        1 401      0.050200
     39 H7          1.1410   -0.2360    4.3990 ha        1 401      0.137000
     40 H10        -1.1780    3.6810    2.3170 ha        1 401      0.152000
     41 H11         0.6430    2.4860    1.0730 ha        1 401      0.236000
     42 H21        -3.7940    3.9650    4.8370 h1        1 401      0.054367
     43 H21A       -2.4770    4.7440    3.8160 h1        1 401      0.054367
     44 H21B       -3.3540    3.2520    3.1960 h1        1 401      0.054367
     45 H12        -0.3570   -0.2270    6.2170 hx        1 401      0.101200
     46 H12A       -1.9990    0.5550    5.9090 hx        1 401      0.101200
     47 HN24       -1.0230    2.6390    6.7480 hn        1 401      0.467300
     48 H16        -4.5020    2.1790   11.5050 ha        1 401      0.193000
     49 H18        -5.4670    2.9860    7.3530 ha        1 401      0.181000
     50 H19        -3.2230    2.2440    6.6530 ha        1 401      0.177000
     51 H242        0.3930    1.8440    7.1380 hn        1 401      0.467300
@<TRIPOS>BOND
     1    1    3 1   
     2    2    3 1   
     3    3    4 1   
     4    4    5 1   
     5    4    7 1   
     6    4   31 1   
     7    5    6 1   
     8    5   32 1   
     9    5   33 1   
    10    6   34 1   
    11    6   35 1   
    12    6   36 1   
    13    7    8 1   
    14    7   37 1   
    15    7   38 1   
    16    8    9 ar  
    17    8   13 ar  
    18    9   10 ar  
    19    9   39 1   
    20   10   11 ar  
    21   10   16 1   
    22   11   12 ar  
    23   11   14 1   
    24   12   13 ar  
    25   12   40 1   
    26   13   41 1   
    27   14   15 1   
    28   15   42 1   
    29   15   43 1   
    30   15   44 1   
    31   16   17 1   
    32   16   45 1   
    33   16   46 1   
    34   17   18 1   
    35   17   47 1   
    36   17   51 1   
    37   18   19 2   
    38   18   20 1   
    39   20   21 ar  
    40   20   25 ar  
    41   21   22 ar  
    42   21   27 1   
    43   22   23 ar  
    44   22   48 1   
    45   23   24 ar  
    46   23   26 1   
    47   24   25 ar  
    48   24   49 1   
    49   25   50 1   
    50   26   28 1   
    51   26   29 1   
    52   26   30 1   
@<TRIPOS>SUBSTRUCTURE
     1 401         1 TEMP              0 ****  ****    0 ROOT
