@<TRIPOS>MOLECULE
401
   51    52     1     0     0
SMALL
bcc


@<TRIPOS>ATOM
      1 O22        -0.4960   -0.4770   -0.3840 o         1 401     -0.835800
      2 O23         1.0150    1.1520   -0.6110 o         1 401     -0.835800
      3 C1          0.6090    0.0610   -0.1100 c         1 401      0.907600
      4 C2          1.5110   -0.6420    0.9400 c3        1 401     -0.189700
      5 C3          2.6390   -1.3750    0.2360 c3        1 401     -0.056400
      6 C4          2.1280   -2.5910   -0.4920 c3        1 401     -0.092100
      7 C5          2.0830    0.3820    1.9120 c3        1 401     -0.031100
      8 C6          1.0020    1.0750    2.6670 ca        1 401     -0.046300
      9 C7          0.6520    0.6740    3.9550 ca        1 401     -0.082000
     10 C8         -0.4120    1.2890    4.6300 ca        1 401     -0.240300
     11 C9         -1.1060    2.3410    4.0010 ca        1 401      0.113100
     12 C10        -0.7530    2.7610    2.7160 ca        1 401     -0.185000
     13 C11         0.2900    2.1230    2.0520 ca        1 401     -0.021000
     14 O30        -2.1150    2.9290    4.7580 os        1 401     -0.417900
     15 C21        -3.0780    3.6810    4.0160 c3        1 401      0.121700
     16 C12        -0.8490    0.7940    5.9530 c3        1 401      0.212100
     17 N24        -0.6150    1.8590    7.0070 ny        1 401     -0.678800
     18 C13        -1.1670    1.4510    8.3370 c         1 401      0.558700
     19 O25        -0.4180    0.7810    9.0400 o         1 401     -0.422100
     20 C14        -2.5220    1.9020    8.6820 ca        1 401     -0.211600
     21 C15        -2.8830    1.9310   10.0540 ca        1 401      0.210900
     22 C16        -4.1820    2.3300   10.4350 ca        1 401     -0.129000
     23 C17        -5.0980    2.6870    9.4540 ca        1 401     -0.085300
     24 C18        -4.7530    2.6550    8.0990 ca        1 401     -0.103000
     25 C19        -3.4730    2.2680    7.7180 ca        1 401     -0.071000
     26 C20        -6.5060    3.1380    9.8620 c3        1 401      0.686200
     27 F26        -1.9940    1.5900   11.0070 f         1 401     -0.092900
     28 F27        -6.6150    4.4970   10.0210 f         1 401     -0.218633
     29 F28        -7.4790    2.8110    8.9530 f         1 401     -0.218633
     30 F29        -6.9410    2.6100   11.0500 f         1 401     -0.218633
     31 H2          0.8820   -1.3810    1.5040 hc        1 401      0.040700
     32 H3          3.4230   -1.6810    0.9800 hc        1 401      0.026700
     33 H3A         3.1220   -0.6710   -0.4930 hc        1 401      0.026700
     34 H4          1.8080   -3.3800    0.2310 hc        1 401      0.033700
     35 H4A         2.9240   -3.0170   -1.1490 hc        1 401      0.033700
     36 H4B         1.2440   -2.3130   -1.1200 hc        1 401      0.033700
     37 H5          2.7880   -0.1170    2.6280 hc        1 401      0.050200
     38 H5A         2.6600    1.1390    1.3130 hc        1 401      0.050200
     39 H7          1.1940   -0.1570    4.4340 ha        1 401      0.137000
     40 H10        -1.3050    3.5690    2.2130 ha        1 401      0.152000
     41 H11         0.5460    2.3910    0.9980 ha        1 401      0.236000
     42 H21        -3.4500    3.0950    3.1410 h1        1 401      0.054367
     43 H21A       -2.6260    4.6460    3.6820 h1        1 401      0.054367
     44 H21B       -3.8980    3.8630    4.7550 h1        1 401      0.054367
     45 H12        -0.2810   -0.1260    6.2710 hx        1 401      0.101200
     46 H12A       -1.9560    0.5770    5.9510 hx        1 401      0.101200
     47 HN24       -1.0540    2.7330    6.6840 hn        1 401      0.467300
     48 H16        -4.4550    2.3460   11.5040 ha        1 401      0.193000
     49 H18        -5.5000    2.9300    7.3340 ha        1 401      0.181000
     50 H19        -3.2360    2.2480    6.6370 ha        1 401      0.177000
     51 H242        0.3970    2.0130    7.0880 hn        1 401      0.467300
@<TRIPOS>BOND
     1    1    3 1   
     2    2    3 1   
     3    3    4 1   
     4    4    5 1   
     5    4    7 1   
     6    4   31 1   
     7    5    6 1   
     8    5   32 1   
     9    5   33 1   
    10    6   34 1   
    11    6   35 1   
    12    6   36 1   
    13    7    8 1   
    14    7   37 1   
    15    7   38 1   
    16    8    9 ar  
    17    8   13 ar  
    18    9   10 ar  
    19    9   39 1   
    20   10   11 ar  
    21   10   16 1   
    22   11   12 ar  
    23   11   14 1   
    24   12   13 ar  
    25   12   40 1   
    26   13   41 1   
    27   14   15 1   
    28   15   42 1   
    29   15   43 1   
    30   15   44 1   
    31   16   17 1   
    32   16   45 1   
    33   16   46 1   
    34   17   18 1   
    35   17   47 1   
    36   17   51 1   
    37   18   19 2   
    38   18   20 1   
    39   20   21 ar  
    40   20   25 ar  
    41   21   22 ar  
    42   21   27 1   
    43   22   23 ar  
    44   22   48 1   
    45   23   24 ar  
    46   23   26 1   
    47   24   25 ar  
    48   24   49 1   
    49   25   50 1   
    50   26   28 1   
    51   26   29 1   
    52   26   30 1   
@<TRIPOS>SUBSTRUCTURE
     1 401         1 TEMP              0 ****  ****    0 ROOT
