@<TRIPOS>MOLECULE
401
   50    51     1     0     0
SMALL
bcc


@<TRIPOS>ATOM
      1 O22         7.5210    0.6300    0.9670 o         1 401     -0.844800
      2 O23         6.1510    0.0630    2.6310 o         1 401     -0.844800
      3 C1          6.5840   -0.0670    1.4480 c         1 401      0.909600
      4 C2          5.9330   -1.1320    0.5260 c3        1 401     -0.183700
      5 C3          6.7410   -2.4190    0.5990 c3        1 401     -0.052400
      6 C4          8.0720   -2.2770   -0.0940 c3        1 401     -0.096100
      7 C5          4.4890   -1.4050    0.9210 c3        1 401     -0.028100
      8 C6          3.5500   -0.3420    0.4670 ca        1 401     -0.066300
      9 C7          2.5810   -0.6030   -0.5050 ca        1 401     -0.105000
     10 C8          1.6910    0.3910   -0.9250 ca        1 401     -0.165300
     11 C9          1.7780    1.6650   -0.3370 ca        1 401      0.089100
     12 C10         2.7420    1.9390    0.6420 ca        1 401     -0.197000
     13 C11         3.6220    0.9380    1.0390 ca        1 401     -0.073000
     14 O30         0.8360    2.6010   -0.7540 os        1 401     -0.363900
     15 C21         1.2120    3.9610   -0.5750 c3        1 401      0.120700
     16 C12         0.6860    0.1010   -1.9990 c3        1 401      0.143300
     17 N24        -0.6870    0.2490   -1.5730 n         1 401     -0.533900
     18 C13        -1.5220   -0.8320   -1.4030 c         1 401      0.659700
     19 O25        -1.2850   -1.9620   -1.8720 o         1 401     -0.588100
     20 C14        -2.7990   -0.5630   -0.6620 ca        1 401     -0.138600
     21 C15        -4.0520   -0.7310   -1.2870 ca        1 401      0.166900
     22 C16        -5.2370   -0.5170   -0.5560 ca        1 401     -0.136000
     23 C17        -5.1540   -0.1400    0.7820 ca        1 401     -0.136300
     24 C18        -3.9170    0.0310    1.4060 ca        1 401     -0.105000
     25 C19        -2.7460   -0.1790    0.6790 ca        1 401     -0.085000
     26 C20        -6.4360    0.0720    1.5790 c3        1 401      0.687200
     27 F26        -4.1410   -1.0880   -2.5870 f         1 401     -0.116900
     28 F27        -6.9030   -1.0580    2.2080 f         1 401     -0.237300
     29 F28        -6.3360    0.9990    2.5880 f         1 401     -0.237300
     30 F29        -7.5080    0.5040    0.8350 f         1 401     -0.237300
     31 H2          5.9680   -0.7390   -0.5250 hc        1 401      0.042700
     32 H3          6.9010   -2.6820    1.6780 hc        1 401      0.018700
     33 H3A         6.1650   -3.2630    0.1320 hc        1 401      0.018700
     34 H4          8.5770   -1.3370    0.2480 hc        1 401      0.031367
     35 H4A         8.7280   -3.1520    0.1310 hc        1 401      0.031367
     36 H4B         7.9350   -2.2160   -1.2010 hc        1 401      0.031367
     37 H5          4.1580   -2.3940    0.5050 hc        1 401      0.046700
     38 H5A         4.4470   -1.4670    2.0450 hc        1 401      0.046700
     39 H7          2.5180   -1.6050   -0.9580 ha        1 401      0.131000
     40 H10         2.8150    2.9380    1.0930 ha        1 401      0.131000
     41 H11         4.4050    1.1310    1.8020 ha        1 401      0.208000
     42 H21         1.1190    4.2450    0.5020 h1        1 401      0.038033
     43 H21A        2.2520    4.1450   -0.9360 h1        1 401      0.038033
     44 H21B        0.4710    4.5280   -1.1930 h1        1 401      0.038033
     45 H12         0.8460    0.8380   -2.8420 h1        1 401      0.067700
     46 H12A        0.8350   -0.9420   -2.4010 h1        1 401      0.067700
     47 HN24       -0.8850    1.0820   -1.0620 hn        1 401      0.318500
     48 H16        -6.2140   -0.6460   -1.0460 ha        1 401      0.164000
     49 H18        -3.8680    0.3330    2.4640 ha        1 401      0.158000
     50 H19        -1.7670   -0.0480    1.1700 ha        1 401      0.166000
@<TRIPOS>BOND
     1    1    3 1   
     2    2    3 1   
     3    3    4 1   
     4    4    5 1   
     5    4    7 1   
     6    4   31 1   
     7    5    6 1   
     8    5   32 1   
     9    5   33 1   
    10    6   34 1   
    11    6   35 1   
    12    6   36 1   
    13    7    8 1   
    14    7   37 1   
    15    7   38 1   
    16    8    9 ar  
    17    8   13 ar  
    18    9   10 ar  
    19    9   39 1   
    20   10   11 ar  
    21   10   16 1   
    22   11   12 ar  
    23   11   14 1   
    24   12   13 ar  
    25   12   40 1   
    26   13   41 1   
    27   14   15 1   
    28   15   42 1   
    29   15   43 1   
    30   15   44 1   
    31   16   17 1   
    32   16   45 1   
    33   16   46 1   
    34   17   18 1   
    35   17   47 1   
    36   18   19 2   
    37   18   20 1   
    38   20   21 ar  
    39   20   25 ar  
    40   21   22 ar  
    41   21   27 1   
    42   22   23 ar  
    43   22   48 1   
    44   23   24 ar  
    45   23   26 1   
    46   24   25 ar  
    47   24   49 1   
    48   25   50 1   
    49   26   28 1   
    50   26   29 1   
    51   26   30 1   
@<TRIPOS>SUBSTRUCTURE
     1 401         1 TEMP              0 ****  ****    0 ROOT
