@<TRIPOS>MOLECULE
401
   50    47     1     0     0
SMALL
bcc


@<TRIPOS>ATOM
      1 O22         1.2560   -3.1280   -5.1770 o         1 401     -0.580000
      2 O23         3.2660   -2.3500   -5.4030 o         1 401     -0.580000
      3 C1          2.3120   -2.7030   -4.6680 c2        1 401      0.330000
      4 C2          2.4260   -2.5730   -3.1870 c3        1 401     -0.173000
      5 C3          3.7550   -3.1720   -2.7230 c3        1 401     -0.130000
      6 C4          3.5940   -4.7010   -2.5280 c3        1 401     -0.215000
      7 C5          2.3690   -1.0880   -2.7970 c3        1 401     -0.113000
      8 C6          0.8910   -0.6920   -2.4640 c2        1 401     -0.062000
      9 C7          0.3950   -0.9020   -1.1940 c2        1 401     -0.102000
     10 C8         -0.8810   -0.4650   -0.8670 c1        1 401     -0.156000
     11 C9         -1.6570    0.1810   -1.8160 c1        1 401      0.052000
     12 C10        -1.1570    0.3910   -3.0910 c1        1 401     -0.199000
     13 C11         0.1130   -0.0440   -3.4160 c1        1 401     -0.071000
     14 O30        -3.0380    0.5200   -1.5140 os        1 401     -0.242000
     15 C21        -3.9790    0.0550   -2.4870 c3        1 401     -0.069000
     16 C12        -1.4230   -0.6930    0.5260 c3        1 401      0.023000
     17 N24        -1.1790    0.4810    1.3400 n         1 401     -0.338000
     18 C13        -1.7400    0.5640    2.6720 c2        1 401      0.333000
     19 O25        -2.4170   -0.3500    3.1040 o         1 401     -0.376000
     20 C14        -1.3770    1.7170    3.5690 c2        1 401     -0.116000
     21 C15        -0.3260    1.5850    4.4760 c2        1 401      0.117000
     22 C16        -0.0580    2.6040    5.3850 c1        1 401     -0.134000
     23 C17        -0.8380    3.7580    5.3910 c1        1 401     -0.126000
     24 C18        -1.8920    3.8930    4.4820 c1        1 401     -0.113000
     25 C19        -2.1610    2.8730    3.5720 c1        1 401     -0.066000
     26 C20        -0.4930    4.9160    6.3590 c3        1 401      0.466000
     27 F26         0.4660    0.4800    4.4430 f         1 401     -0.084000
     28 F27         0.4280    5.7100    5.7970 f         1 401     -0.166000
     29 F28        -1.5890    5.6240    6.6160 f         1 401     -0.166000
     30 F29        -0.0010    4.3990    7.5220 f         1 401     -0.166000
     31 H2          1.6990   -3.0430   -2.7670 hc        1 401      0.082000
     32 H3          4.0200   -2.7600   -1.8720 hc        1 401      0.057500
     33 H3A         4.4460   -2.9990   -3.4000 hc        1 401      0.057500
     34 H4          3.6870   -5.1550   -3.3940 hc        1 401      0.070667
     35 H4A         4.2820   -5.0240   -1.9170 hc        1 401      0.070667
     36 H4B         2.7080   -4.8920   -2.1530 hc        1 401      0.070667
     37 H5          2.9340   -0.9330   -2.0090 hc        1 401      0.085000
     38 H5A         2.6940   -0.5430   -3.5440 hc        1 401      0.085000
     39 H7          0.9440   -1.3600   -0.5210 ha        1 401      0.130000
     40 H10        -1.7160    0.8570   -3.7760 ha        1 401      0.131000
     41 H11         0.4660    0.1050   -4.3220 ha        1 401      0.207000
     42 H21        -4.9000    0.2140   -2.1560 h1        1 401      0.077000
     43 H21A       -3.8460    0.5380   -3.3280 h1        1 401      0.077000
     44 H21B       -3.8480   -0.9020   -2.6360 h1        1 401      0.077000
     45 H12        -2.3850   -0.8620    0.4790 h1        1 401      0.105000
     46 H12A       -0.9750   -1.4650    0.9270 h1        1 401      0.105000
     47 HN24       -0.5920    1.1420    1.0410 hn        1 401      0.241000
     48 H16         0.6770    2.5110    6.0190 ha        1 401      0.168000
     49 H18        -2.4490    4.7150    4.4860 ha        1 401      0.154000
     50 H19        -2.9140    2.9670    2.9220 ha        1 401      0.171000
@<TRIPOS>BOND
     1    1    3 1   
     2    2    3 1   
     3    3    4 1   
     4    4    5 1   
     5    4    7 1   
     6    4   31 1   
     7    5    6 1   
     8    5   32 1   
     9    5   33 1   
    10    6   34 1   
    11    6   35 1   
    12    6   36 1   
    13    7    8 1   
    14    7   37 1   
    15    7   38 1   
    16    8    9 1   
    17    8   13 1   
    18    9   10 1   
    19    9   39 1   
    20   10   16 1   
    21   11   12 1   
    22   11   14 1   
    23   12   40 1   
    24   13   41 1   
    25   14   15 1   
    26   15   42 1   
    27   15   43 1   
    28   15   44 1   
    29   16   17 1   
    30   16   45 1   
    31   16   46 1   
    32   17   18 1   
    33   17   47 1   
    34   18   19 1   
    35   18   20 1   
    36   20   21 1   
    37   20   25 1   
    38   21   22 1   
    39   21   27 1   
    40   22   48 1   
    41   23   24 1   
    42   23   26 1   
    43   24   49 1   
    44   25   50 1   
    45   26   28 1   
    46   26   29 1   
    47   26   30 1   
@<TRIPOS>SUBSTRUCTURE
     1 401         1 TEMP              0 ****  ****    0 ROOT
