@<TRIPOS>MOLECULE
401
   51    52     1     0     0
SMALL
bcc


@<TRIPOS>ATOM
      1 O22        -0.4910   -0.4290   -0.4010 o         1 401     -0.835800
      2 O23         0.9940    1.2260   -0.6210 o         1 401     -0.835800
      3 C1          0.6070    0.1240   -0.1270 c         1 401      0.907600
      4 C2          1.5250   -0.5730    0.9130 c3        1 401     -0.189700
      5 C3          2.6610   -1.2820    0.1980 c3        1 401     -0.056400
      6 C4          2.1660   -2.5010   -0.5370 c3        1 401     -0.092100
      7 C5          2.0840    0.4520    1.8910 c3        1 401     -0.031100
      8 C6          0.9960    1.1220    2.6560 ca        1 401     -0.046300
      9 C7          0.6590    0.7050    3.9420 ca        1 401     -0.083000
     10 C8         -0.4110    1.2980    4.6270 ca        1 401     -0.240300
     11 C9         -1.1250    2.3440    4.0100 ca        1 401      0.113100
     12 C10        -0.7850    2.7800    2.7270 ca        1 401     -0.185000
     13 C11         0.2650    2.1640    2.0520 ca        1 401     -0.021000
     14 O30        -2.1400    2.9100    4.7750 os        1 401     -0.417900
     15 C21        -3.1170    3.6520    4.0450 c3        1 401      0.121700
     16 C12        -0.8340    0.7870    5.9480 c3        1 401      0.212100
     17 N24        -0.6120    1.8470    7.0090 n4        1 401     -0.678800
     18 C13        -1.1510    1.4210    8.3390 c         1 401      0.558700
     19 O25        -0.3910    0.7540    9.0330 o         1 401     -0.422100
     20 C14        -2.5100    1.8500    8.6940 ca        1 401     -0.211600
     21 C15        -2.8640    1.8670   10.0690 ca        1 401      0.210900
     22 C16        -4.1660    2.2460   10.4580 ca        1 401     -0.129000
     23 C17        -5.0930    2.5960    9.4850 ca        1 401     -0.085300
     24 C18        -4.7540    2.5770    8.1280 ca        1 401     -0.103000
     25 C19        -3.4720    2.2090    7.7370 ca        1 401     -0.071000
     26 C20        -6.5040    3.0250    9.9040 c3        1 401      0.686200
     27 F26        -1.9650    1.5320   11.0140 f         1 401     -0.092900
     28 F27        -6.6310    4.3820   10.0710 f         1 401     -0.218633
     29 F28        -7.4780    2.6910    8.9980 f         1 401     -0.218633
     30 F29        -6.9250    2.4840   11.0910 f         1 401     -0.218633
     31 H2          0.9090   -1.3260    1.4730 hc        1 401      0.040700
     32 H3          3.1290   -0.5650   -0.5280 hc        1 401      0.026700
     33 H3A         3.4530   -1.5810    0.9360 hc        1 401      0.026700
     34 H4          2.9650   -2.9090   -1.2010 hc        1 401      0.033700
     35 H4A         1.2740   -2.2320   -1.1590 hc        1 401      0.033700
     36 H4B         1.8610   -3.3000    0.1810 hc        1 401      0.033700
     37 H5          2.8010   -0.0420    2.6000 hc        1 401      0.050200
     38 H5A         2.6470    1.2230    1.2960 hc        1 401      0.050200
     39 H7          1.2150   -0.1210    4.4120 ha        1 401      0.137000
     40 H10        -1.3510    3.5830    2.2320 ha        1 401      0.152000
     41 H11         0.5130    2.4440    1.0000 ha        1 401      0.236000
     42 H21        -3.4850    3.0680    3.1670 h1        1 401      0.054367
     43 H21A       -3.9370    3.8160    4.7890 h1        1 401      0.054367
     44 H21B       -2.6820    4.6280    3.7160 h1        1 401      0.054367
     45 H12        -0.2510   -0.1270    6.2560 hx        1 401      0.101200
     46 H12A       -1.9380    0.5530    5.9500 hx        1 401      0.101200
     47 HN24        0.3990    2.0150    7.0870 hn        1 401      0.467300
     48 H16        -4.4330    2.2520   11.5300 ha        1 401      0.193000
     49 H18        -5.5100    2.8460    7.3690 ha        1 401      0.181000
     50 H19        -3.2410    2.1990    6.6550 ha        1 401      0.177000
     51 H242       -1.0650    2.7170    6.6950 hn        1 401      0.467300
@<TRIPOS>BOND
     1    1    3 1   
     2    2    3 1   
     3    3    4 1   
     4    4    5 1   
     5    4    7 1   
     6    4   31 1   
     7    5    6 1   
     8    5   32 1   
     9    5   33 1   
    10    6   34 1   
    11    6   35 1   
    12    6   36 1   
    13    7    8 1   
    14    7   37 1   
    15    7   38 1   
    16    8    9 ar  
    17    8   13 ar  
    18    9   10 ar  
    19    9   39 1   
    20   10   11 ar  
    21   10   16 1   
    22   11   12 ar  
    23   11   14 1   
    24   12   13 ar  
    25   12   40 1   
    26   13   41 1   
    27   14   15 1   
    28   15   42 1   
    29   15   43 1   
    30   15   44 1   
    31   16   17 1   
    32   16   45 1   
    33   16   46 1   
    34   17   18 1   
    35   17   47 1   
    36   17   51 1   
    37   18   19 2   
    38   18   20 1   
    39   20   21 ar  
    40   20   25 ar  
    41   21   22 ar  
    42   21   27 1   
    43   22   23 ar  
    44   22   48 1   
    45   23   24 ar  
    46   23   26 1   
    47   24   25 ar  
    48   24   49 1   
    49   25   50 1   
    50   26   28 1   
    51   26   29 1   
    52   26   30 1   
@<TRIPOS>SUBSTRUCTURE
     1 401         1 TEMP              0 ****  ****    0 ROOT
