@<TRIPOS>MOLECULE
403
   54    49     1     0     0
SMALL
bcc


@<TRIPOS>ATOM
      1 C1          1.7220    2.1840    0.5940 c3        1 403     -0.028000
      2 C2          0.2590    1.7130    0.7200 c2        1 403      0.262000
      3 C3          2.6450    0.9930    0.9440 c3        1 403      0.004000
      4 N4         -0.7450    2.6380    0.7100 n         1 403     -0.297000
      5 N5         -2.6220    2.2360    3.1900 n3        1 403     -0.045000
      6 C6          4.0870    1.4870    0.9980 c2        1 403      0.255000
      7 S8          7.1730    3.4860   -0.4000 s         1 403      0.038000
      8 C9          8.4940    2.7570   -0.1640 c2        1 403     -0.264000
      9 O10         0.0490    0.4800    0.8120 o         1 403     -0.403000
     10 C11        -2.1400    2.2180    0.7080 c3        1 403     -0.062000
     11 C12        -0.4580    4.0480    0.6520 c3        1 403     -0.097000
     12 C13        -1.3020    1.9950    3.6890 c2        1 403     -0.088000
     13 C14        -2.9740    2.3100    1.9270 c1        1 403     -0.112000
     14 C15         9.3840   -0.6550    3.0750 c1        1 403     -0.065000
     15 O17         4.7140    1.7420    2.0160 o         1 403     -0.181000
     16 C18         9.3100   -0.3150    0.5400 c1        1 403     -0.065000
     17 C19         9.4010   -0.5400    1.8610 c1        1 403     -0.223000
     18 N20         4.7540    1.7010   -0.3110 n4        1 403     -0.185000
     19 O21         2.0140    2.6370   -0.7130 oh        1 403     -0.330000
     20 O22         2.5800    0.0140   -0.0750 oh        1 403     -0.355000
     21 C23         6.6800   -0.5690   -1.4460 c1        1 403     -0.236500
     22 C25         5.8120   -0.9510   -2.1780 c1        1 403     -0.236500
     23 H1          1.9330    3.0580    1.2720 h1        1 403      0.154000
     24 H3          2.3700    0.5650    1.9500 h1        1 403      0.167000
     25 C151       -3.6270    2.3600    4.1940 c2        1 403     -0.072000
     26 H11        -4.6140    1.4030    0.1140 ha        1 403      0.000000
     27 H11A       -2.6790    2.8510   -0.0620 h1        1 403      0.145500
     28 H12        -1.4050    4.6200    0.4630 h1        1 403      0.098000
     29 H12A        0.2690    4.2670   -0.1770 h1        1 403      0.098000
     30 H13        -0.0180    4.3980    1.6250 h1        1 403      0.098000
     31 H13A       -0.7310    1.2680    3.0760 h4        1 403      0.162000
     32 H14        -4.9650    1.1480   -0.4070 ha        1 403      0.000000
     33 H14A       -2.2060    1.1370    0.3680 h1        1 403      0.145500
     34 H15         9.3740   -0.7580    4.1340 ha        1 403      0.186000
     35 H18         9.9530   -0.8130   -0.1930 ha        1 403      0.186000
     36 H19         9.4780    3.2620   -0.1860 h4        1 403      0.167500
     37 HN20        5.6940    2.2380   -0.2170 hn        1 403      0.273000
     38 HO21        1.6100    2.0160   -1.3380 ho        1 403      0.238000
     39 HO22        1.7720   -0.5100    0.0800 ho        1 403      0.284000
     40 H23         8.6180    1.6690    0.0510 h4        1 403      0.167500
     41 H23A        7.4870   -0.2690   -0.8130 ha        1 403      0.240000
     42 H25         5.0550   -1.3110   -2.8330 ha        1 403      0.240000
     43 H25A        4.1140    2.2320   -0.9160 hn        1 403      0.273000
     44 C16        -5.9870    2.2840    6.0410 c1        1 403      0.256000
     45 C17        -0.2670    3.0260    5.8470 c2        1 403     -0.129000
     46 C181       -0.7910    2.5280    4.7710 c1        1 403     -0.182000
     47 C191       -4.6140    3.2860    4.2200 c2        1 403      0.020000
     48 C20        -5.6060    3.2880    5.2720 c2        1 403     -0.463000
     49 CL1        -4.7740    4.5060    3.0510 cl        1 403      0.018000
     50 H21         0.3020    3.9690    5.8430 ha        1 403      0.144000
     51 H22        -0.3630    2.5360    6.8290 ha        1 403      0.144000
     52 H231       -3.5350    1.6050    4.9990 h4        1 403      0.165000
     53 H24        -6.1320    4.2570    5.4460 ha        1 403      0.216000
     54 H202        4.9240    0.7820   -0.7470 hn        1 403      0.273000
@<TRIPOS>BOND
     1    1    2 1   
     2    1    3 1   
     3    1   19 1   
     4    1   23 1   
     5    2    4 1   
     6    2    9 1   
     7    3    6 1   
     8    3   20 1   
     9    3   24 1   
    10    4   10 1   
    11    4   11 1   
    12    5   12 1   
    13    5   13 1   
    14    5   25 1   
    15    6   15 1   
    16    6   18 1   
    17    7    8 1   
    18    8   36 1   
    19    8   40 1   
    20   10   13 1   
    21   10   27 1   
    22   10   33 1   
    23   11   28 1   
    24   11   29 1   
    25   11   30 1   
    26   12   31 1   
    27   12   46 1   
    28   14   17 1   
    29   14   34 1   
    30   16   17 1   
    31   16   35 1   
    32   18   37 1   
    33   18   43 1   
    34   18   54 1   
    35   19   38 1   
    36   20   39 1   
    37   21   22 1   
    38   21   41 1   
    39   22   42 1   
    40   25   47 1   
    41   25   52 1   
    42   26   32 1   
    43   44   48 1   
    44   45   46 1   
    45   45   50 1   
    46   45   51 1   
    47   47   48 1   
    48   47   49 1   
    49   48   53 1   
@<TRIPOS>SUBSTRUCTURE
     1 403         1 TEMP              0 ****  ****    0 ROOT
