@<TRIPOS>MOLECULE
403
   53    55     1     0     0
SMALL
bcc


@<TRIPOS>ATOM
      1 C1          0.4520   -2.9730    0.1210 c3        1 403      0.057100
      2 C2         -1.0700   -3.1330    0.2380 c         1 403      0.633100
      3 C3          0.9800   -2.0260    1.2240 c3        1 403      0.049100
      4 N4         -1.9230   -2.1890   -0.2820 n         1 403     -0.458800
      5 N5         -3.7470   -0.0190   -0.8040 nh        1 403     -0.631000
      6 C6          1.9480   -0.9900    0.6220 c         1 403      0.626100
      7 S8          7.0000    0.9560   -1.1710 ss        1 403      0.030200
      8 C9          6.3250    0.7990    0.3610 cc        1 403     -0.118400
      9 O10        -1.5060   -4.1500    0.8240 o         1 403     -0.619100
     10 C11        -3.3560   -2.4010   -0.2290 c3        1 403      0.081000
     11 C12        -1.4920   -1.0510   -1.0590 c3        1 403      0.081000
     12 C13        -2.3120    0.2270   -0.7680 c3        1 403      0.169300
     13 C14        -4.1410   -1.1070    0.0790 c3        1 403      0.169300
     14 C15         7.9630    2.2470   -0.7410 cc        1 403     -0.171100
     15 O17         1.7520   -0.5460   -0.5300 o         1 403     -0.625100
     16 C18         6.8390    1.7460    1.2270 cd        1 403     -0.158000
     17 C19         7.7940    2.5920    0.5820 cd        1 403     -0.154000
     18 N20         2.9630   -0.5240    1.4210 n         1 403     -0.550900
     19 O21         1.0740   -4.2340    0.2600 oh        1 403     -0.595800
     20 O22         1.5650   -2.7530    2.2820 oh        1 403     -0.589800
     21 C23         5.3350   -0.2350    0.6990 c3        1 403     -0.028100
     22 C25         3.9600    0.4010    0.9590 c3        1 403      0.089000
     23 H1          0.7540   -2.6100   -0.9040 h1        1 403      0.124700
     24 H3          0.1350   -1.4530    1.7040 h1        1 403      0.107700
     25 C151       -4.5520    1.1530   -0.7270 ca        1 403      0.119600
     26 H11        -3.6990   -2.8130   -1.2210 h1        1 403      0.071700
     27 H11A       -3.5960   -3.1560    0.5730 h1        1 403      0.071700
     28 H12        -0.4120   -0.8090   -0.8440 h1        1 403      0.071700
     29 H12A       -1.5910   -1.3020   -2.1550 h1        1 403      0.071700
     30 H13        -2.0550    0.9820   -1.5620 h1        1 403      0.048700
     31 H13A       -1.9920    0.6440    0.2310 h1        1 403      0.048700
     32 H14        -3.9880   -0.8480    1.1670 h1        1 403      0.048700
     33 H14A       -5.2340   -1.3170   -0.0830 h1        1 403      0.048700
     34 H15         8.6350    2.7400   -1.4420 h4        1 403      0.172000
     35 H18         6.5620    1.8490    2.2780 ha        1 403      0.151000
     36 H19         8.3140    3.4040    1.0940 ha        1 403      0.153000
     37 HN20        3.1140   -0.9680    2.2970 hn        1 403      0.322500
     38 HO21        0.5650   -4.7590    0.9010 ho        1 403      0.440000
     39 HO22        2.1750   -3.4030    1.8980 ho        1 403      0.425000
     40 H23         5.2510   -0.9830   -0.1350 hc        1 403      0.055700
     41 H23A        5.6770   -0.7920    1.6130 hc        1 403      0.055700
     42 H25         3.5950    0.8860    0.0090 h1        1 403      0.069200
     43 H25A        4.0820    1.2030    1.7440 h1        1 403      0.069200
     44 C16        -6.2230    3.4300   -0.6730 ca        1 403     -0.134000
     45 C17        -6.0600    2.6510    0.4710 ca        1 403     -0.115000
     46 C181       -5.2340    1.5320    0.4490 ca        1 403     -0.160000
     47 C191       -4.7380    1.9510   -1.8830 ca        1 403      0.016400
     48 C20        -5.5610    3.0790   -1.8460 ca        1 403     -0.116000
     49 CL1        -3.9830    1.5640   -3.3580 cl        1 403     -0.083400
     50 H21        -6.8720    4.3180   -0.6530 ha        1 403      0.139000
     51 H22        -6.5830    2.9230    1.4000 ha        1 403      0.136000
     52 H231       -5.1210    0.9380    1.3690 ha        1 403      0.138000
     53 H24        -5.6910    3.6890   -2.7540 ha        1 403      0.148000
@<TRIPOS>BOND
     1    1    2 1   
     2    1    3 1   
     3    1   19 1   
     4    1   23 1   
     5    2    4 1   
     6    2    9 2   
     7    3    6 1   
     8    3   20 1   
     9    3   24 1   
    10    4   10 1   
    11    4   11 1   
    12    5   12 1   
    13    5   13 1   
    14    5   25 1   
    15    6   15 2   
    16    6   18 1   
    17    7    8 1   
    18    7   14 1   
    19    8   16 2   
    20    8   21 1   
    21   10   13 1   
    22   10   26 1   
    23   10   27 1   
    24   11   12 1   
    25   11   28 1   
    26   11   29 1   
    27   12   30 1   
    28   12   31 1   
    29   13   32 1   
    30   13   33 1   
    31   14   17 2   
    32   14   34 1   
    33   16   17 1   
    34   16   35 1   
    35   17   36 1   
    36   18   22 1   
    37   18   37 1   
    38   19   38 1   
    39   20   39 1   
    40   21   22 1   
    41   21   40 1   
    42   21   41 1   
    43   22   42 1   
    44   22   43 1   
    45   25   46 ar  
    46   25   47 ar  
    47   44   45 ar  
    48   44   48 ar  
    49   44   50 1   
    50   45   46 ar  
    51   45   51 1   
    52   46   52 1   
    53   47   48 ar  
    54   47   49 1   
    55   48   53 1   
@<TRIPOS>SUBSTRUCTURE
     1 403         1 TEMP              0 ****  ****    0 ROOT
