@<TRIPOS>MOLECULE
403
   54    53     1     0     0
SMALL
bcc


@<TRIPOS>ATOM
      1 C1          2.7790    3.0050    0.5820 c3        1 403      0.034100
      2 C2          1.5260    2.1160    0.5370 c         1 403      0.599100
      3 C3          3.6260    2.7390    1.8440 c3        1 403      0.093100
      4 N4          0.3300    2.5200    1.0480 n         1 403     -0.441800
      5 N5         -2.0930    3.0380    2.4870 n3        1 403     -0.457400
      6 C6          3.8030    1.2480    2.1210 c         1 403      0.503100
      7 S8          7.2370    1.0770    0.6480 s         1 403     -0.288400
      8 C9          7.8450    0.7070   -0.7210 c         1 403      0.273200
      9 O10         1.6720    0.9770    0.0190 o         1 403     -0.669100
     10 C11        -0.8450    1.6590    0.8850 c3        1 403      0.016100
     11 C12         0.0910    3.8500    1.5630 c3        1 403      0.062000
     12 C13        -0.9360    3.8950    2.7190 c3        1 403      0.129800
     13 C14        -2.0570    2.0100    1.6760 c1        1 403     -0.086100
     14 C15        10.8890    1.9960    0.5390 c1        1 403     -0.062500
     15 O17         3.5610    0.7080    3.1930 o         1 403     -0.417100
     16 C18         9.2410    0.8950   -1.1810 c3        1 403     -0.055300
     17 C19        10.1230    1.4970   -0.2310 c1        1 403     -0.196100
     18 N20         4.3070    0.4060    1.0140 nz        1 403     -0.793400
     19 O21         3.6150    2.6610   -0.5140 oh        1 403     -0.611800
     20 O22         3.0870    3.3830    2.9660 oh        1 403     -0.541800
     21 C23         2.9020   -1.9540   -0.1830 c1        1 403     -0.177000
     22 C25         3.7310   -2.7610    0.1280 c1        1 403     -0.177000
     23 H1          2.5300    4.1030    0.5360 h1        1 403      0.108700
     24 H3          4.6490    3.2080    1.7020 h1        1 403      0.149700
     25 C151       -3.2800    3.3620    3.2770 c3        1 403      0.251700
     26 H11        -1.1520    1.6500   -0.2040 h1        1 403      0.102700
     27 H11A       -4.1620    0.5230   -0.1410 ha        1 403      0.000000
     28 H12        -1.2640    4.9660    2.8360 h1        1 403      0.075700
     29 H12A       -0.2840    4.5030    0.7200 h1        1 403      0.067200
     30 H13         1.0450    4.2990    1.9620 h1        1 403      0.067200
     31 H13A       -0.4400    3.5740    3.6790 h1        1 403      0.075700
     32 H14        -3.5930    0.7810    0.1220 ha        1 403      0.000000
     33 H14A       -0.5580    0.6020    1.1640 h1        1 403      0.102700
     34 H15        11.5710    2.4400    1.2230 ha        1 403      0.181500
     35 H18         9.2190    1.5220   -2.1260 hc        1 403      0.109200
     36 H19         9.6500   -0.1170   -1.4870 hc        1 403      0.109200
     37 HN20        5.3300    0.6620    0.7760 hn        1 403      0.481800
     38 HO21        3.0850    2.7350   -1.3210 ho        1 403      0.451000
     39 HO22        2.3090    2.8900    3.2730 ho        1 403      0.432000
     40 H23         7.2340    0.2350   -1.5210 h4        1 403      0.040200
     41 H23A        2.1340   -1.2700   -0.4670 ha        1 403      0.182500
     42 H25         4.4460   -3.5020    0.3920 ha        1 403      0.182500
     43 H25A        4.2510   -0.5900    1.2630 hn        1 403      0.481800
     44 C16        -5.2210    1.5020    5.3430 cc        1 403      0.040000
     45 C17        -4.0540    2.3260    5.2020 cc        1 403     -0.127000
     46 C181       -3.0750    3.1190    4.7900 c2        1 403     -0.231200
     47 C191       -4.5700    2.5040    2.8350 c3        1 403      0.141000
     48 C20        -4.9930    1.9330    4.1060 cd        1 403     -0.177300
     49 Cl1        -5.7770    3.5480    2.1180 cl        1 403     -0.134400
     50 H21        -5.8190    0.9490    6.0440 ha        1 403      0.220000
     51 H22        -2.2600    3.5870    5.3330 ha        1 403      0.161000
     52 H231       -3.5000    4.4570    3.1130 h1        1 403      0.082700
     53 H24        -4.3140    1.7210    2.0690 h1        1 403      0.155700
     54 H202        3.7170    0.5680    0.1760 hn        1 403      0.481800
@<TRIPOS>BOND
     1    1    2 1   
     2    1    3 1   
     3    1   19 1   
     4    1   23 1   
     5    2    4 1   
     6    2    9 2   
     7    3    6 1   
     8    3   20 1   
     9    3   24 1   
    10    4   10 1   
    11    4   11 1   
    12    5   12 1   
    13    5   13 3   
    14    5   25 1   
    15    6   15 2   
    16    6   18 1   
    17    7    8 2   
    18    8   16 1   
    19    8   40 1   
    20   10   13 1   
    21   10   26 1   
    22   10   33 1   
    23   11   12 1   
    24   11   29 1   
    25   11   30 1   
    26   12   28 1   
    27   12   31 1   
    28   14   17 3   
    29   14   34 1   
    30   16   17 1   
    31   16   35 1   
    32   16   36 1   
    33   18   37 1   
    34   18   43 1   
    35   18   54 1   
    36   19   38 1   
    37   20   39 1   
    38   21   22 3   
    39   21   41 1   
    40   22   42 1   
    41   25   46 1   
    42   25   47 1   
    43   25   52 1   
    44   27   32 1   
    45   44   45 1   
    46   44   48 2   
    47   44   50 1   
    48   45   46 2   
    49   45   48 1   
    50   46   51 1   
    51   47   48 1   
    52   47   49 1   
    53   47   53 1   
@<TRIPOS>SUBSTRUCTURE
     1 403         1 TEMP              0 ****  ****    0 ROOT
