@<TRIPOS>MOLECULE
403
   54    55     1     0     0
SMALL
bcc


@<TRIPOS>ATOM
      1 C1          1.6060    0.5610   -0.4880 c3        1 403     -0.022000
      2 C2          0.4220    0.0580    0.3590 c2        1 403      0.267000
      3 C3          2.9090    0.0960    0.1970 c3        1 403     -0.001000
      4 N4         -0.4170    0.9090    1.0260 n         1 403     -0.289000
      5 N5         -2.1650    2.5890    2.6060 n3        1 403     -0.243000
      6 C6          4.1550    0.7450   -0.4290 c2        1 403      0.347000
      7 S8          6.3050    0.3440    1.5220 ss        1 403      1.274000
      8 C9          7.1300    1.1880    2.1640 c1        1 403     -0.673000
      9 O10         0.2860   -1.1890    0.4110 o         1 403     -0.393000
     10 C11        -1.6380    0.3720    1.6070 c3        1 403     -0.033500
     11 C12        -0.3420    2.3490    0.9150 c3        1 403     -0.033500
     12 C13        -0.8760    3.0900    2.1610 c3        1 403     -0.077500
     13 C14        -2.1250    1.1520    2.8430 c3        1 403     -0.077500
     14 C15         9.7530    0.9480    4.4340 c1        1 403     -0.121000
     15 O17         5.0770    1.1870    0.3610 os        1 403     -0.532000
     16 C18         8.0090    2.1080    2.8450 c3        1 403      0.031000
     17 C19         8.9520    1.4570    3.7070 c1        1 403     -0.227000
     18 N20         4.2690    0.8440   -1.7650 n3        1 403     -0.210000
     19 O21         1.5090    0.0050   -1.7820 oh        1 403     -0.318000
     20 O22         3.1190   -1.2940    0.0450 oh        1 403     -0.333000
     21 C23         5.5010    1.4790   -3.7550 c2        1 403     -0.185000
     22 C25         5.3600    1.4540   -2.4220 c2        1 403     -0.100000
     23 H1          1.6170    1.6720   -0.6540 h1        1 403      0.150000
     24 H3          2.8840    0.3770    1.2880 h1        1 403      0.124000
     25 C151       -2.7500    3.3320    3.7050 c3        1 403      0.059000
     26 H11        -3.1720    0.7980    3.0650 h1        1 403      0.093750
     27 H11A       -2.4450    0.3850    0.8190 h1        1 403      0.105500
     28 H12        -0.9940    4.1740    1.8780 h1        1 403      0.093750
     29 H12A       -0.9280    2.6820    0.0100 h1        1 403      0.105500
     30 H13         0.7310    2.6710    0.7900 h1        1 403      0.105500
     31 H13A       -0.1010    3.0270    2.9810 h1        1 403      0.093750
     32 H14        -1.4590   -0.6980    1.9150 h1        1 403      0.105500
     33 H14A       -1.4730    0.8920    3.7260 h1        1 403      0.093750
     34 H15        10.4680    0.5010    5.0830 ha        1 403      0.242000
     35 H18         7.3890    2.8400    3.4520 hc        1 403      0.147500
     36 H19         8.5690    2.7300    2.0790 hc        1 403      0.147500
     37 HN20        3.0060    3.4600    0.8320 ha        1 403      0.001500
     38 HO21        1.3000   -0.9400   -1.6950 ho        1 403      0.247000
     39 HO22        2.3100   -1.7530    0.3360 ho        1 403      0.268000
     40 H23         6.3720    1.9740   -4.2090 ha        1 403      0.150500
     41 H23A        4.7920    1.0290   -4.4640 ha        1 403      0.150500
     42 H25         6.0900    1.9240   -1.7350 h4        1 403      0.165000
     43 H25A        3.5180    0.4860   -2.3340 hn        1 403      0.285000
     44 C16        -1.4750    5.1700    4.8950 cx        1 403     -0.305000
     45 C17        -1.8430    4.2600    6.0340 cu        1 403     -0.021000
     46 C181       -1.9030    3.6780    4.8600 cu        1 403     -0.229000
     47 C191       -3.2120    4.8090    3.2800 c3        1 403     -0.173000
     48 C20        -2.4210    5.8520    4.0220 c1        1 403      0.087000
     49 CL1        -4.9130    5.0370    3.6080 cl        1 403     -0.033000
     50 H21        -0.4450    5.5650    4.8480 hc        1 403      0.163000
     51 H22        -1.8740    4.2540    7.1060 ha        1 403      0.216000
     52 H231       -3.6560    2.7540    4.0580 h1        1 403      0.145000
     53 H24        -3.0750    4.9660    2.1790 h1        1 403      0.165000
     54 H202        3.1070    2.8040    0.6900 ha        1 403      0.001500
@<TRIPOS>BOND
     1    1    2 1   
     2    1    3 1   
     3    1   19 1   
     4    1   23 1   
     5    2    4 1   
     6    2    9 1   
     7    3    6 1   
     8    3   20 1   
     9    3   24 1   
    10    4   10 1   
    11    4   11 1   
    12    5   12 1   
    13    5   13 1   
    14    5   25 1   
    15    6   15 1   
    16    6   18 1   
    17    7    8 1   
    18    7   15 1   
    19    8   16 1   
    20   10   13 1   
    21   10   27 1   
    22   10   32 1   
    23   11   12 1   
    24   11   29 1   
    25   11   30 1   
    26   12   28 1   
    27   12   31 1   
    28   13   26 1   
    29   13   33 1   
    30   14   17 1   
    31   14   34 1   
    32   16   17 1   
    33   16   35 1   
    34   16   36 1   
    35   18   22 1   
    36   18   43 1   
    37   19   38 1   
    38   20   39 1   
    39   21   22 1   
    40   21   40 1   
    41   21   41 1   
    42   22   42 1   
    43   25   46 1   
    44   25   47 1   
    45   25   52 1   
    46   37   54 1   
    47   44   45 1   
    48   44   46 1   
    49   44   48 1   
    50   44   50 1   
    51   45   46 1   
    52   45   51 1   
    53   47   48 1   
    54   47   49 1   
    55   47   53 1   
@<TRIPOS>SUBSTRUCTURE
     1 403         1 TEMP              0 ****  ****    0 ROOT
