@<TRIPOS>MOLECULE
403
   53    49     1     0     0
SMALL
bcc


@<TRIPOS>ATOM
      1 C1          0.6260    0.1440   -0.0260 c3        1 403      0.001000
      2 C2         -0.8970    0.1130   -0.0430 c2        1 403      0.315000
      3 C3          1.1580   -1.1510    0.6440 c3        1 403     -0.004000
      4 N4         -1.6440    1.3120   -0.3890 n         1 403     -0.308000
      5 N5         -3.0390    3.7260    0.0690 n3        1 403     -0.219000
      6 C6          2.1160   -1.8270   -0.2680 c2        1 403      0.305000
      7 S8          3.6600   -7.2800   -1.3160 ss        1 403      0.552000
      8 C9          4.6710   -6.0950   -1.1030 c1        1 403     -0.411000
      9 O10        -1.4770   -0.9040    0.1950 o         1 403     -0.405000
     10 C11        -3.0490    1.3480   -0.4650 c3        1 403     -0.025500
     11 C12        -1.0360    2.5310   -0.6770 c3        1 403     -0.025500
     12 C13        -1.6110    3.6680    0.1440 c3        1 403     -0.078000
     13 C14        -3.6410    2.4880    0.3620 c3        1 403     -0.078000
     14 C15         4.4010   -8.3870   -2.1050 c1        1 403     -0.411000
     15 O17         2.4540   -1.2930   -1.2810 o         1 403     -0.403000
     16 C18         5.9370   -6.4680   -1.7240 c1        1 403     -0.155000
     17 C19         5.7740   -7.9190   -2.3610 c1        1 403     -0.155000
     18 N20         2.7780   -3.0240    0.1600 n         1 403     -0.349000
     19 O21         1.1050    0.2290   -1.3270 oh        1 403     -0.318000
     20 O22         0.0710   -2.0190    0.9250 oh        1 403     -0.326000
     21 C23         4.1810   -5.0870   -0.0770 c2        1 403     -0.106000
     22 C25         3.3400   -3.9290   -0.8230 c3        1 403     -0.024000
     23 H1          0.9450    0.9610    0.5050 h1        1 403      0.114000
     24 H3          1.6530   -0.9050    1.5560 h1        1 403      0.115000
     25 C151       -3.5340    4.7500    1.0040 c2        1 403      0.009000
     26 H11        -3.4260    0.4520   -0.1180 h1        1 403      0.108500
     27 H11A       -3.3060    1.4600   -1.3670 h1        1 403      0.108500
     28 H12        -1.1570    2.7250   -1.5940 h1        1 403      0.108500
     29 H12A       -0.1170    2.4610   -0.4990 h1        1 403      0.108500
     30 H13        -1.3460    3.5450    1.0970 h1        1 403      0.085000
     31 H13A       -1.2300    4.5390   -0.1920 h1        1 403      0.085000
     32 H14        -3.5230    2.3020    1.2630 h1        1 403      0.085000
     33 H14A       -4.6000    2.5510    0.1740 h1        1 403      0.085000
     34 H15         4.0040   -9.2910   -2.3980 DU        1 403      0.160333
     35 H18         6.7780   -5.9000   -1.7470 DU        1 403      0.160333
     36 H19         6.4330   -8.3900   -2.8170 DU        1 403      0.160333
     37 HN20        2.9330   -3.1590    1.0310 hn        1 403      0.245000
     38 HO21        1.4310    1.0370   -1.4680 ho        1 403      0.237000
     39 HO22        0.2380   -2.4750    1.7070 ho        1 403      0.244000
     40 H23         3.6420   -5.5130    0.5360 ha        1 403      0.100500
     41 H23A        4.9900   -4.6680    0.4080 ha        1 403      0.100500
     42 H25         3.9310   -3.4320   -1.4220 h1        1 403      0.101000
     43 H25A        2.5900   -4.3510   -1.3620 h1        1 403      0.101000
     44 C16        -4.7750    6.9030    2.2430 c1        1 403     -0.125000
     45 C17        -4.1280    5.9380    3.0090 c1        1 403     -0.125000
     46 C181       -3.5100    4.8640    2.3890 c2        1 403     -0.145000
     47 C191       -4.1860    5.7220    0.2320 c1        1 403     -0.038000
     48 C20        -4.8000    6.7890    0.8460 c1        1 403     -0.125000
     49 CL1        -4.1970    5.5990   -1.4990 cl        1 403      0.004000
     50 H21        -5.2170    7.6700    2.6840 ha        1 403      0.144000
     51 H22        -4.1090    6.0200    4.0220 ha        1 403      0.137000
     52 H231       -3.0610    4.1980    2.9170 ha        1 403      0.138000
     53 H24        -5.2230    7.4190    0.3440 ha        1 403      0.144000
@<TRIPOS>BOND
     1    1    2 1   
     2    1    3 1   
     3    1   19 1   
     4    1   23 1   
     5    2    4 1   
     6    2    9 1   
     7    3    6 1   
     8    3   20 1   
     9    3   24 1   
    10    4   10 1   
    11    4   11 1   
    12    5   12 1   
    13    5   13 1   
    14    5   25 1   
    15    6   15 1   
    16    6   18 1   
    17    7    8 1   
    18    7   14 1   
    19    8   16 1   
    20   10   13 1   
    21   10   26 1   
    22   10   27 1   
    23   11   12 1   
    24   11   28 1   
    25   11   29 1   
    26   12   30 1   
    27   12   31 1   
    28   13   32 1   
    29   13   33 1   
    30   14   17 1   
    31   16   17 1   
    32   18   22 1   
    33   18   37 1   
    34   19   38 1   
    35   20   39 1   
    36   21   22 1   
    37   21   40 1   
    38   21   41 1   
    39   22   42 1   
    40   22   43 1   
    41   25   46 1   
    42   25   47 1   
    43   44   48 1   
    44   44   50 1   
    45   45   46 1   
    46   45   51 1   
    47   46   52 1   
    48   47   49 1   
    49   48   53 1   
@<TRIPOS>SUBSTRUCTURE
     1 403         1 TEMP              0 ****  ****    0 ROOT
