@<TRIPOS>MOLECULE
404
   52    54     1     0     0
SMALL
bcc


@<TRIPOS>ATOM
      1 C1         -0.3460   -0.5040    0.1330 ca        1 404      0.715200
      2 C2          0.6700   -1.4940   -0.0150 ca        1 404     -0.412800
      3 C3          2.0460   -1.0590    0.0050 ca        1 404      0.382000
      4 N4          2.4260    0.2190    0.1430 nb        1 404     -0.731000
      5 C5          1.3730    1.1160    0.2850 ca        1 404      0.887900
      6 N6          0.0160    0.8000    0.2760 nb        1 404     -0.787000
      7 N7          0.6740   -2.9110   -0.0890 na        1 404      0.029900
      8 N8          1.9390   -3.3490   -0.2590 nc        1 404     -0.509100
      9 C9          2.8050   -2.3250   -0.1500 cd        1 404      0.254300
     10 C10         4.2900   -2.4210   -0.1680 c3        1 404     -0.074000
     11 C11         4.7920   -3.2170    1.0220 c3        1 404     -0.089100
     12 C12         4.7790   -3.0360   -1.4650 c3        1 404     -0.089100
     13 N13        -1.6910   -0.8880    0.0380 nh        1 404     -0.833900
     14 C14        -2.7280    0.0790    0.3410 c3        1 404      0.238100
     15 C15        -4.0980   -0.5320    0.3290 ca        1 404     -0.112300
     16 C16        -4.8950   -0.4850    1.4770 ca        1 404     -0.114000
     17 C17        -6.1830   -1.0190    1.4560 ca        1 404     -0.132500
     18 C18        -6.6780   -1.6070    0.2920 ca        1 404     -0.121000
     19 C19        -5.8840   -1.6580   -0.8540 ca        1 404     -0.132500
     20 C20        -4.5980   -1.1210   -0.8380 ca        1 404     -0.114000
     21 N21         1.7360    2.4500    0.5660 nh        1 404     -0.813900
     22 C22         0.8720    3.5580    0.2050 c3        1 404      0.210500
     23 C23         0.9730    4.0090   -1.2620 c3        1 404     -0.106400
     24 C24         0.4760    2.9710   -2.2300 c3        1 404     -0.095100
     25 C25         1.1920    4.7780    1.1050 c3        1 404      0.123400
     26 O26         2.5030    5.2200    0.8000 oh        1 404     -0.605800
     27 H10         4.6970   -1.3710   -0.0940 hc        1 404      0.076700
     28 H11         4.4280   -4.2710    0.9750 hc        1 404      0.039867
     29 H11A        5.9090   -3.2260    1.0250 hc        1 404      0.039867
     30 H11B        4.4360   -2.7590    1.9760 hc        1 404      0.039867
     31 H12         5.8950   -3.0340   -1.4850 hc        1 404      0.039867
     32 H12A        4.4230   -4.0900   -1.5630 hc        1 404      0.039867
     33 H12B        4.4050   -2.4510   -2.3390 hc        1 404      0.039867
     34 HN13       -1.8650   -1.8020    0.4050 hn        1 404      0.415800
     35 H14        -2.5460    0.5730    1.3410 h1        1 404      0.061200
     36 H14A       -2.6790    0.8870   -0.4470 h1        1 404      0.061200
     37 H16        -4.5080   -0.0230    2.3980 ha        1 404      0.138500
     38 H17        -6.8080   -0.9770    2.3600 ha        1 404      0.134000
     39 H18        -7.6940   -2.0290    0.2770 ha        1 404      0.134000
     40 H19        -6.2730   -2.1200   -1.7730 ha        1 404      0.134000
     41 H20        -3.9720   -1.1560   -1.7430 ha        1 404      0.138500
     42 HN21        2.7060    2.6540    0.4190 hn        1 404      0.433800
     43 H22        -0.2020    3.2790    0.4210 h1        1 404      0.086700
     44 H23         0.3620    4.9440   -1.3710 hc        1 404      0.053200
     45 H23A        2.0360    4.2820   -1.4940 hc        1 404      0.053200
     46 H24         0.4950    3.3770   -3.2700 hc        1 404      0.037367
     47 H24A        1.1180    2.0570   -2.2010 hc        1 404      0.037367
     48 H24B       -0.5720    2.6700   -1.9860 hc        1 404      0.037367
     49 H25         0.4570    5.5950    0.8760 h1        1 404      0.034200
     50 H25A        1.1110    4.5000    2.1890 h1        1 404      0.034200
     51 HO26        2.7550    5.8420    1.4920 ho        1 404      0.404000
     52 HN7        -0.0180   -3.3770   -0.6430 hn        1 404      0.292700
@<TRIPOS>BOND
     1    1    2 ar  
     2    1    6 ar  
     3    1   13 1   
     4    2    3 ar  
     5    2    7 1   
     6    3    4 ar  
     7    3    9 1   
     8    4    5 ar  
     9    5    6 ar  
    10    5   21 1   
    11    7    8 1   
    12    7   52 1   
    13    8    9 2   
    14    9   10 1   
    15   10   11 1   
    16   10   12 1   
    17   10   27 1   
    18   11   28 1   
    19   11   29 1   
    20   11   30 1   
    21   12   31 1   
    22   12   32 1   
    23   12   33 1   
    24   13   14 1   
    25   13   34 1   
    26   14   15 1   
    27   14   35 1   
    28   14   36 1   
    29   15   16 ar  
    30   15   20 ar  
    31   16   17 ar  
    32   16   37 1   
    33   17   18 ar  
    34   17   38 1   
    35   18   19 ar  
    36   18   39 1   
    37   19   20 ar  
    38   19   40 1   
    39   20   41 1   
    40   21   22 1   
    41   21   42 1   
    42   22   23 1   
    43   22   25 1   
    44   22   43 1   
    45   23   24 1   
    46   23   44 1   
    47   23   45 1   
    48   24   46 1   
    49   24   47 1   
    50   24   48 1   
    51   25   26 1   
    52   25   49 1   
    53   25   50 1   
    54   26   51 1   
@<TRIPOS>SUBSTRUCTURE
     1 404         1 TEMP              0 ****  ****    0 ROOT
