@<TRIPOS>MOLECULE
404
   54    56     1     0     0
SMALL
bcc


@<TRIPOS>ATOM
      1 C1         -0.2480   -0.6740   -0.1980 ca        1 404      0.499200
      2 C2          1.0520   -0.1170   -0.2820 ca        1 404     -0.230800
      3 C3          1.6570    0.3340    1.0000 ca        1 404      0.337000
      4 N4          1.0360    0.2390    2.1720 nb        1 404     -0.547000
      5 C5         -0.2250   -0.3190    2.1130 ca        1 404      0.682900
      6 N6         -0.8840   -0.7720    0.9960 nb        1 404     -0.627000
      7 N7          1.9890    0.1450   -1.2540 na        1 404      0.029900
      8 N8          3.1070    0.6990   -0.7460 nc        1 404     -0.425100
      9 C9          2.9870    0.8460    0.5900 cd        1 404      0.335300
     10 C10         4.0120    1.4190    1.5110 c3        1 404     -0.085000
     11 C11         5.2710    0.5720    1.4960 c3        1 404     -0.101100
     12 C12         4.3260    2.8540    1.1320 c3        1 404     -0.101100
     13 N13        -0.9540   -1.1580   -1.3960 n4        1 404     -0.757700
     14 C14        -1.9030   -0.1170   -1.9690 c3        1 404      0.194100
     15 C15        -2.5110   -0.6340   -3.2180 ca        1 404     -0.220300
     16 C16        -3.6570   -1.4400   -3.1560 ca        1 404     -0.094000
     17 C17        -4.2600   -1.8820   -4.3310 ca        1 404     -0.114000
     18 C18        -3.7260   -1.5200   -5.5710 ca        1 404     -0.055000
     19 C19        -2.5860   -0.7140   -5.6350 ca        1 404     -0.114000
     20 C20        -1.9770   -0.2720   -4.4630 ca        1 404     -0.094000
     21 N21        -0.9480   -0.4680    3.4060 n4        1 404     -0.730700
     22 C22        -1.2810    0.8550    4.0660 c3        1 404      0.096500
     23 C23        -1.7200    0.6220    5.5160 c3        1 404     -0.114400
     24 C24        -0.6760   -0.0580    6.3600 c3        1 404     -0.127100
     25 C25        -2.3950    1.5850    3.2820 c3        1 404      0.112400
     26 O26        -3.4570    0.6940    3.0230 oh        1 404     -0.615800
     27 H10         3.5770    1.4040    2.5520 hc        1 404      0.077700
     28 H11         5.9970    0.9810    2.2430 hc        1 404      0.061700
     29 H11A        5.7550    0.5920    0.4900 hc        1 404      0.061700
     30 H11B        5.0430   -0.4860    1.7670 hc        1 404      0.061700
     31 H12         3.4010    3.4780    1.1310 hc        1 404      0.061700
     32 H12A        5.0420    3.2820    1.8780 hc        1 404      0.061700
     33 H12B        4.8000    2.9080    0.1220 hc        1 404      0.061700
     34 HN13       -1.5050   -2.0020   -1.1700 hn        1 404      0.470300
     35 H14        -2.6840    0.0850   -1.1800 hx        1 404      0.112200
     36 H14A       -1.3060    0.8210   -2.1520 hx        1 404      0.112200
     37 H16        -4.0960   -1.7080   -2.1820 ha        1 404      0.137000
     38 H17        -5.1650   -2.5100   -4.2830 ha        1 404      0.171000
     39 H18        -4.2100   -1.8650   -6.5010 ha        1 404      0.175000
     40 H19        -2.1740   -0.4200   -6.6150 ha        1 404      0.171000
     41 H20        -1.0940    0.3830   -4.5220 ha        1 404      0.137000
     42 HN21       -0.3570   -1.0200    4.0480 hn        1 404      0.487800
     43 H22        -0.3460    1.4910    4.0610 hx        1 404      0.128700
     44 H23        -1.9350    1.6410    5.9450 hc        1 404      0.091700
     45 H23A       -2.6830    0.0450    5.5370 hc        1 404      0.091700
     46 H24        -0.9370    0.0630    7.4440 hc        1 404      0.064033
     47 H24A        0.3340    0.3920    6.2010 hc        1 404      0.064033
     48 H24B       -0.6230   -1.1560    6.1580 hc        1 404      0.064033
     49 H25        -2.7120    2.4850    3.8710 h1        1 404      0.086700
     50 H25A       -2.0090    1.9140    2.2790 h1        1 404      0.086700
     51 HO26       -4.1920    0.9080    3.6130 ho        1 404      0.448000
     52 HN7         1.9440   -0.0340   -2.2370 hn        1 404      0.363700
     53 H132       -0.2630   -1.4210   -2.1100 hn        1 404      0.470300
     54 H212       -1.8430   -0.9660    3.2450 hn        1 404      0.487800
@<TRIPOS>BOND
     1    1    2 ar  
     2    1    6 ar  
     3    1   13 1   
     4    2    3 ar  
     5    2    7 1   
     6    3    4 ar  
     7    3    9 1   
     8    4    5 ar  
     9    5    6 ar  
    10    5   21 1   
    11    7    8 1   
    12    7   52 1   
    13    8    9 2   
    14    9   10 1   
    15   10   11 1   
    16   10   12 1   
    17   10   27 1   
    18   11   28 1   
    19   11   29 1   
    20   11   30 1   
    21   12   31 1   
    22   12   32 1   
    23   12   33 1   
    24   13   14 1   
    25   13   34 1   
    26   13   53 1   
    27   14   15 1   
    28   14   35 1   
    29   14   36 1   
    30   15   16 ar  
    31   15   20 ar  
    32   16   17 ar  
    33   16   37 1   
    34   17   18 ar  
    35   17   38 1   
    36   18   19 ar  
    37   18   39 1   
    38   19   20 ar  
    39   19   40 1   
    40   20   41 1   
    41   21   22 1   
    42   21   42 1   
    43   21   54 1   
    44   22   23 1   
    45   22   25 1   
    46   22   43 1   
    47   23   24 1   
    48   23   44 1   
    49   23   45 1   
    50   24   46 1   
    51   24   47 1   
    52   24   48 1   
    53   25   26 1   
    54   25   49 1   
    55   25   50 1   
    56   26   51 1   
@<TRIPOS>SUBSTRUCTURE
     1 404         1 TEMP              0 ****  ****    0 ROOT
