@<TRIPOS>MOLECULE
404
   52    54     1     0     0
SMALL
bcc


@<TRIPOS>ATOM
      1 C1         -0.0770   -0.0350   -0.1160 ca        1 404      0.715200
      2 C2          1.3450    0.0580   -0.0650 ca        1 404     -0.412800
      3 C3          1.9780    0.0610    1.2320 ca        1 404      0.382000
      4 N4          1.3090   -0.0060    2.3910 nb        1 404     -0.731000
      5 C5         -0.0720   -0.0980    2.2510 ca        1 404      0.887900
      6 N6         -0.7770   -0.1060    1.0490 nb        1 404     -0.787000
      7 N7          2.3770    0.0520   -1.0400 na        1 404      0.029900
      8 N8          3.5720    0.1980   -0.4300 nc        1 404     -0.509100
      9 C9          3.4230    0.1450    0.9060 cd        1 404      0.254300
     10 C10         4.5160    0.1570    1.9160 c3        1 404     -0.074000
     11 C11         5.3880   -1.0770    1.7800 c3        1 404     -0.089100
     12 C12         5.3530    1.4170    1.7960 c3        1 404     -0.089100
     13 N13        -0.7210    0.0390   -1.3590 nu        1 404     -0.833900
     14 C14        -2.1470   -0.2090   -1.4340 c3        1 404      0.238100
     15 C15        -2.6480   -0.2310   -2.8480 ca        1 404     -0.112300
     16 C16        -3.2770   -1.3740   -3.3500 ca        1 404     -0.114000
     17 C17        -3.7760   -1.3820   -4.6520 ca        1 404     -0.132500
     18 C18        -3.6450   -0.2520   -5.4590 ca        1 404     -0.121000
     19 C19        -3.0160    0.8890   -4.9620 ca        1 404     -0.132500
     20 C20        -2.5190    0.9020   -3.6590 ca        1 404     -0.114000
     21 N21        -0.7990   -0.3040    3.4410 nu        1 404     -0.813900
     22 C22        -2.1820    0.1180    3.5630 c3        1 404      0.210500
     23 C23        -2.3790    1.6070    3.8910 c3        1 404     -0.106400
     24 C24        -1.9300    2.5170    2.7800 c3        1 404     -0.095100
     25 C25        -2.8810   -0.7130    4.6680 c3        1 404      0.123400
     26 O26        -2.2850   -0.3840    5.9120 oh        1 404     -0.605800
     27 H10         4.0330    0.1440    2.9360 hc        1 404      0.076700
     28 H11         5.9020   -1.0910    0.7890 hc        1 404      0.039867
     29 H11A        4.7710   -2.0030    1.8750 hc        1 404      0.039867
     30 H11B        6.1630   -1.0810    2.5830 hc        1 404      0.039867
     31 H12         4.7090    2.3230    1.8920 hc        1 404      0.039867
     32 H12A        6.1210    1.4360    2.6070 hc        1 404      0.039867
     33 H12B        5.8750    1.4530    0.8100 hc        1 404      0.039867
     34 HN13       -0.1950   -0.3780   -2.0990 hn        1 404      0.415800
     35 H14        -2.6670    0.6220   -0.8730 h1        1 404      0.061200
     36 H14A       -2.4200   -1.1810   -0.9250 h1        1 404      0.061200
     37 H16        -3.3820   -2.2690   -2.7180 ha        1 404      0.138500
     38 H17        -4.2730   -2.2830   -5.0430 ha        1 404      0.134000
     39 H18        -4.0390   -0.2610   -6.4870 ha        1 404      0.134000
     40 H19        -2.9120    1.7810   -5.5970 ha        1 404      0.134000
     41 H20        -2.0260    1.8030   -3.2640 ha        1 404      0.138500
     42 HN21       -0.2730   -0.1460    4.2800 hn        1 404      0.433800
     43 H22        -2.7280   -0.1130    2.6010 h1        1 404      0.086700
     44 H23        -1.8350    1.8540    4.8410 hc        1 404      0.053200
     45 H23A       -3.4730    1.7680    4.0870 hc        1 404      0.053200
     46 H24        -2.1690    3.5780    3.0340 hc        1 404      0.037367
     47 H24A       -0.8280    2.4370    2.6180 hc        1 404      0.037367
     48 H24B       -2.4440    2.2570    1.8230 hc        1 404      0.037367
     49 H25        -2.7790   -1.8110    4.4590 h1        1 404      0.034200
     50 H25A       -3.9690   -0.4390    4.6880 h1        1 404      0.034200
     51 HO26       -2.5900   -1.0420    6.5480 ho        1 404      0.404000
     52 HN7         2.2610    0.5800   -1.8840 hn        1 404      0.292700
@<TRIPOS>BOND
     1    1    2 ar  
     2    1    6 ar  
     3    1   13 1   
     4    2    3 ar  
     5    2    7 1   
     6    3    4 ar  
     7    3    9 1   
     8    4    5 ar  
     9    5    6 ar  
    10    5   21 1   
    11    7    8 1   
    12    7   52 1   
    13    8    9 2   
    14    9   10 1   
    15   10   11 1   
    16   10   12 1   
    17   10   27 1   
    18   11   28 1   
    19   11   29 1   
    20   11   30 1   
    21   12   31 1   
    22   12   32 1   
    23   12   33 1   
    24   13   14 1   
    25   13   34 1   
    26   14   15 1   
    27   14   35 1   
    28   14   36 1   
    29   15   16 ar  
    30   15   20 ar  
    31   16   17 ar  
    32   16   37 1   
    33   17   18 ar  
    34   17   38 1   
    35   18   19 ar  
    36   18   39 1   
    37   19   20 ar  
    38   19   40 1   
    39   20   41 1   
    40   21   22 1   
    41   21   42 1   
    42   22   23 1   
    43   22   25 1   
    44   22   43 1   
    45   23   24 1   
    46   23   44 1   
    47   23   45 1   
    48   24   46 1   
    49   24   47 1   
    50   24   48 1   
    51   25   26 1   
    52   25   49 1   
    53   25   50 1   
    54   26   51 1   
@<TRIPOS>SUBSTRUCTURE
     1 404         1 TEMP              0 ****  ****    0 ROOT
