@<TRIPOS>MOLECULE
404
   52    54     1     0     0
SMALL
bcc


@<TRIPOS>ATOM
      1 C1         -0.0780   -0.1770   -0.0970 ca        1 404      0.717200
      2 C2          1.3470   -0.1850   -0.0460 ca        1 404     -0.415800
      3 C3          1.9790   -0.1100    1.2490 ca        1 404      0.383000
      4 N4          1.3070   -0.0530    2.4070 nb        1 404     -0.732000
      5 C5         -0.0760   -0.1070    2.2690 ca        1 404      0.888900
      6 N6         -0.7810   -0.1330    1.0670 nb        1 404     -0.790000
      7 N7          2.3760   -0.1250   -1.0240 na        1 404      0.029900
      8 N8          3.5780   -0.1620   -0.4130 nc        1 404     -0.510100
      9 C9          3.4260   -0.0870    0.9220 cd        1 404      0.254300
     10 C10         4.5170    0.0100    1.9290 c3        1 404     -0.074000
     11 C11         5.4520   -1.1810    1.8340 c3        1 404     -0.089100
     12 C12         5.2860    1.3070    1.7650 c3        1 404     -0.089100
     13 N13        -0.7180   -0.2900   -1.3390 nh        1 404     -0.833900
     14 C14        -2.1550   -0.1200   -1.4140 c3        1 404      0.239100
     15 C15        -2.6560   -0.1200   -2.8290 ca        1 404     -0.112300
     16 C16        -2.4660   -1.2420   -3.6430 ca        1 404     -0.114500
     17 C17        -2.9620   -1.2520   -4.9460 ca        1 404     -0.132500
     18 C18        -3.6500   -0.1440   -5.4410 ca        1 404     -0.121000
     19 C19        -3.8410    0.9750   -4.6310 ca        1 404     -0.132500
     20 C20        -3.3430    0.9900   -3.3290 ca        1 404     -0.114500
     21 N21        -0.8090   -0.2230    3.4670 nh        1 404     -0.814900
     22 C22        -2.1870    0.2210    3.5600 c3        1 404      0.211500
     23 C23        -2.3690    1.7300    3.7960 c3        1 404     -0.106400
     24 C24        -1.9080    2.5650    2.6330 c3        1 404     -0.094100
     25 C25        -2.8960   -0.5330    4.7120 c3        1 404      0.123400
     26 O26        -2.2990   -0.1360    5.9350 oh        1 404     -0.606800
     27 H10         4.0350    0.0050    2.9500 hc        1 404      0.076700
     28 H11         6.2190   -1.1220    2.6430 hc        1 404      0.039700
     29 H11A        4.8830   -2.1340    1.9500 hc        1 404      0.039700
     30 H11B        5.9760   -1.1950    0.8480 hc        1 404      0.039700
     31 H12         4.5970    2.1820    1.8430 hc        1 404      0.039700
     32 H12A        6.0600    1.3890    2.5670 hc        1 404      0.039700
     33 H12B        5.7960    1.3420    0.7730 hc        1 404      0.039700
     34 HN13       -0.2130    0.1450   -2.0840 hn        1 404      0.416800
     35 H14        -2.4810    0.8340   -0.9020 h1        1 404      0.061200
     36 H14A       -2.6290   -0.9800   -0.8570 h1        1 404      0.061200
     37 H16        -1.9280   -2.1180   -3.2490 ha        1 404      0.138000
     38 H17        -2.8110   -2.1360   -5.5830 ha        1 404      0.134500
     39 H18        -4.0420   -0.1540   -6.4690 ha        1 404      0.134000
     40 H19        -4.3840    1.8490   -5.0200 ha        1 404      0.134500
     41 H20        -3.4950    1.8760   -2.6940 ha        1 404      0.138000
     42 HN21       -0.2820   -0.0270    4.2970 hn        1 404      0.434800
     43 H22        -2.7340   -0.0630    2.6130 h1        1 404      0.086700
     44 H23        -1.8230    2.0280    4.7300 hc        1 404      0.053200
     45 H23A       -3.4600    1.9140    3.9790 hc        1 404      0.053200
     46 H24        -2.4190    2.2500    1.6910 hc        1 404      0.036367
     47 H24A       -0.8050    2.4680    2.4820 hc        1 404      0.036367
     48 H24B       -2.1410    3.6420    2.8200 hc        1 404      0.036367
     49 H25        -3.9820   -0.2460    4.7140 h1        1 404      0.034700
     50 H25A       -2.8070   -1.6430    4.5710 h1        1 404      0.034700
     51 HO26       -2.6100   -0.7510    6.6090 ho        1 404      0.404000
     52 HN7         2.3000   -0.6880   -1.8490 hn        1 404      0.291700
@<TRIPOS>BOND
     1    1    2 ar  
     2    1    6 ar  
     3    1   13 1   
     4    2    3 ar  
     5    2    7 1   
     6    3    4 ar  
     7    3    9 1   
     8    4    5 ar  
     9    5    6 ar  
    10    5   21 1   
    11    7    8 1   
    12    7   52 1   
    13    8    9 2   
    14    9   10 1   
    15   10   11 1   
    16   10   12 1   
    17   10   27 1   
    18   11   28 1   
    19   11   29 1   
    20   11   30 1   
    21   12   31 1   
    22   12   32 1   
    23   12   33 1   
    24   13   14 1   
    25   13   34 1   
    26   14   15 1   
    27   14   35 1   
    28   14   36 1   
    29   15   16 ar  
    30   15   20 ar  
    31   16   17 ar  
    32   16   37 1   
    33   17   18 ar  
    34   17   38 1   
    35   18   19 ar  
    36   18   39 1   
    37   19   20 ar  
    38   19   40 1   
    39   20   41 1   
    40   21   22 1   
    41   21   42 1   
    42   22   23 1   
    43   22   25 1   
    44   22   43 1   
    45   23   24 1   
    46   23   44 1   
    47   23   45 1   
    48   24   46 1   
    49   24   47 1   
    50   24   48 1   
    51   25   26 1   
    52   25   49 1   
    53   25   50 1   
    54   26   51 1   
@<TRIPOS>SUBSTRUCTURE
     1 404         1 TEMP              0 ****  ****    0 ROOT
