@<TRIPOS>MOLECULE
404
   52    45     1     0     0
SMALL
bcc


@<TRIPOS>ATOM
      1 C1         -0.5220    0.4520   -0.9260 c1        1 404      0.170000
      2 C2          0.8680    0.5030   -1.0400 c1        1 404     -0.091000
      3 C3          1.6360    0.3480    0.0530 c1        1 404     -0.091000
      4 N4          1.0520    0.1410    1.2770 n1        1 404     -0.204000
      5 C5         -0.3160    0.0910    1.3870 c1        1 404      0.164000
      6 N6         -1.0940    0.2470    0.2830 n1        1 404     -0.266000
      7 N7          1.7010    0.7320   -2.1150 n1        1 404     -0.150000
      8 N8          2.9990    0.7150   -1.6600 n2        1 404     -0.032000
      9 C9          2.9720    0.4810   -0.3350 c1        1 404     -0.090000
     10 C10         4.2620    0.3790    0.4670 c2        1 404     -0.034000
     11 C11         5.0420   -0.7980    0.0020 c3        1 404     -0.208000
     12 C12         5.0820    1.6420    0.2690 c3        1 404     -0.208000
     13 N13        -1.6080    0.4080   -1.8530 n3        1 404     -0.260000
     14 C14        -1.7610   -0.7260   -2.7240 c3        1 404     -0.029000
     15 C15        -2.5660   -0.3040   -3.9900 c2        1 404     -0.119000
     16 C16        -1.9230   -0.2000   -5.2160 c2        1 404     -0.117000
     17 C17        -2.6600    0.0560   -6.3710 c1        1 404     -0.129000
     18 C18        -4.0400    0.2090   -6.2950 c1        1 404     -0.125000
     19 C19        -4.6820    0.1060   -5.0710 c1        1 404     -0.125000
     20 C20        -3.9450   -0.1510   -3.9150 c1        1 404     -0.121000
     21 N21        -1.1450    0.3060    2.5770 n3        1 404     -0.282000
     22 C22        -0.8770   -0.4280    3.7800 c3        1 404     -0.016000
     23 C23        -1.8870   -0.0480    4.8350 c3        1 404     -0.167000
     24 C24        -2.0410   -1.1780    5.8110 c3        1 404     -0.215000
     25 C25         0.5140   -0.0990    4.2750 c3        1 404     -0.015000
     26 O26         1.0570   -1.2220    4.9330 oh        1 404     -0.336000
     27 H10         4.0500    0.2760    1.4130 ha        1 404      0.108000
     28 H11         5.2090   -0.7210   -0.9550 hc        1 404      0.080000
     29 H11A        4.5350   -1.6150    0.1790 hc        1 404      0.080000
     30 H11B        5.8960   -0.8330    0.4810 hc        1 404      0.080000
     31 H12         5.1890    1.8150   -0.6880 hc        1 404      0.080000
     32 H12A        4.6220    2.3990    0.6880 hc        1 404      0.080000
     33 H12B        5.9690    1.5260    0.6830 hc        1 404      0.080000
     34 HN13       -2.2400    1.0530   -1.8370 hn        1 404      0.205000
     35 H14        -2.2420   -1.4380   -2.2530 h1        1 404      0.108500
     36 H14A       -0.8670   -1.0560   -2.9970 h1        1 404      0.108500
     37 H16        -0.9570   -0.3070   -5.2690 ha        1 404      0.133000
     38 H17        -2.2100    0.1290   -7.2310 ha        1 404      0.134000
     39 H18        -4.5580    0.3890   -7.1060 ha        1 404      0.134500
     40 H19        -5.6600    0.2140   -5.0170 ha        1 404      0.134500
     41 H20        -4.3950   -0.2230   -3.0580 ha        1 404      0.142000
     42 HN21       -1.8530    0.8870    2.5430 hn        1 404      0.228000
     43 H22        -0.9400   -1.3840    3.5990 h1        1 404      0.104000
     44 H23        -2.7500    0.1360    4.4100 hc        1 404      0.083000
     45 H23A       -1.5780    0.7520    5.3080 hc        1 404      0.083000
     46 H24        -2.4400   -0.8430    6.6350 hc        1 404      0.082333
     47 H24A       -2.6190   -1.8670    5.4250 hc        1 404      0.082333
     48 H24B       -1.1590   -1.5630    6.0080 hc        1 404      0.082333
     49 H25         1.0780    0.1390    3.5200 h1        1 404      0.094500
     50 H25A        0.4680    0.6560    4.9010 h1        1 404      0.094500
     51 HO26        1.8960   -1.0530    5.1630 ho        1 404      0.215000
     52 HN7         1.4350    0.8720   -2.9840 DU        1 404      0.260000
@<TRIPOS>BOND
     1    1    6 1   
     2    1   13 1   
     3    2    3 1   
     4    4    5 1   
     5    5   21 1   
     6    7    8 1   
     7    8    9 1   
     8   10   11 1   
     9   10   12 1   
    10   10   27 1   
    11   11   28 1   
    12   11   29 1   
    13   11   30 1   
    14   12   31 1   
    15   12   32 1   
    16   12   33 1   
    17   13   14 1   
    18   13   34 1   
    19   14   15 1   
    20   14   35 1   
    21   14   36 1   
    22   15   16 1   
    23   15   20 1   
    24   16   17 1   
    25   16   37 1   
    26   17   38 1   
    27   18   19 1   
    28   18   39 1   
    29   19   40 1   
    30   20   41 1   
    31   21   22 1   
    32   21   42 1   
    33   22   23 1   
    34   22   25 1   
    35   22   43 1   
    36   23   24 1   
    37   23   44 1   
    38   23   45 1   
    39   24   46 1   
    40   24   47 1   
    41   24   48 1   
    42   25   26 1   
    43   25   49 1   
    44   25   50 1   
    45   26   51 1   
@<TRIPOS>SUBSTRUCTURE
     1 404         1 TEMP              0 ****  ****    0 ROOT
