@<TRIPOS>MOLECULE
405
   38    39     1     0     0
SMALL
bcc


@<TRIPOS>ATOM
      1 F2         -0.7710    0.8460   -1.6370 f         1 405     -0.225967
      2 C15         0.5060    0.4500   -1.3230 c3        1 405      0.689200
      3 F           0.3880   -0.1520   -0.0950 f         1 405     -0.225967
      4 F1          0.7710   -0.5810   -2.1890 f         1 405     -0.225967
      5 C12         1.5300    1.5830   -1.3660 ca        1 405     -0.163300
      6 C11         2.2210    1.8460   -2.5510 ca        1 405     -0.056500
      7 C10         3.1430    2.8900   -2.6010 ca        1 405     -0.151500
      8 C13         1.7490    2.3550   -0.2230 ca        1 405     -0.056500
      9 C14         2.6730    3.3980   -0.2560 ca        1 405     -0.151500
     10 C9          3.3650    3.6530   -1.4460 ca        1 405      0.105100
     11 O           4.3810    4.6040   -1.5010 os        1 405     -0.418900
     12 C6          3.9820    5.9600   -1.1940 c3        1 405      0.201400
     13 C7          5.2870    6.7590   -1.1490 c3        1 405     -0.116400
     14 C8          6.2440    6.3040   -0.0590 c3        1 405      0.111800
     15 N           6.8690    4.9790   -0.3470 n4        1 405     -0.841600
     16 C3          3.0640    6.5310   -2.2280 ca        1 405     -0.155300
     17 C2          1.9170    7.2250   -1.8250 ca        1 405     -0.106500
     18 C1          1.0670    7.7780   -2.7820 ca        1 405     -0.121000
     19 C4          3.3480    6.3900   -3.5910 ca        1 405     -0.106500
     20 C5          2.4950    6.9430   -4.5430 ca        1 405     -0.121000
     21 C           1.3540    7.6390   -4.1400 ca        1 405     -0.096000
     22 H1          2.0340    1.2290   -3.4470 ha        1 405      0.169500
     23 H2          3.6870    3.1190   -3.5280 ha        1 405      0.149000
     24 H3          1.1930    2.1340    0.7040 ha        1 405      0.169500
     25 H4          2.8410    4.0110    0.6400 ha        1 405      0.149000
     26 H5          3.4860    5.9620   -0.1820 h1        1 405      0.061700
     27 H6          5.7780    6.7250   -2.1580 hc        1 405      0.103200
     28 H7          5.0230    7.8320   -0.9380 hc        1 405      0.103200
     29 H8          7.0770    7.0580    0.0540 hx        1 405      0.107700
     30 H9          5.6980    6.2130    0.9240 hx        1 405      0.107700
     31 H10         7.3880    5.0220   -1.2300 hn        1 405      0.465800
     32 H11         7.5040    4.7120    0.4080 hn        1 405      0.465800
     33 H13         1.6790    7.3330   -0.7560 ha        1 405      0.132000
     34 H14         0.1650    8.3230   -2.4620 ha        1 405      0.150500
     35 H15         4.2400    5.8280   -3.9050 ha        1 405      0.132000
     36 H16         2.7200    6.8280   -5.6150 ha        1 405      0.150500
     37 H17         0.6800    8.0750   -4.8930 ha        1 405      0.153000
     38 HN3         6.1280    4.2650   -0.4490 hn        1 405      0.465800
@<TRIPOS>BOND
     1    1    2 1   
     2    2    3 1   
     3    2    4 1   
     4    2    5 1   
     5    5    6 ar  
     6    5    8 ar  
     7    6    7 ar  
     8    6   22 1   
     9    7   10 ar  
    10    7   23 1   
    11    8    9 ar  
    12    8   24 1   
    13    9   10 ar  
    14    9   25 1   
    15   10   11 1   
    16   11   12 1   
    17   12   13 1   
    18   12   16 1   
    19   12   26 1   
    20   13   14 1   
    21   13   27 1   
    22   13   28 1   
    23   14   15 1   
    24   14   29 1   
    25   14   30 1   
    26   15   31 1   
    27   15   32 1   
    28   15   38 1   
    29   16   17 ar  
    30   16   19 ar  
    31   17   18 ar  
    32   17   33 1   
    33   18   21 ar  
    34   18   34 1   
    35   19   20 ar  
    36   19   35 1   
    37   20   21 ar  
    38   20   36 1   
    39   21   37 1   
@<TRIPOS>SUBSTRUCTURE
     1 405         1 TEMP              0 ****  ****    0 ROOT
