@<TRIPOS>MOLECULE
405
   38    39     1     0     0
SMALL
bcc


@<TRIPOS>ATOM
      1 F2         -1.1170    0.9410   -1.5650 f         1 405     -0.228300
      2 C15         0.1300    0.4830   -1.2160 c3        1 405      0.689200
      3 F          -0.0400   -0.0430    0.0410 f         1 405     -0.228300
      4 F1          0.3320   -0.6090   -2.0220 f         1 405     -0.228300
      5 C12         1.2240    1.5430   -1.3080 ca        1 405     -0.170300
      6 C11         1.9360    1.7000   -2.5000 ca        1 405     -0.056500
      7 C10         2.9210    2.6810   -2.5960 ca        1 405     -0.153500
      8 C13         1.4900    2.3570   -0.2050 ca        1 405     -0.056500
      9 C14         2.4780    3.3360   -0.2850 ca        1 405     -0.153500
     10 C9          3.1870    3.4910   -1.4820 ca        1 405      0.118100
     11 O           4.2620    4.3660   -1.5960 os        1 405     -0.374900
     12 C6          3.9900    5.7350   -1.2430 c3        1 405      0.213400
     13 C7          5.3690    6.4130   -1.2600 c3        1 405     -0.113400
     14 C8          6.2920    5.7120   -0.2740 c3        1 405      0.096800
     15 N           7.7130    6.1520   -0.4070 nz        1 405     -0.837600
     16 C3          3.0810    6.4170   -2.2160 ca        1 405     -0.155300
     17 C2          2.0810    7.2740   -1.7440 ca        1 405     -0.108500
     18 C1          1.2380    7.9230   -2.6450 ca        1 405     -0.122500
     19 C4          3.2250    6.2100   -3.5920 ca        1 405     -0.108500
     20 C5          2.3790    6.8580   -4.4890 ca        1 405     -0.122500
     21 C           1.3860    7.7170   -4.0170 ca        1 405     -0.098000
     22 H1          1.7170    1.0480   -3.3620 ha        1 405      0.165500
     23 H2          3.4890    2.8210   -3.5270 ha        1 405      0.147500
     24 H3          0.9220    2.2170    0.7300 ha        1 405      0.165500
     25 H4          2.6890    3.9730    0.5850 ha        1 405      0.147500
     26 H5          3.5560    5.7690   -0.2040 h1        1 405      0.061700
     27 H6          5.7740    6.3510   -2.3050 hc        1 405      0.083700
     28 H7          5.2340    7.4920   -0.9920 hc        1 405      0.083700
     29 H8          6.2580    4.5950   -0.4530 hx        1 405      0.123200
     30 H9          5.9660    5.9210    0.7850 hx        1 405      0.123200
     31 H10         8.0550    5.9460   -1.3530 hn        1 405      0.461133
     32 H11         8.2980    5.6590    0.2740 hn        1 405      0.461133
     33 H13         1.9490    7.4320   -0.6630 ha        1 405      0.134000
     34 H14         0.4490    8.5950   -2.2710 ha        1 405      0.149000
     35 H15         3.9970    5.5150   -3.9580 ha        1 405      0.134000
     36 H16         2.4910    6.6880   -5.5710 ha        1 405      0.149000
     37 H17         0.7160    8.2280   -4.7260 ha        1 405      0.151000
     38 HN3         7.7890    7.1610   -0.2460 hn        1 405      0.461133
@<TRIPOS>BOND
     1    1    2 1   
     2    2    3 1   
     3    2    4 1   
     4    2    5 1   
     5    5    6 ar  
     6    5    8 ar  
     7    6    7 ar  
     8    6   22 1   
     9    7   10 ar  
    10    7   23 1   
    11    8    9 ar  
    12    8   24 1   
    13    9   10 ar  
    14    9   25 1   
    15   10   11 1   
    16   11   12 1   
    17   12   13 1   
    18   12   16 1   
    19   12   26 1   
    20   13   14 1   
    21   13   27 1   
    22   13   28 1   
    23   14   15 1   
    24   14   29 1   
    25   14   30 1   
    26   15   31 1   
    27   15   32 1   
    28   15   38 1   
    29   16   17 ar  
    30   16   19 ar  
    31   17   18 ar  
    32   17   33 1   
    33   18   21 ar  
    34   18   34 1   
    35   19   20 ar  
    36   19   35 1   
    37   20   21 ar  
    38   20   36 1   
    39   21   37 1   
@<TRIPOS>SUBSTRUCTURE
     1 405         1 TEMP              0 ****  ****    0 ROOT
