@<TRIPOS>MOLECULE
406
   73    77     1     0     0
SMALL
bcc


@<TRIPOS>ATOM
      1 C1         -4.0180   -3.7730   -0.0730 ca        1 406     -0.152600
      2 C2         -3.3660   -2.5370   -0.0720 ca        1 406     -0.082000
      3 C3         -1.9750   -2.4920   -0.0540 ca        1 406     -0.145000
      4 C4         -1.2130   -3.6690   -0.0360 ca        1 406     -0.005300
      5 C5         -1.8740   -4.9050   -0.0300 ca        1 406     -0.150300
      6 C6         -3.2720   -4.9540   -0.0440 ca        1 406     -0.040000
      7 C7         -1.1290   -6.2410   -0.0250 c3        1 406      0.699200
      8 F8         -1.8970   -7.3050    0.3950 f         1 406     -0.233633
      9 F9         -0.6750   -6.6430   -1.2560 f         1 406     -0.233633
     10 F10        -0.0340   -6.3060    0.8000 f         1 406     -0.233633
     11 C11         0.2850   -3.5360    0.0180 c3        1 406      0.190100
     12 N12         0.9550   -4.1190   -1.1340 n3        1 406     -0.713600
     13 C13         2.4140   -4.1530   -0.9930 c3        1 406      0.157800
     14 C14         3.0540   -3.3150   -2.1070 c3        1 406     -0.101400
     15 C15         1.9550   -3.1780   -3.1820 c3        1 406      0.165500
     16 C16         0.6310   -3.4660   -2.4040 c3        1 406      0.152800
     17 N17         1.9460   -1.8930   -3.8810 n3        1 406     -0.727600
     18 C18         0.8930   -1.8180   -4.8740 c3        1 406      0.151600
     19 C19         3.2370   -1.5550   -4.4410 c3        1 406      0.151600
     20 N20        -7.1090  -10.4020   -2.4700 nb        1 406     -0.696500
     21 C21        -6.4710   -9.6560   -3.4130 ca        1 406      0.639900
     22 N22        -6.7770   -8.3840   -3.7880 nb        1 406     -0.696500
     23 C23        -7.8220   -7.8140   -3.1570 ca        1 406      0.458700
     24 C24        -8.5680   -8.4960   -2.1660 cp        1 406     -0.389100
     25 C25        -8.1510   -9.8110   -1.8530 ca        1 406      0.458700
     26 C26        -9.7110   -7.8790   -1.4870 cp        1 406      0.540800
     27 N27        -9.6920   -6.5380   -1.2830 nb        1 406     -0.733000
     28 C28       -10.7850   -5.9930   -0.6310 ca        1 406      0.879900
     29 N29       -11.9030   -6.7180   -0.2120 nb        1 406     -0.743000
     30 C30       -11.8670   -8.0350   -0.4420 ca        1 406      0.467200
     31 C31       -10.7940   -8.6870   -1.0760 ca        1 406     -0.411600
     32 N32       -10.7810   -4.6230   -0.3070 nh        1 406     -0.713300
     33 C33        -8.4820   -3.8700   -0.6420 ca        1 406     -0.130000
     34 C34        -7.5610   -2.9340   -1.1490 ca        1 406      0.074600
     35 C35        -8.0430   -1.8310   -1.8940 ca        1 406     -0.188000
     36 C36        -9.4040   -1.6800   -2.1100 ca        1 406     -0.092000
     37 C37       -10.3320   -2.6000   -1.6190 ca        1 406     -0.132300
     38 C38        -9.8610   -3.7120   -0.8790 ca        1 406      0.156600
     39 C39       -11.7770   -2.3930   -1.8730 c3        1 406     -0.053800
     40 N40        -6.1730   -3.0500   -0.9600 n         1 406     -0.469100
     41 C41        -5.5100   -3.8790   -0.0650 c         1 406      0.679700
     42 O42        -6.0910   -4.6740    0.6940 o         1 406     -0.568100
     43 H391      -12.2320   -3.2950   -2.3530 hc        1 406      0.045367
     44 H392      -12.3210   -2.1900   -0.9150 hc        1 406      0.045367
     45 H393      -11.9440   -1.5210   -2.5530 hc        1 406      0.045367
     46 H36        -9.7610   -0.8130   -2.6890 ha        1 406      0.135000
     47 H35        -7.3480   -1.0850   -2.3080 ha        1 406      0.130000
     48 H33        -8.1250   -4.7330   -0.0520 ha        1 406      0.191000
     49 H32       -11.6780   -4.2350   -0.0920 hn        1 406      0.446800
     50 H30       -12.7550   -8.6010   -0.1020 h4        1 406      0.029100
     51 H31       -10.8100   -9.7670   -1.2540 ha        1 406      0.156000
     52 H25        -8.6620  -10.4070   -1.0750 h4        1 406      0.041600
     53 H23        -8.0710   -6.7770   -3.4530 h4        1 406      0.041600
     54 H40        -5.6130   -2.4450   -1.5190 hn        1 406      0.319500
     55 H2         -3.9400   -1.5980   -0.0680 ha        1 406      0.142000
     56 H3         -1.4650   -1.5160   -0.0540 ha        1 406      0.147000
     57 H111        0.5460   -2.4430    0.1540 h1        1 406      0.055200
     58 H112        0.6510   -4.0850    0.9360 h1        1 406      0.055200
     59 H131        2.7170   -5.2320   -1.0930 h1        1 406      0.052700
     60 H132        2.7570   -3.7910    0.0130 h1        1 406      0.052700
     61 H141        3.3670   -2.3210   -1.7040 hc        1 406      0.055700
     62 H142        3.9550   -3.8240   -2.5240 hc        1 406      0.055700
     63 H15         2.0960   -4.0210   -3.9260 h1        1 406      0.031700
     64 H161        0.0370   -2.5230   -2.2460 h1        1 406      0.053200
     65 H162        0.0020   -4.1850   -2.9950 h1        1 406      0.053200
     66 H181       -0.0950   -2.0250   -4.3880 h1        1 406      0.032867
     67 H182        1.0310   -2.5450   -5.7210 h1        1 406      0.032867
     68 H183        0.8740   -0.7790   -5.2960 h1        1 406      0.032867
     69 H191        3.9980   -1.5020   -3.6200 h1        1 406      0.032867
     70 H192        3.1650   -0.5450   -4.9250 h1        1 406      0.032867
     71 H193        3.5940   -2.2940   -5.2110 h1        1 406      0.032867
     72 H6         -3.7970   -5.9260   -0.0180 ha        1 406      0.175000
     73 H21        -5.6100  -10.1330   -3.9250 h5        1 406      0.058100
@<TRIPOS>BOND
     1    1    2 ar  
     2    1    6 ar  
     3    1   41 1   
     4    2    3 ar  
     5    2   55 1   
     6    3    4 ar  
     7    3   56 1   
     8    4    5 ar  
     9    4   11 1   
    10    5    6 ar  
    11    5    7 1   
    12    6   72 1   
    13    7    8 1   
    14    7    9 1   
    15    7   10 1   
    16   11   12 1   
    17   11   57 1   
    18   11   58 1   
    19   12   13 1   
    20   12   16 1   
    21   13   14 1   
    22   13   59 1   
    23   13   60 1   
    24   14   15 1   
    25   14   61 1   
    26   14   62 1   
    27   15   16 1   
    28   15   17 1   
    29   15   63 1   
    30   16   64 1   
    31   16   65 1   
    32   17   18 1   
    33   17   19 1   
    34   18   66 1   
    35   18   67 1   
    36   18   68 1   
    37   19   69 1   
    38   19   70 1   
    39   19   71 1   
    40   20   21 ar  
    41   20   25 ar  
    42   21   22 ar  
    43   21   73 1   
    44   22   23 ar  
    45   23   24 ar  
    46   23   53 1   
    47   24   25 ar  
    48   24   26 1   
    49   25   52 1   
    50   26   27 ar  
    51   26   31 ar  
    52   27   28 ar  
    53   28   29 ar  
    54   28   32 1   
    55   29   30 ar  
    56   30   31 ar  
    57   30   50 1   
    58   31   51 1   
    59   32   38 1   
    60   32   49 1   
    61   33   34 ar  
    62   33   38 ar  
    63   33   48 1   
    64   34   35 ar  
    65   34   40 1   
    66   35   36 ar  
    67   35   47 1   
    68   36   37 ar  
    69   36   46 1   
    70   37   38 ar  
    71   37   39 1   
    72   39   43 1   
    73   39   44 1   
    74   39   45 1   
    75   40   41 1   
    76   40   54 1   
    77   41   42 2   
@<TRIPOS>SUBSTRUCTURE
     1 406         1 TEMP              0 ****  ****    0 ROOT
