@<TRIPOS>MOLECULE
406
   73    64     1     0     0
SMALL
bcc


@<TRIPOS>ATOM
      1 C1         -0.6240    0.4680    1.3960 c1        1 406     -0.135000
      2 C2          0.7520    0.3990    1.3880 c2        1 406     -0.084000
      3 C3          1.4560    0.3530    2.5950 c1        1 406     -0.123000
      4 C4          0.7570    0.3760    3.8220 c1        1 406      0.002000
      5 C5         -0.6150    0.4450    3.8270 c1        1 406     -0.164000
      6 C6         -1.3190    0.4920    2.6160 c1        1 406     -0.040000
      7 C7         -1.3640    0.4870    5.1270 c3        1 406      0.468000
      8 F8         -2.6720    0.3620    4.8870 f         1 406     -0.163333
      9 F9         -0.9600   -0.5160    5.9120 f         1 406     -0.163333
     10 F10        -1.1400    1.6360    5.7280 f         1 406     -0.163333
     11 C11         1.5320    0.2540    5.1570 c3        1 406     -0.050000
     12 N12         3.0500    1.3470    5.0960 n3        1 406     -0.250000
     13 C13         4.3150    0.5350    5.8230 c3        1 406     -0.077000
     14 C14         4.9140    1.5680    6.9710 c3        1 406     -0.175000
     15 C15         4.2940    2.8480    6.7010 c3        1 406     -0.025000
     16 C16         2.8250    2.5230    5.9660 c3        1 406     -0.086000
     17 N17         4.0950    3.5380    7.8800 n3        1 406     -0.252000
     18 C18         5.3020    3.4400    8.7170 c3        1 406     -0.123500
     19 C19         3.8170    4.9760    7.5750 c3        1 406     -0.123500
     20 N20        -2.5910   -7.1060   -9.2380 n1        1 406     -0.169500
     21 C21        -2.3740   -6.7010  -10.5190 c1        1 406     -0.021000
     22 N22        -2.4140   -5.3440  -10.8390 n1        1 406     -0.169500
     23 C23        -2.6690   -4.4300   -9.8750 c1        1 406     -0.136500
     24 C24        -2.8900   -4.8450   -8.5680 c1        1 406     -0.026000
     25 C25        -2.8500   -6.1810   -8.2580 c1        1 406     -0.021000
     26 C26        -3.1900   -3.8990   -7.5730 c1        1 406     -0.026000
     27 N27        -2.2550   -2.9970   -7.2020 n1        1 406     -0.224000
     28 C28        -2.5600   -2.0290   -6.2760 c1        1 406      0.145000
     29 N29        -3.8060   -1.9760   -5.7300 n2        1 406     -0.190000
     30 C30        -4.7520   -2.8870   -6.1050 c1        1 406     -0.004000
     31 C31        -4.4440   -3.8510   -7.0280 c1        1 406     -0.136500
     32 N32        -1.5110   -1.0970   -5.8230 n2        1 406     -0.221000
     33 C33        -1.1280   -0.3500   -3.5350 c1        1 406     -0.200000
     34 C34        -1.3880    0.5170   -2.4850 c1        1 406      0.076000
     35 C35        -2.2960    1.5490   -2.6510 c1        1 406     -0.141000
     36 C36        -2.9400    1.7130   -3.8640 c1        1 406     -0.109000
     37 C37        -2.6780    0.8490   -4.9060 c1        1 406     -0.047000
     38 C38        -1.7690   -0.1850   -4.7390 c2        1 406      0.048000
     39 C39        -3.2660    1.1220   -6.2830 c2        1 406     -0.174000
     40 N40        -0.6690    0.3680   -1.2210 n3        1 406     -0.321000
     41 C41        -1.4040    0.4560    0.0700 c1        1 406      0.355000
     42 O42        -2.6290    0.6560    0.0720 o         1 406     -0.336000
     43 H391       -3.4810    2.1020   -6.3680 ha        1 406      0.089333
     44 H392       -4.0870    0.5960   -6.3970 ha        1 406      0.089333
     45 H393       -2.6160    0.8680   -6.9730 ha        1 406      0.089333
     46 H36        -3.5590    2.4170   -3.9790 ha        1 406      0.141000
     47 H35        -2.4820    2.1580   -1.9160 ha        1 406      0.175000
     48 H33        -0.4860   -1.0800   -3.4200 ha        1 406      0.130000
     49 H32        -0.6670   -1.1450   -6.1920 hn        1 406      0.226000
     50 H30        -5.6520   -2.8520   -5.7140 ha        1 406      0.169000
     51 H31        -5.1210   -4.5050   -7.3000 ha        1 406      0.171500
     52 H25        -3.0090   -6.4800   -7.3210 ha        1 406      0.182500
     53 H21        -2.1850   -7.3850  -11.2380 ha        1 406      0.182500
     54 H23        -2.6980   -3.4610  -10.1010 ha        1 406      0.171500
     55 H40         0.2330    0.2260   -1.2240 hn        1 406      0.232000
     56 H2          1.2370    0.3820    0.5370 ha        1 406      0.144000
     57 H3          2.4480    0.3030    2.5900 ha        1 406      0.162000
     58 H111        0.9340    0.5470    5.9250 h1        1 406      0.095500
     59 H112        1.8190   -0.7250    5.3000 h1        1 406      0.095500
     60 H131        3.9870   -0.2900    6.2490 h1        1 406      0.084500
     61 H132        5.0320    0.3160    5.1390 h1        1 406      0.084500
     62 H141        5.8750    1.6380    6.8900 hc        1 406      0.096000
     63 H142        4.6690    1.2500    7.8810 hc        1 406      0.096000
     64 H15         4.8690    3.3800    6.0860 h1        1 406      0.067000
     65 H161        2.5340    3.2990    5.4220 h1        1 406      0.096000
     66 H162        2.1380    2.3110    6.6560 h1        1 406      0.096000
     67 H181        5.0890    3.7410    9.6520 h1        1 406      0.072500
     68 H182        5.6180    2.4970    8.7380 h1        1 406      0.072500
     69 H183        6.0080    4.0150    8.3400 h1        1 406      0.072500
     70 H191        3.4390    5.4080    8.3600 h1        1 406      0.072500
     71 H192        3.1710    5.0360    6.8230 h1        1 406      0.072500
     72 H193        4.6670    5.4310    7.3210 h1        1 406      0.072500
     73 H6         -2.2870    0.5410    2.6210 ha        1 406      0.175000
@<TRIPOS>BOND
     1    1    2 1   
     2    1    6 1   
     3    2    3 1   
     4    2   56 1   
     5    3   57 1   
     6    4    5 1   
     7    4   11 1   
     8    5    7 1   
     9    6   73 1   
    10    7    8 1   
    11    7    9 1   
    12    7   10 1   
    13   11   12 1   
    14   11   58 1   
    15   11   59 1   
    16   12   13 1   
    17   12   16 1   
    18   13   14 1   
    19   13   60 1   
    20   13   61 1   
    21   14   15 1   
    22   14   62 1   
    23   14   63 1   
    24   15   16 1   
    25   15   17 1   
    26   15   64 1   
    27   16   65 1   
    28   16   66 1   
    29   17   18 1   
    30   17   19 1   
    31   18   67 1   
    32   18   68 1   
    33   18   69 1   
    34   19   70 1   
    35   19   71 1   
    36   19   72 1   
    37   20   25 1   
    38   21   22 1   
    39   21   53 1   
    40   23   24 1   
    41   23   54 1   
    42   25   52 1   
    43   26   31 1   
    44   27   28 1   
    45   28   29 1   
    46   29   30 1   
    47   30   50 1   
    48   31   51 1   
    49   32   38 1   
    50   32   49 1   
    51   33   38 1   
    52   33   48 1   
    53   34   35 1   
    54   34   40 1   
    55   35   47 1   
    56   36   37 1   
    57   36   46 1   
    58   37   38 1   
    59   39   43 1   
    60   39   44 1   
    61   39   45 1   
    62   40   41 1   
    63   40   55 1   
    64   41   42 1   
@<TRIPOS>SUBSTRUCTURE
     1 406         1 TEMP              0 ****  ****    0 ROOT
