@<TRIPOS>MOLECULE
407
   33    32     1     0     0
SMALL
bcc


@<TRIPOS>ATOM
      1 C1       -153.1010    3.8150  -18.6510 c         1 407      0.448100
      2 C2       -153.0670    5.3800  -18.4770 c3        1 407      0.218500
      3 N3       -154.5050    3.1840  -18.7760 n4        1 407     -0.472300
      4 O4       -152.1840    3.0220  -18.7100 o         1 407     -0.406100
      5 O5       -154.5320    1.8980  -19.1920 oh        1 407     -0.361300
      6 C6       -153.8760    5.7010  -17.2190 c3        1 407     -0.132100
      7 N7       -151.7570    5.8820  -18.4650 n3        1 407     -0.933800
      8 S8        153.5270   -4.0240   18.0720 s4        1 407      1.663300
      9 O9        154.2800   -3.5290   19.0780 o         1 407     -0.392400
     10 O10       154.0590   -4.5670   16.9550 o         1 407     -0.392400
     11 C18       151.9990   -3.9660   18.2040 ca        1 407     -0.666500
     12 C19       151.1440   -4.4710   17.1780 ca        1 407      0.048000
     13 C20       149.7670   -4.4320   17.2700 ca        1 407     -0.123300
     14 C21       149.1780   -3.8630   18.4390 ca        1 407      0.314900
     15 C22       150.0000   -3.3530   19.4770 ca        1 407     -0.195000
     16 C23       151.3680   -3.4060   19.3550 ca        1 407      0.062000
     17 F24       147.8500   -3.8090   18.5620 f         1 407     -0.058900
     18 C25       148.9000   -4.9610   16.1920 c3        1 407     -0.076800
     19 H1       -153.6010    5.7780  -19.3960 h1        1 407      0.103700
     20 H2       -155.0610    3.7170  -19.4720 hn        1 407      0.476800
     21 H3       -153.6630    1.4710  -18.9860 ho        1 407      0.484000
     22 H4       -153.7670    6.7900  -16.9740 hc        1 407      0.078033
     23 H5       -154.9610    5.5030  -17.3940 hc        1 407      0.078033
     24 H6       -153.5230    5.1130  -16.3380 hc        1 407      0.078033
     25 H7       -151.2400    5.8130  -19.3110 hn        1 407      0.431300
     26 H8        151.6080   -4.9110   16.2710 ha        1 407      0.184000
     27 H9        149.5250   -2.9170   20.3750 ha        1 407      0.203000
     28 H10       152.0030   -3.0050   20.1710 ha        1 407      0.185000
     29 H11       148.2470   -4.1440   15.7890 hc        1 407      0.082033
     30 H12       148.2330   -5.7670   16.5960 hc        1 407      0.082033
     31 H13       149.5010   -5.3850   15.3510 hc        1 407      0.082033
     32 H32      -154.9860    3.2440  -17.8580 hn        1 407      0.476800
     33 H72      -151.2280    5.7510  -17.6330 hn        1 407      0.431300
@<TRIPOS>BOND
     1    1    2 1   
     2    1    3 1   
     3    1    4 2   
     4    2    6 1   
     5    2    7 1   
     6    2   19 1   
     7    3    5 1   
     8    3   20 1   
     9    3   32 1   
    10    5   21 1   
    11    6   22 1   
    12    6   23 1   
    13    6   24 1   
    14    7   25 1   
    15    7   33 1   
    16    8    9 1   
    17    8   10 1   
    18    8   11 1   
    19   11   12 ar  
    20   11   16 ar  
    21   12   13 ar  
    22   12   26 1   
    23   13   14 ar  
    24   13   18 1   
    25   14   15 ar  
    26   14   17 1   
    27   15   16 ar  
    28   15   27 1   
    29   16   28 1   
    30   18   29 1   
    31   18   30 1   
    32   18   31 1   
@<TRIPOS>SUBSTRUCTURE
     1 407         1 TEMP              0 ****  ****    0 ROOT
