@<TRIPOS>MOLECULE
407
   33    32     1     0     0
SMALL
bcc


@<TRIPOS>ATOM
      1 C1       -876.4600   13.8000  -57.6600 c         1 407      0.500100
      2 C2       -877.0080   13.1530  -56.3350 c3        1 407      0.237500
      3 N3       -877.5240   14.2040  -58.7490 ny        1 407     -0.482300
      4 O4       -875.3310   14.0500  -58.0170 o         1 407     -0.398100
      5 O5       -878.5450   13.3250  -58.6980 oh        1 407     -0.359300
      6 C6       -877.0520   11.6500  -56.6310 c3        1 407     -0.119100
      7 N7       -876.2310   13.5080  -55.2240 n8        1 407     -0.957800
      8 S8        833.9620  -11.6270   56.1090 s4        1 407      1.663300
      9 O9        833.9690  -10.9920   57.3010 o         1 407     -0.392400
     10 O10       835.0900  -12.0400   55.4920 o         1 407     -0.392400
     11 C18       832.6130  -11.8900   55.4270 ca        1 407     -0.666500
     12 C19       832.5340  -12.5570   54.1670 ca        1 407      0.048000
     13 C20       831.3350  -12.8070   53.5310 ca        1 407     -0.123300
     14 C21       830.1270  -12.3810   54.1610 ca        1 407      0.314900
     15 C22       830.1710  -11.7160   55.4140 ca        1 407     -0.195000
     16 C23       831.3810  -11.4820   56.0210 ca        1 407      0.062000
     17 F24       828.9490  -12.6060   53.5750 f         1 407     -0.058900
     18 C25       831.2770  -13.5010   52.2240 c3        1 407     -0.076800
     19 H1       -878.0610   13.5470  -56.2030 h1        1 407      0.100700
     20 H2       -877.0740   14.2080  -59.6830 hn        1 407      0.452300
     21 H3       -879.1800   13.5210  -59.4250 ho        1 407      0.469000
     22 H4       -877.7110   11.4610  -57.5130 hc        1 407      0.080700
     23 H5       -876.0340   11.2390  -56.8320 hc        1 407      0.080700
     24 H6       -877.4820   11.1190  -55.7440 hc        1 407      0.080700
     25 H7       -875.3470   13.0670  -55.1170 hn        1 407      0.431300
     26 H8        833.4760  -12.8850   53.6830 ha        1 407      0.184000
     27 H9        829.2250  -11.3930   55.8860 ha        1 407      0.203000
     28 H10       831.4070  -10.9610   57.0010 ha        1 407      0.185000
     29 H11       830.6770  -14.4430   52.3150 hc        1 407      0.082033
     30 H12       832.2980  -13.7630   51.8520 hc        1 407      0.082033
     31 H13       830.7780  -12.8470   51.4630 hc        1 407      0.082033
     32 H32      -877.8580   15.1600  -58.5390 hn        1 407      0.452300
     33 H72      -876.3000   14.4370  -54.8860 hn        1 407      0.431300
@<TRIPOS>BOND
     1    1    2 1   
     2    1    3 1   
     3    1    4 2   
     4    2    6 1   
     5    2    7 1   
     6    2   19 1   
     7    3    5 1   
     8    3   20 1   
     9    3   32 1   
    10    5   21 1   
    11    6   22 1   
    12    6   23 1   
    13    6   24 1   
    14    7   25 1   
    15    7   33 1   
    16    8    9 1   
    17    8   10 1   
    18    8   11 1   
    19   11   12 ar  
    20   11   16 ar  
    21   12   13 ar  
    22   12   26 1   
    23   13   14 ar  
    24   13   18 1   
    25   14   15 ar  
    26   14   17 1   
    27   15   16 ar  
    28   15   27 1   
    29   16   28 1   
    30   18   29 1   
    31   18   30 1   
    32   18   31 1   
@<TRIPOS>SUBSTRUCTURE
     1 407         1 TEMP              0 ****  ****    0 ROOT
