@<TRIPOS>MOLECULE
408
   38    39     1     0     0
SMALL
bcc


@<TRIPOS>ATOM
      1 F           1.8980    0.0890    1.4920 f         1 408     -0.228300
      2 O           1.9070    4.2250   -3.3570 os        1 408     -0.374900
      3 N          -0.3870    5.7490   -6.3440 n4        1 408     -0.837600
      4 C11         3.6080    1.7410   -1.2910 ca        1 408     -0.056500
      5 C12         2.7120    1.6110   -0.2270 ca        1 408     -0.170300
      6 C13         1.5500    2.3830   -0.1730 ca        1 408     -0.056500
      7 C14         1.2730    3.2950   -1.1900 ca        1 408     -0.153500
      8 C15         3.0140    0.6260    0.8990 c3        1 408      0.689200
      9 F2          3.7230    1.1740    1.9400 f         1 408     -0.228300
     10 F1          3.7560   -0.4630    0.5140 f         1 408     -0.228300
     11 C10         3.3470    2.6540   -2.3100 ca        1 408     -0.153500
     12 C9          2.1760    3.4230   -2.2530 ca        1 408      0.118100
     13 C2          1.6050    5.6030   -3.0670 c3        1 408      0.213400
     14 C1          1.1560    6.1850   -4.4160 c3        1 408     -0.113400
     15 C          -0.0440    5.4050   -4.9320 c3        1 408      0.096800
     16 C3          2.7890    6.3630   -2.5580 ca        1 408     -0.155300
     17 C8          4.0540    6.1720   -3.1230 ca        1 408     -0.108500
     18 C7          5.1480    6.8930   -2.6480 ca        1 408     -0.122500
     19 C6          4.9820    7.8090   -1.6080 ca        1 408     -0.098000
     20 C5          3.7220    7.9990   -1.0400 ca        1 408     -0.122500
     21 C4          2.6260    7.2770   -1.5120 ca        1 408     -0.108500
     22 H1          0.4070    5.5390   -6.9570 hn        1 408      0.461133
     23 H2         -0.6040    6.7480   -6.4240 hn        1 408      0.461133
     24 H4          4.5200    1.1210   -1.3210 ha        1 408      0.165500
     25 H5          0.8500    2.2650    0.6720 ha        1 408      0.165500
     26 H6          0.3570    3.8990   -1.1480 ha        1 408      0.147500
     27 H7          4.0430    2.7720   -3.1540 ha        1 408      0.147500
     28 H8          0.7580    5.6470   -2.3260 h1        1 408      0.061700
     29 H9          2.0190    6.1150   -5.1300 hc        1 408      0.083700
     30 H10         0.9020    7.2660   -4.2650 hc        1 408      0.083700
     31 H11         0.1800    4.2960   -4.8910 hx        1 408      0.123200
     32 H12        -0.9520    5.6160   -4.2970 hx        1 408      0.123200
     33 H13         4.1830    5.4340   -3.9290 ha        1 408      0.134000
     34 H14         6.1440    6.7360   -3.0900 ha        1 408      0.149000
     35 H15         5.8470    8.3770   -1.2310 ha        1 408      0.151000
     36 H16         3.5920    8.7150   -0.2140 ha        1 408      0.149000
     37 H17         1.6370    7.4240   -1.0510 ha        1 408      0.134000
     38 HN3        -1.1990    5.2040   -6.6510 hn        1 408      0.461133
@<TRIPOS>BOND
     1    1    8 1   
     2    2   12 1   
     3    2   13 1   
     4    3   15 1   
     5    3   22 1   
     6    3   23 1   
     7    3   38 1   
     8    4    5 ar  
     9    4   11 ar  
    10    4   24 1   
    11    5    6 ar  
    12    5    8 1   
    13    6    7 ar  
    14    6   25 1   
    15    7   12 ar  
    16    7   26 1   
    17    8    9 1   
    18    8   10 1   
    19   11   12 ar  
    20   11   27 1   
    21   13   14 1   
    22   13   16 1   
    23   13   28 1   
    24   14   15 1   
    25   14   29 1   
    26   14   30 1   
    27   15   31 1   
    28   15   32 1   
    29   16   17 ar  
    30   16   21 ar  
    31   17   18 ar  
    32   17   33 1   
    33   18   19 ar  
    34   18   34 1   
    35   19   20 ar  
    36   19   35 1   
    37   20   21 ar  
    38   20   36 1   
    39   21   37 1   
@<TRIPOS>SUBSTRUCTURE
     1 408         1 TEMP              0 ****  ****    0 ROOT
