@<TRIPOS>MOLECULE
408
   38    39     1     0     0
SMALL
bcc


@<TRIPOS>ATOM
      1 F           1.8770    0.1100    1.5150 f         1 408     -0.228300
      2 O           1.9030    4.2230   -3.3540 os        1 408     -0.374900
      3 N          -0.3860    5.7450   -6.3460 nz        1 408     -0.837600
      4 C11         3.5930    1.7390   -1.2780 ca        1 408     -0.056500
      5 C12         2.6970    1.6190   -0.2130 ca        1 408     -0.170300
      6 C13         1.5390    2.3980   -0.1610 ca        1 408     -0.056500
      7 C14         1.2660    3.3060   -1.1820 ca        1 408     -0.153500
      8 C15         2.9950    0.6380    0.9180 c3        1 408      0.689200
      9 F2          3.7090    1.1860    1.9550 f         1 408     -0.228300
     10 F1          3.7310   -0.4570    0.5370 f         1 408     -0.228300
     11 C10         3.3360    2.6480   -2.3020 ca        1 408     -0.153500
     12 C9          2.1690    3.4240   -2.2470 ca        1 408      0.118100
     13 C2          1.6090    5.6040   -3.0700 c3        1 408      0.213400
     14 C1          1.1620    6.1820   -4.4210 c3        1 408     -0.113400
     15 C          -0.0430    5.4060   -4.9330 c3        1 408      0.096800
     16 C3          2.7970    6.3590   -2.5670 ca        1 408     -0.155300
     17 C8          4.0620    6.1590   -3.1320 ca        1 408     -0.108500
     18 C7          5.1600    6.8770   -2.6610 ca        1 408     -0.122500
     19 C6          5.0000    7.7980   -1.6250 ca        1 408     -0.098000
     20 C5          3.7410    7.9980   -1.0580 ca        1 408     -0.122500
     21 C4          2.6410    7.2800   -1.5240 ca        1 408     -0.108500
     22 H1         -0.5970    6.7450   -6.4300 hn        1 408      0.461133
     23 H2          0.4070    5.5270   -6.9590 hn        1 408      0.461133
     24 H4          4.5010    1.1150   -1.3070 ha        1 408      0.165500
     25 H5          0.8400    2.2880    0.6850 ha        1 408      0.165500
     26 H6          0.3530    3.9160   -1.1420 ha        1 408      0.147500
     27 H7          4.0310    2.7590   -3.1470 ha        1 408      0.147500
     28 H8          0.7630    5.6550   -2.3280 h1        1 408      0.061700
     29 H9          0.9140    7.2650   -4.2750 hc        1 408      0.083700
     30 H10         2.0240    6.1040   -5.1360 hc        1 408      0.083700
     31 H11         0.1760    4.2960   -4.8870 hx        1 408      0.123200
     32 H12        -0.9490    5.6250   -4.2980 hx        1 408      0.123200
     33 H13         4.1860    5.4160   -3.9340 ha        1 408      0.134000
     34 H14         6.1540    6.7120   -3.1030 ha        1 408      0.149000
     35 H15         5.8680    8.3630   -1.2520 ha        1 408      0.151000
     36 H16         3.6160    8.7190   -0.2350 ha        1 408      0.149000
     37 H17         1.6540    7.4340   -1.0630 ha        1 408      0.134000
     38 HN3        -1.2010    5.2040   -6.6490 hn        1 408      0.461133
@<TRIPOS>BOND
     1    1    8 1   
     2    2   12 1   
     3    2   13 1   
     4    3   15 1   
     5    3   22 1   
     6    3   23 1   
     7    3   38 1   
     8    4    5 ar  
     9    4   11 ar  
    10    4   24 1   
    11    5    6 ar  
    12    5    8 1   
    13    6    7 ar  
    14    6   25 1   
    15    7   12 ar  
    16    7   26 1   
    17    8    9 1   
    18    8   10 1   
    19   11   12 ar  
    20   11   27 1   
    21   13   14 1   
    22   13   16 1   
    23   13   28 1   
    24   14   15 1   
    25   14   29 1   
    26   14   30 1   
    27   15   31 1   
    28   15   32 1   
    29   16   17 ar  
    30   16   21 ar  
    31   17   18 ar  
    32   17   33 1   
    33   18   19 ar  
    34   18   34 1   
    35   19   20 ar  
    36   19   35 1   
    37   20   21 ar  
    38   20   36 1   
    39   21   37 1   
@<TRIPOS>SUBSTRUCTURE
     1 408         1 TEMP              0 ****  ****    0 ROOT
