@<TRIPOS>MOLECULE
409
   47    40     1     0     0
SMALL
bcc


@<TRIPOS>ATOM
      1 O8          2.7120   -4.0250    0.8460 o         1 409     -0.347000
      2 C4          3.3270   -3.1110    0.2770 c1        1 409      0.336000
      3 C3          4.8270   -3.2560   -0.0030 c3        1 409     -0.087000
      4 C2          5.0290   -3.7760   -1.3890 c3        1 409      0.007000
      5 C1          6.3020   -3.1900   -1.9700 c3        1 409     -0.217000
      6 O6          5.1350   -5.1910   -1.3490 oh        1 409     -0.334000
      7 N7          5.3940   -4.1590    0.9240 n3        1 409     -0.331000
      8 N5          2.6550   -1.8240    0.0210 n2        1 409     -0.841000
      9 S9          0.9840   -1.7540   -0.0550 s4        1 409      2.074800
     10 O10         0.4620   -2.6950   -1.0370 o         1 409     -0.524400
     11 O11         0.3800   -2.2500    1.1590 o         1 409     -0.524400
     12 C12         0.4520   -0.0900   -0.4020 c1        1 409     -0.841000
     13 C13         1.2760    0.7630   -1.1020 c2        1 409     -0.012000
     14 C14         0.8790    2.0670   -1.3440 c1        1 409     -0.157000
     15 C15        -0.3420    2.5150   -0.8850 c1        1 409     -0.078000
     16 C16        -1.1700    1.6650   -0.1850 c1        1 409     -0.041000
     17 C17        -0.7740    0.3570    0.0600 c1        1 409     -0.004000
     18 C18        -2.5840    2.1280    0.2080 c1        1 409     -0.041000
     19 C19        -3.6440    1.7760   -0.6220 c1        1 409     -0.111000
     20 C20        -4.9440    2.1520   -0.2890 c1        1 409     -0.111000
     21 C21        -5.1880    2.8960    0.9020 c1        1 409     -0.166000
     22 C22        -4.1420    3.2420    1.7190 c1        1 409      0.049000
     23 C23        -2.8210    2.8590    1.3780 c1        1 409     -0.078000
     24 C27        -6.4730    3.3440    1.1940 c1        1 409      0.186000
     25 N28        -7.8000    3.0390    0.7080 n2        1 409     -0.348000
     26 N26        -6.6910    4.1290    2.2950 n2        1 409     -0.263000
     27 C25        -5.6360    4.4760    3.1160 c1        1 409      0.017000
     28 N24        -4.3660    4.0350    2.8290 n1        1 409     -0.202000
     29 H1          5.2640   -2.3780    0.0840 h1        1 409      0.121000
     30 H2          4.2410   -3.5120   -1.9670 h1        1 409      0.101000
     31 H3          6.3610   -2.2040   -1.7320 hc        1 409      0.087333
     32 H4          6.2920   -3.2890   -2.9290 hc        1 409      0.087333
     33 H5          7.0770   -3.6610   -1.6010 hc        1 409      0.087333
     34 H6          4.7850   -5.5300   -2.0720 ho        1 409      0.228000
     35 H7          5.1520   -3.9340    1.7370 hn        1 409      0.161500
     36 H8          6.2940   -4.1310    0.8590 hn        1 409      0.161500
     37 H10         3.1670   -1.0450   -0.1260 hn        1 409      0.261000
     38 H11         2.1390    0.4500   -1.4260 ha        1 409      0.160000
     39 H12         1.4570    2.6630   -1.8340 ha        1 409      0.147000
     40 H13        -0.6150    3.4200   -1.0550 ha        1 409      0.151500
     41 H14        -1.3540   -0.2430    0.5530 ha        1 409      0.160000
     42 H15        -3.4690    1.3040   -1.4770 ha        1 409      0.139000
     43 H16        -5.7290    1.8920   -0.9040 ha        1 409      0.139000
     44 H17        -2.0670    3.1700    1.9220 ha        1 409      0.151500
     45 H18        -8.2450    3.6460    0.1460 hn        1 409      0.228000
     46 H19        -8.1890    2.2090    0.9000 hn        1 409      0.228000
     47 H20        -5.7970    5.0480    3.9160 ha        1 409      0.190000
@<TRIPOS>BOND
     1    1    2 1   
     2    2    3 1   
     3    3    4 1   
     4    3    7 1   
     5    3   29 1   
     6    4    5 1   
     7    4    6 1   
     8    4   30 1   
     9    5   31 1   
    10    5   32 1   
    11    5   33 1   
    12    6   34 1   
    13    7   35 1   
    14    7   36 1   
    15    8    9 1   
    16    8   37 1   
    17    9   10 1   
    18    9   11 1   
    19   12   13 1   
    20   12   17 1   
    21   13   14 1   
    22   13   38 1   
    23   14   39 1   
    24   15   16 1   
    25   15   40 1   
    26   16   18 1   
    27   17   41 1   
    28   18   23 1   
    29   19   20 1   
    30   19   42 1   
    31   20   43 1   
    32   21   22 1   
    33   21   24 1   
    34   22   28 1   
    35   23   44 1   
    36   24   26 1   
    37   25   45 1   
    38   25   46 1   
    39   26   27 1   
    40   27   47 1   
@<TRIPOS>SUBSTRUCTURE
     1 409         1 TEMP              0 ****  ****    0 ROOT
