@<TRIPOS>MOLECULE
409
   49    51     1     0     0
SMALL
bcc


@<TRIPOS>ATOM
      1 O8          1.2800    0.2600   -0.4840 os        1 409     -0.548300
      2 C4          1.6330   -0.8310    0.1280 c2        1 409      0.619600
      3 C3          2.9010   -0.6740    0.9970 c3        1 409      0.039200
      4 C2          3.4330   -2.0110    1.5810 c3        1 409      0.124100
      5 C1          4.7430   -1.8190    2.3150 c3        1 409     -0.168100
      6 O6          2.3980   -2.4850    2.4300 oh        1 409     -0.650800
      7 N7          2.6430    0.3290    2.0760 n4        1 409     -0.832600
      8 N5          0.9580   -1.9650    0.0110 nh        1 409     -0.408100
      9 S9          0.5750    0.6270   -2.2240 sy        1 409      1.731800
     10 O10         1.8340    0.6160   -2.7400 o         1 409     -0.601800
     11 O11        -0.1720   -0.5170   -2.1490 o         1 409     -0.601800
     12 C12        -0.1580    1.9970   -2.0830 ca        1 409     -0.583500
     13 C13         0.5330    3.2200   -2.2940 ca        1 409      0.012000
     14 C14        -0.1310    4.4330   -2.2570 ca        1 409     -0.145000
     15 C15        -1.5090    4.4760   -2.0190 ca        1 409      0.030000
     16 C16        -2.2310    3.2850   -1.8070 cp        1 409     -0.024000
     17 C17        -1.5520    2.0700   -1.8320 ca        1 409      0.020000
     18 C18        -3.6780    3.3310   -1.5970 cp        1 409     -0.069000
     19 C19        -4.2820    2.4900   -0.6270 ca        1 409     -0.167000
     20 C20        -5.6420    2.5270   -0.4250 ca        1 409     -0.055000
     21 C21        -6.4650    3.3940   -1.1760 ca        1 409     -0.304600
     22 C22        -5.8720    4.2480   -2.1590 ca        1 409      0.457600
     23 C23        -4.4520    4.1910   -2.3470 ca        1 409     -0.146300
     24 C27        -7.9230    3.4930   -1.0270 ca        1 409      0.732200
     25 N28        -8.5880    2.7140   -0.1210 nh        1 409     -0.955500
     26 N26        -8.6390    4.3610   -1.7970 nb        1 409     -0.770000
     27 C25        -7.9370    5.1130   -2.6950 ca        1 409      0.711900
     28 N24        -6.6170    5.1160   -2.9250 nb        1 409     -0.736000
     29 H1          3.7010   -0.2530    0.3030 hx        1 409      0.168700
     30 H2          3.5790   -2.7250    0.7170 h1        1 409      0.104700
     31 H3          5.4660   -1.2310    1.6990 hc        1 409      0.087033
     32 H4          4.5920   -1.3170    3.3020 hc        1 409      0.087033
     33 H5          5.2070   -2.8200    2.5160 hc        1 409      0.087033
     34 H6          2.7530   -3.2040    2.9770 ho        1 409      0.480000
     35 H7          2.0530   -0.0970    2.8070 hn        1 409      0.485133
     36 H8          3.5400    0.6060    2.4990 hn        1 409      0.485133
     37 H10         0.1820   -2.0430   -0.6340 hn        1 409      0.357700
     38 H11         1.6170    3.1930   -2.5130 ha        1 409      0.167000
     39 H12         0.4230    5.3720   -2.4310 ha        1 409      0.185000
     40 H13        -2.0390    5.4470   -2.0010 ha        1 409      0.189000
     41 H14        -2.1210    1.1320   -1.6790 ha        1 409      0.171000
     42 H15        -3.6520    1.8170   -0.0290 ha        1 409      0.117000
     43 H16        -6.0770    1.8640    0.3390 ha        1 409      0.135000
     44 H17        -4.0020    4.8430   -3.1150 ha        1 409      0.159000
     45 H18        -8.0900    2.1060    0.4750 hn        1 409      0.452800
     46 H19        -9.5730    2.7930   -0.0170 hn        1 409      0.452800
     47 H20        -8.5550    5.8100   -3.3070 h5        1 409      0.074100
     48 H73         2.1730    1.1580    1.6870 hn        1 409      0.485133
     49 H52         1.2010   -2.7770    0.5510 hn        1 409      0.357700
@<TRIPOS>BOND
     1    1    2 1   
     2    1    9 1   
     3    2    3 1   
     4    2    8 2   
     5    3    4 1   
     6    3    7 1   
     7    3   29 1   
     8    4    5 1   
     9    4    6 1   
    10    4   30 1   
    11    5   31 1   
    12    5   32 1   
    13    5   33 1   
    14    6   34 1   
    15    7   35 1   
    16    7   36 1   
    17    7   48 1   
    18    8   37 1   
    19    8   49 1   
    20    9   10 2   
    21    9   11 2   
    22    9   12 1   
    23   12   13 ar  
    24   12   17 ar  
    25   13   14 ar  
    26   13   38 1   
    27   14   15 ar  
    28   14   39 1   
    29   15   16 ar  
    30   15   40 1   
    31   16   17 ar  
    32   16   18 1   
    33   17   41 1   
    34   18   19 ar  
    35   18   23 ar  
    36   19   20 ar  
    37   19   42 1   
    38   20   21 ar  
    39   20   43 1   
    40   21   22 ar  
    41   21   24 ar  
    42   22   23 ar  
    43   22   28 ar  
    44   23   44 1   
    45   24   25 1   
    46   24   26 ar  
    47   25   45 1   
    48   25   46 1   
    49   26   27 ar  
    50   27   28 ar  
    51   27   47 1   
@<TRIPOS>SUBSTRUCTURE
     1 409         1 TEMP              0 ****  ****    0 ROOT
