@<TRIPOS>MOLECULE
409
   50    51     1     0     0
SMALL
bcc


@<TRIPOS>ATOM
      1 O8        514.2150 -390.9140  203.0090 o         1 409     -0.596100
      2 C4        513.1490 -391.5040  203.2840 c         1 409      0.649100
      3 C3        511.8610 -390.6310  203.2600 c3        1 409      0.035500
      4 C2        510.5290 -391.3980  203.3960 c3        1 409      0.121100
      5 C1        509.3360 -390.4620  203.4230 c3        1 409     -0.161100
      6 O6        510.4790 -392.2820  202.2860 oh        1 409     -0.627800
      7 N7        511.8970 -389.8160  202.0010 n4        1 409     -0.831600
      8 N5        513.0800 -392.8100  203.6270 n         1 409     -0.608000
      9 S9       -315.1850  245.1710 -120.9830 s4        1 409      1.659300
     10 O10      -315.4810  246.3020 -120.3160 o         1 409     -0.373400
     11 O11      -314.3760  244.1990 -120.5150 o         1 409     -0.373400
     12 C12      -315.8140  244.9620 -122.3880 ca        1 409     -0.622500
     13 C13      -316.6720  245.9400 -122.9640 ca        1 409      0.057000
     14 C14      -317.2330  245.7530 -124.2180 ca        1 409     -0.142000
     15 C15      -316.9650  244.5900 -124.9430 ca        1 409      0.048000
     16 C16      -316.1190  243.5970 -124.4070 cp        1 409     -0.072000
     17 C17      -315.5560  243.7900 -123.1510 ca        1 409      0.044000
     18 C18      -315.8320  242.3810 -125.1770 cp        1 409     -0.030000
     19 C19      -316.8990  241.7020 -125.8320 ca        1 409     -0.071000
     20 C20      -316.6640  240.5680 -126.5700 ca        1 409     -0.122000
     21 C21      -315.3530  240.0520 -126.6970 ca        1 409     -0.241600
     22 C22      -314.2640  240.7210 -126.0390 ca        1 409      0.435600
     23 C23      -314.5440  241.9020 -125.2770 ca        1 409     -0.126300
     24 C27      -314.9750  238.8780 -127.4460 ca        1 409      0.518200
     25 N28      -316.0170  238.1110 -128.1680 n4        1 409     -0.832300
     26 N26      -313.7210  238.4290 -127.5330 nb        1 409     -0.641000
     27 C25      -312.7610  239.1590 -126.8520 ca        1 409      0.681900
     28 N24      -312.9680  240.2570 -126.1270 nb        1 409     -0.608000
     29 H1        511.9490 -389.9190  204.1380 hx        1 409      0.139700
     30 H2        510.5670 -391.9850  204.3600 h1        1 409      0.093700
     31 H3        508.4260 -391.0260  203.7510 hc        1 409      0.071367
     32 H4        509.5020 -389.6290  204.1470 hc        1 409      0.071367
     33 H5        509.1240 -390.0420  202.4110 hc        1 409      0.071367
     34 H6        509.6190 -392.7260  202.2980 ho        1 409      0.454000
     35 H7        511.6110 -390.4090  201.2120 hn        1 409      0.475133
     36 H8        511.2550 -389.0240  202.0790 hn        1 409      0.475133
     37 H10       513.9250 -393.3380  203.6690 hn        1 409      0.346500
     38 H11      -316.8940  246.8690 -122.3990 ha        1 409      0.193000
     39 H12      -317.8940  246.5300 -124.6470 ha        1 409      0.200000
     40 H13      -317.4130  244.4510 -125.9450 ha        1 409      0.181000
     41 H14      -314.8910  243.0120 -122.7250 ha        1 409      0.180000
     42 H15      -317.9260  242.0940 -125.7330 ha        1 409      0.167000
     43 H16      -317.5140  240.0680 -127.0600 ha        1 409      0.142000
     44 H17      -313.7000  242.4200 -124.7860 ha        1 409      0.181000
     45 H18      -316.4670  238.7270 -128.8560 hn        1 409      0.483467
     46 H19      -316.7140  237.7770 -127.4910 hn        1 409      0.483467
     47 H20      -311.7180  238.7650 -126.9390 h5        1 409      0.117100
     48 H73       512.8630 -389.4820  201.8480 hn        1 409      0.475133
     49 H52       512.2150 -393.2920  203.6730 hn        1 409      0.346500
     50 H283     -315.6060  237.2990 -128.6590 hn        1 409      0.483467
@<TRIPOS>BOND
     1    1    2 2   
     2    2    3 1   
     3    2    8 1   
     4    3    4 1   
     5    3    7 1   
     6    3   29 1   
     7    4    5 1   
     8    4    6 1   
     9    4   30 1   
    10    5   31 1   
    11    5   32 1   
    12    5   33 1   
    13    6   34 1   
    14    7   35 1   
    15    7   36 1   
    16    7   48 1   
    17    8   37 1   
    18    8   49 1   
    19    9   10 1   
    20    9   11 1   
    21    9   12 1   
    22   12   13 ar  
    23   12   17 ar  
    24   13   14 ar  
    25   13   38 1   
    26   14   15 ar  
    27   14   39 1   
    28   15   16 ar  
    29   15   40 1   
    30   16   17 ar  
    31   16   18 1   
    32   17   41 1   
    33   18   19 ar  
    34   18   23 ar  
    35   19   20 ar  
    36   19   42 1   
    37   20   21 ar  
    38   20   43 1   
    39   21   22 ar  
    40   21   24 ar  
    41   22   23 ar  
    42   22   28 ar  
    43   23   44 1   
    44   24   25 1   
    45   24   26 ar  
    46   25   45 1   
    47   25   46 1   
    48   25   50 1   
    49   26   27 ar  
    50   27   28 ar  
    51   27   47 1   
@<TRIPOS>SUBSTRUCTURE
     1 409         1 TEMP              0 ****  ****    0 ROOT
