@<TRIPOS>MOLECULE
409
   47    49     1     0     0
SMALL
bcc


@<TRIPOS>ATOM
      1 O8          1.8290   -1.1940   -0.2500 o         1 409     -0.596100
      2 C4          2.9560   -0.8820    0.1740 c         1 409      0.659100
      3 C3          3.8310   -1.8930    0.9540 c3        1 409      0.073500
      4 C2          5.0990   -2.2290    0.1190 c3        1 409      0.153100
      5 C1          6.1730   -2.8190    1.0130 c3        1 409     -0.132100
      6 O6          4.7950   -3.0740   -0.9730 oh        1 409     -0.585800
      7 N7          3.1120   -3.0760    1.3640 n3        1 409     -0.886800
      8 N5          3.4420    0.4080   -0.0050 n         1 409     -0.664300
      9 S9          2.7750    1.6830   -0.8380 sy        1 409      1.512900
     10 O10         3.6890    2.7470   -0.6740 o         1 409     -0.638300
     11 O11         2.4670    1.3150   -2.1520 o         1 409     -0.638300
     12 C12         1.3750    2.0110    0.0180 ca        1 409     -0.402500
     13 C13         1.3290    3.0570    0.9510 ca        1 409     -0.011000
     14 C14         0.1550    3.3390    1.6410 ca        1 409     -0.162000
     15 C15        -0.9920    2.5780    1.4130 ca        1 409     -0.046000
     16 C16        -0.9710    1.5300    0.4820 cp        1 409     -0.070000
     17 C17         0.2140    1.2640   -0.2140 ca        1 409      0.015000
     18 C18        -2.1610    0.7140    0.2440 cp        1 409     -0.012000
     19 C19        -2.0110   -0.6780    0.0030 ca        1 409     -0.136000
     20 C20        -3.1110   -1.4690   -0.2280 ca        1 409     -0.088000
     21 C21        -4.4130   -0.9190   -0.2300 ca        1 409     -0.293600
     22 C22        -4.5810    0.4770    0.0230 ca        1 409      0.440600
     23 C23        -3.4210    1.2790    0.2530 ca        1 409     -0.172300
     24 C27        -5.6330   -1.6920   -0.4720 ca        1 409      0.701200
     25 N28        -5.5610   -3.0610   -0.6640 nh        1 409     -0.945500
     26 N26        -6.8510   -1.0920   -0.4530 nb        1 409     -0.787000
     27 C25        -6.8660    0.2540   -0.1800 ca        1 409      0.676900
     28 N24        -5.8350    1.0650    0.0510 nb        1 409     -0.725000
     29 H1          4.1800   -1.3740    1.8990 h1        1 409      0.080700
     30 H2          5.4810   -1.2860   -0.3690 h1        1 409      0.074700
     31 H3          5.8040   -3.7400    1.5250 hc        1 409      0.053700
     32 H4          7.0650   -3.0880    0.3950 hc        1 409      0.053700
     33 H5          6.4810   -2.0790    1.7880 hc        1 409      0.053700
     34 H6          4.7390   -3.9800   -0.6430 ho        1 409      0.409000
     35 H7          2.3170   -2.8240    1.9200 hn        1 409      0.365800
     36 H8          2.7920   -3.5840    0.5600 hn        1 409      0.365800
     37 H10         4.3360    0.5630    0.4110 hn        1 409      0.332500
     38 H11         2.2350    3.6650    1.1250 ha        1 409      0.158000
     39 H12         0.1290    4.1650    2.3680 ha        1 409      0.145000
     40 H13        -1.9170    2.7980    1.9700 ha        1 409      0.146000
     41 H14         0.2440    0.4450   -0.9600 ha        1 409      0.175000
     42 H15        -1.0000   -1.1170    0.0050 ha        1 409      0.154000
     43 H16        -2.9570   -2.5450   -0.4020 ha        1 409      0.130000
     44 H17        -3.5520    2.3590    0.4270 ha        1 409      0.155000
     45 H18        -4.7020   -3.4250   -0.9980 hn        1 409      0.427800
     46 H19        -6.3850   -3.5400   -0.9440 hn        1 409      0.427800
     47 H20        -7.8790    0.7090   -0.1620 h5        1 409      0.052100
@<TRIPOS>BOND
     1    1    2 2   
     2    2    3 1   
     3    2    8 1   
     4    3    4 1   
     5    3    7 1   
     6    3   29 1   
     7    4    5 1   
     8    4    6 1   
     9    4   30 1   
    10    5   31 1   
    11    5   32 1   
    12    5   33 1   
    13    6   34 1   
    14    7   35 1   
    15    7   36 1   
    16    8    9 1   
    17    8   37 1   
    18    9   10 2   
    19    9   11 2   
    20    9   12 1   
    21   12   13 ar  
    22   12   17 ar  
    23   13   14 ar  
    24   13   38 1   
    25   14   15 ar  
    26   14   39 1   
    27   15   16 ar  
    28   15   40 1   
    29   16   17 ar  
    30   16   18 1   
    31   17   41 1   
    32   18   19 ar  
    33   18   23 ar  
    34   19   20 ar  
    35   19   42 1   
    36   20   21 ar  
    37   20   43 1   
    38   21   22 ar  
    39   21   24 ar  
    40   22   23 ar  
    41   22   28 ar  
    42   23   44 1   
    43   24   25 1   
    44   24   26 ar  
    45   25   45 1   
    46   25   46 1   
    47   26   27 ar  
    48   27   28 ar  
    49   27   47 1   
@<TRIPOS>SUBSTRUCTURE
     1 409         1 TEMP              0 ****  ****    0 ROOT
