@<TRIPOS>MOLECULE
409
   49    50     1     0     0
SMALL
bcc


@<TRIPOS>ATOM
      1 O8         97.6680 -115.6050  116.0640 o         1 409     -0.596100
      2 C4         98.2920 -116.0970  115.0990 c         1 409      0.649100
      3 C3         99.7580 -116.5320  115.3860 c3        1 409      0.035500
      4 C2        100.4540 -117.3230  114.2600 c3        1 409      0.121100
      5 C1        101.8950 -117.6500  114.6030 c3        1 409     -0.161100
      6 O6         99.6770 -118.4990  114.0780 oh        1 409     -0.627800
      7 N7         99.7520 -117.3020  116.6730 nz        1 409     -0.831600
      8 N5         97.7740 -116.2240  113.8560 nt        1 409     -0.608000
      9 S9        -67.8110   78.8940  -77.3160 s4        1 409      1.661300
     10 O10       -68.8750   79.6080  -77.7430 o         1 409     -0.393400
     11 O11       -66.8420   78.4630  -78.1520 o         1 409     -0.393400
     12 C12       -67.6950   78.5690  -75.8190 ca        1 409     -0.643500
     13 C13       -68.6740   79.0120  -74.8820 ca        1 409      0.034000
     14 C14       -68.5670   78.7100  -73.5390 ca        1 409     -0.149000
     15 C15       -67.4870   77.9530  -73.0670 ca        1 409      0.052000
     16 C16       -66.4960   77.4950  -73.9580 cp        1 409     -0.030000
     17 C17       -66.6060   77.8040  -75.3080 ca        1 409      0.035000
     18 C18       -65.3750   76.6940  -73.4650 cp        1 409     -0.067000
     19 C19       -64.0660   76.9480  -73.9470 ca        1 409     -0.158000
     20 C20       -63.0020   76.2040  -73.4890 ca        1 409     -0.058000
     21 C21       -63.1900   75.1750  -72.5420 ca        1 409     -0.300600
     22 C22       -64.5060   74.9060  -72.0490 ca        1 409      0.454600
     23 C23       -65.5940   75.6980  -72.5370 ca        1 409     -0.151300
     24 C27       -62.1110   74.3340  -72.0070 ca        1 409      0.731200
     25 N28       -60.8200   74.5030  -72.4270 nv        1 409     -0.955500
     26 N26       -62.3830   73.3600  -71.0920 nb        1 409     -0.776000
     27 C25       -63.6890   73.2160  -70.7150 ca        1 409      0.706900
     28 N24       -64.7550   73.9140  -71.1250 nb        1 409     -0.737000
     29 H1        100.3410 -115.5740  115.5570 hx        1 409      0.139700
     30 H2        100.4270 -116.6890  113.3260 h1        1 409      0.093700
     31 H3        101.9580 -118.4600  115.3700 hc        1 409      0.071367
     32 H4        102.4250 -118.0120  113.6860 hc        1 409      0.071367
     33 H5        102.4300 -116.7430  114.9730 hc        1 409      0.071367
     34 H6        100.1300 -119.0570  113.4290 ho        1 409      0.454000
     35 H7         99.1130 -116.8350  117.3380 hn        1 409      0.475133
     36 H8        100.6970 -117.3450  117.0600 hn        1 409      0.475133
     37 H10        98.2210 -116.7680  113.1590 hn        1 409      0.346500
     38 H11       -69.5330   79.6090  -75.2470 ha        1 409      0.179000
     39 H12       -69.3370   79.0650  -72.8300 ha        1 409      0.188000
     40 H13       -67.4060   77.7140  -71.9890 ha        1 409      0.189000
     41 H14       -65.8290   77.4420  -76.0110 ha        1 409      0.182000
     42 H15       -63.9030   77.7550  -74.6760 ha        1 409      0.132000
     43 H16       -61.9980   76.4320  -73.8820 ha        1 409      0.139000
     44 H17       -66.6080   75.4820  -72.1610 ha        1 409      0.156000
     45 H18       -60.5900   75.2420  -73.0400 hn        1 409      0.451800
     46 H19       -60.0910   73.9460  -72.0480 hn        1 409      0.451800
     47 H20       -63.8720   72.4110  -69.9680 h5        1 409      0.069100
     48 H73        99.4150 -118.2560  116.4900 hn        1 409      0.475133
     49 H52        96.8440 -115.9050  113.6910 hn        1 409      0.346500
@<TRIPOS>BOND
     1    1    2 2   
     2    2    3 1   
     3    2    8 1   
     4    3    4 1   
     5    3    7 1   
     6    3   29 1   
     7    4    5 1   
     8    4    6 1   
     9    4   30 1   
    10    5   31 1   
    11    5   32 1   
    12    5   33 1   
    13    6   34 1   
    14    7   35 1   
    15    7   36 1   
    16    7   48 1   
    17    8   37 1   
    18    8   49 1   
    19    9   10 1   
    20    9   11 1   
    21    9   12 1   
    22   12   13 ar  
    23   12   17 ar  
    24   13   14 ar  
    25   13   38 1   
    26   14   15 ar  
    27   14   39 1   
    28   15   16 ar  
    29   15   40 1   
    30   16   17 ar  
    31   16   18 1   
    32   17   41 1   
    33   18   19 ar  
    34   18   23 ar  
    35   19   20 ar  
    36   19   42 1   
    37   20   21 ar  
    38   20   43 1   
    39   21   22 ar  
    40   21   24 ar  
    41   22   23 ar  
    42   22   28 ar  
    43   23   44 1   
    44   24   25 1   
    45   24   26 ar  
    46   25   45 1   
    47   25   46 1   
    48   26   27 ar  
    49   27   28 ar  
    50   27   47 1   
@<TRIPOS>SUBSTRUCTURE
     1 409         1 TEMP              0 ****  ****    0 ROOT
