@<TRIPOS>MOLECULE
40A
   38    39     1     0     0
SMALL
bcc


@<TRIPOS>ATOM
      1 C'         -3.2380   -1.9400    0.0900 c         1 40A      0.898600
      2 N1          4.9910    0.6700    0.8800 nb        1 40A     -0.797000
      3 C2          3.9360    0.9290    1.7040 ca        1 40A      0.662900
      4 N3          2.6520    0.5170    1.6330 nb        1 40A     -0.711000
      5 C4          2.4100   -0.2770    0.5460 ca        1 40A      0.455800
      6 C5          3.4440   -0.6560   -0.4180 ca        1 40A     -0.213200
      7 C6          4.7630   -0.1510   -0.1950 ca        1 40A      0.718200
      8 N6          5.8060   -0.5450   -1.0240 nh        1 40A     -0.936500
      9 N7          2.8920   -1.4770   -1.4120 nc        1 40A     -0.575100
     10 C8          1.5960   -1.6000   -1.0820 cd        1 40A      0.439700
     11 N9          1.2440   -0.9200    0.1100 na        1 40A     -0.226000
     12 N1'        -2.1230    3.4200    0.2410 n3        1 40A     -0.898800
     13 O1'        -2.2990   -2.7660   -0.1030 o         1 40A     -0.827300
     14 C2'        -3.3370    2.6490    0.0340 c3        1 40A      0.149500
     15 C2M        -4.3190    3.3630   -0.8940 c3        1 40A     -0.087100
     16 C3'        -3.1120    1.2260   -0.5520 c3        1 40A      0.046000
     17 N4'        -2.2640    0.3870    0.2690 n         1 40A     -0.432800
     18 C5'        -2.9220   -0.6940    0.9730 c3        1 40A     -0.057000
     19 C7'        -0.9080    0.3540   -0.0060 c         1 40A      0.637100
     20 O7'        -0.3780    1.2530   -0.6980 o         1 40A     -0.650100
     21 C8'        -0.0830   -0.7810    0.6250 c3        1 40A     -0.061700
     22 H2          4.1760    1.5890    2.5640 h5        1 40A      0.039100
     23 H8          0.8410   -2.1790   -1.6340 h5        1 40A      0.093800
     24 H22'       -3.8310    2.5390    1.0460 h1        1 40A      0.050700
     25 H13'       -4.1130    0.7200   -0.6700 h1        1 40A      0.067700
     26 H23'       -2.6520    1.3370   -1.5760 h1        1 40A      0.067700
     27 H15'       -3.8900   -0.2950    1.3840 h1        1 40A      0.039700
     28 H25'       -2.2800   -1.0110    1.8400 h1        1 40A      0.039700
     29 HN6         5.5320   -0.8980   -1.9110 hn        1 40A      0.418800
     30 HN6A        6.6350    0.0010   -1.0060 hn        1 40A      0.418800
     31 H18'       -0.6300   -1.7680    0.4410 h1        1 40A      0.129700
     32 H28'       -0.0180   -0.5860    1.7340 h1        1 40A      0.129700
     33 H2M        -4.5570    4.3820   -0.5040 hc        1 40A      0.032367
     34 H2MA       -3.8950    3.4650   -1.9210 hc        1 40A      0.032367
     35 H2MB       -5.2640    2.7720   -0.9550 hc        1 40A      0.032367
     36 OXT        -4.4070   -2.0450   -0.3590 o         1 40A     -0.827300
     37 HN1'       -1.5390    2.9490    0.9080 hn        1 40A      0.350800
     38 HNXT       -1.6070    3.4740   -0.6190 hn        1 40A      0.350800
@<TRIPOS>BOND
     1    1   13 1   
     2    1   18 1   
     3    1   36 1   
     4    2    3 ar  
     5    2    7 ar  
     6    3    4 ar  
     7    3   22 1   
     8    4    5 ar  
     9    5    6 ar  
    10    5   11 1   
    11    6    7 ar  
    12    6    9 1   
    13    7    8 1   
    14    8   29 1   
    15    8   30 1   
    16    9   10 2   
    17   10   11 1   
    18   10   23 1   
    19   11   21 1   
    20   12   14 1   
    21   12   37 1   
    22   12   38 1   
    23   14   15 1   
    24   14   16 1   
    25   14   24 1   
    26   15   33 1   
    27   15   34 1   
    28   15   35 1   
    29   16   17 1   
    30   16   25 1   
    31   16   26 1   
    32   17   18 1   
    33   17   19 1   
    34   18   27 1   
    35   18   28 1   
    36   19   20 2   
    37   19   21 1   
    38   21   31 1   
    39   21   32 1   
@<TRIPOS>SUBSTRUCTURE
     1 40A         1 TEMP              0 ****  ****    0 ROOT
