@<TRIPOS>MOLECULE
40A
   38    31     1     0     0
SMALL
bcc


@<TRIPOS>ATOM
      1 C'         -2.9840    2.2040    0.8850 c1        1 40A      0.318000
      2 N1          1.7530   -4.9040   -1.0240 n1        1 40A     -0.270000
      3 C2          1.4800   -3.7900   -1.7380 c1        1 40A     -0.008000
      4 N3          0.8080   -2.7370   -1.1450 n1        1 40A     -0.175000
      5 C4          0.4160   -2.8240    0.1710 c1        1 40A     -0.087000
      6 C5          0.6920   -3.9480    0.8890 c1        1 40A     -0.087000
      7 C6          1.3590   -4.9910    0.3010 c1        1 40A      0.190000
      8 N6          1.7990   -6.2880    0.6530 n3        1 40A     -0.333000
      9 N7          0.1970   -3.7820    2.1270 n1        1 40A     -0.161500
     10 C8         -0.3950   -2.5410    2.1860 c1        1 40A     -0.017000
     11 N9         -0.2570   -1.9580    0.9840 n1        1 40A     -0.161500
     12 N1'         1.8620    3.3540   -0.9320 n3        1 40A     -0.332000
     13 O1'        -3.3190    1.5320   -0.1280 o         1 40A     -0.564500
     14 C2'         0.4730    3.6150   -0.8490 c3        1 40A     -0.050000
     15 C2M         0.0880    4.6010   -1.8920 c3        1 40A     -0.205000
     16 C3'        -0.3140    2.2930   -1.0680 c3        1 40A     -0.066000
     17 N4'        -0.6790    1.7220    0.2430 n         1 40A     -0.289000
     18 C5'        -1.4880    2.4860    1.1610 c2        1 40A     -0.116000
     19 C7'        -0.1370    0.4850    0.6480 c2        1 40A      0.284000
     20 O7'         0.9940    0.4320    1.0760 o         1 40A     -0.411000
     21 C8'        -1.0570   -0.7960    0.6940 c2        1 40A     -0.047000
     22 H2          1.7010   -3.7560   -2.7200 ha        1 40A      0.177000
     23 H8         -0.8180   -2.1610    2.9430 DU        1 40A      0.277000
     24 HN1'        2.0050    2.6180   -1.4650 hn        1 40A      0.148500
     25 H22'        0.2550    3.9930    0.0720 h1        1 40A      0.090000
     26 H13'        0.2350    1.6720   -1.5460 h1        1 40A      0.103000
     27 H23'       -1.1050    2.4690   -1.5710 h1        1 40A      0.103000
     28 H15'       -1.2710    2.2240    2.0880 h4        1 40A      0.080000
     29 H25'       -1.3060    3.4240    1.0400 h4        1 40A      0.080000
     30 HN6         2.2100   -6.4310    1.4610 hn        1 40A      0.212000
     31 HN6A        1.6830   -6.9880    0.0680 hn        1 40A      0.212000
     32 H18'       -1.7480   -0.6830    1.4060 ha        1 40A      0.155000
     33 H28'       -1.4860   -0.9090   -0.1500 ha        1 40A      0.155000
     34 H2M         0.5490    5.4510   -1.7280 hc        1 40A      0.071000
     35 H2MA        0.3460    4.2500   -2.7940 hc        1 40A      0.071000
     36 H2MB       -0.8400    4.7390   -1.8630 hc        1 40A      0.071000
     37 OXT        -3.8850    2.7290    1.6330 o         1 40A     -0.564500
     38 HNXT        2.1830    3.1960   -0.1140 hn        1 40A      0.148500
@<TRIPOS>BOND
     1    1   13 1   
     2    1   37 1   
     3    2    7 1   
     4    3    4 1   
     5    3   22 1   
     6    5    6 1   
     7    7    8 1   
     8    8   30 1   
     9    8   31 1   
    10    9   10 1   
    11   10   11 1   
    12   12   14 1   
    13   12   24 1   
    14   12   38 1   
    15   14   15 1   
    16   14   16 1   
    17   14   25 1   
    18   15   34 1   
    19   15   35 1   
    20   15   36 1   
    21   16   17 1   
    22   16   26 1   
    23   16   27 1   
    24   17   18 1   
    25   17   19 1   
    26   18   28 1   
    27   18   29 1   
    28   19   20 1   
    29   19   21 1   
    30   21   32 1   
    31   21   33 1   
@<TRIPOS>SUBSTRUCTURE
     1 40A         1 TEMP              0 ****  ****    0 ROOT
