@<TRIPOS>MOLECULE
40B
   42    44     1     0     0
SMALL
bcc


@<TRIPOS>ATOM
      1 OAD         0.0000    0.0000    0.0000 o         1 40B     -0.647833
      2 PBC         1.4800    0.0000    0.0000 p5        1 40B      0.433200
      3 OAE         2.0170    0.0000    1.5180 o         1 40B     -0.647833
      4 OAA         2.0170   -1.3160   -0.7580 o         1 40B     -0.647833
      5 CBB         2.0880    1.4880   -0.8600 c3        1 40B      0.648700
      6 PBD         1.4790    1.4870   -2.5790 p5        1 40B      0.433200
      7 OAF         2.0160    2.8010   -3.3390 o         1 40B     -0.647833
      8 OAG         2.0170    0.1720   -3.3370 o         1 40B     -0.647833
      9 OAB        -0.0000    1.4860   -2.5790 o         1 40B     -0.647833
     10 OAC         1.6120    2.6550   -0.1870 oh        1 40B     -0.574800
     11 CAU         3.5940    1.4880   -0.8600 ca        1 40B     -0.075300
     12 CAR         4.2830    2.5220   -0.2580 ca        1 40B     -0.045000
     13 CAL         4.2850    0.4500   -1.4590 ca        1 40B     -0.054000
     14 CAJ         5.6680    0.4430   -1.4630 ca        1 40B     -0.158000
     15 CAM         6.3670    1.4740   -0.8680 ca        1 40B     -0.176000
     16 CAV         5.6770    2.5200   -0.2580 cp        1 40B     -0.060000
     17 CAW         6.4220    3.6280    0.3880 cp        1 40B      0.025000
     18 CBA         7.8150    3.6250    0.3870 ca        1 40B     -0.167000
     19 CAN         5.7310    4.6760    0.9930 ca        1 40B     -0.296000
     20 CAK         6.4250    5.7110    1.5890 ca        1 40B     -0.083000
     21 CAQ         7.8050    5.7130    1.5910 ca        1 40B     -0.258000
     22 CAZ         8.5080    4.6670    0.9940 cp        1 40B     -0.053000
     23 CAY         9.9910    4.6710    0.9980 cp        1 40B     -0.150000
     24 CAP        10.6940    3.6290    0.3960 ca        1 40B     -0.176000
     25 CAI        12.0750    3.6380    0.4020 ca        1 40B     -0.105000
     26 CAH        12.7600    4.6790    1.0040 ca        1 40B     -0.422000
     27 CAO        12.0670    5.7150    1.6020 ca        1 40B     -0.105000
     28 CAX        10.6870    5.7200    1.5960 ca        1 40B     -0.176000
     29 H5          0.6690    2.6620   -0.1980 ho        1 40B      0.418000
     30 H6          3.7420    3.2940    0.2760 ha        1 40B      0.114000
     31 H7          3.7400   -0.3610   -1.9280 ha        1 40B      0.200000
     32 H8          6.2040   -0.3720   -1.9330 ha        1 40B      0.060000
     33 H9          7.4480    1.5040   -0.9340 ha        1 40B      0.083000
     34 H10         8.3560    2.8110   -0.0780 ha        1 40B      0.104000
     35 H11         4.6480    4.6800    0.9950 ha        1 40B      0.107000
     36 H12         5.8830    6.5240    2.0580 ha        1 40B      0.040000
     37 H13         8.3440    6.5300    2.0570 ha        1 40B      0.073000
     38 H14        10.1600    2.7800   -0.0120 ha        1 40B      0.083000
     39 H15        12.6220    2.8290   -0.0650 ha        1 40B      0.033500
     40 H16        13.8430    4.6800    1.0080 ha        1 40B      0.050000
     41 H17        12.6080    6.5250    2.0760 ha        1 40B      0.033500
     42 H18        10.1450    6.5320    2.0650 ha        1 40B      0.083000
@<TRIPOS>BOND
     1    1    2 1   
     2    2    3 1   
     3    2    4 1   
     4    2    5 1   
     5    5    6 1   
     6    5   10 1   
     7    5   11 1   
     8    6    7 1   
     9    6    8 1   
    10    6    9 1   
    11   10   29 1   
    12   11   12 ar  
    13   11   13 ar  
    14   12   16 ar  
    15   12   30 1   
    16   13   14 ar  
    17   13   31 1   
    18   14   15 ar  
    19   14   32 1   
    20   15   16 ar  
    21   15   33 1   
    22   16   17 1   
    23   17   18 ar  
    24   17   19 ar  
    25   18   22 ar  
    26   18   34 1   
    27   19   20 ar  
    28   19   35 1   
    29   20   21 ar  
    30   20   36 1   
    31   21   22 ar  
    32   21   37 1   
    33   22   23 1   
    34   23   24 ar  
    35   23   28 ar  
    36   24   25 ar  
    37   24   38 1   
    38   25   26 ar  
    39   25   39 1   
    40   26   27 ar  
    41   26   40 1   
    42   27   28 ar  
    43   27   41 1   
    44   28   42 1   
@<TRIPOS>SUBSTRUCTURE
     1 40B         1 TEMP              0 ****  ****    0 ROOT
