@<TRIPOS>MOLECULE
40C
   36    36     1     0     0
SMALL
bcc


@<TRIPOS>ATOM
      1 C'          4.0300    0.4360    0.9170 c         1 40C      0.902600
      2 N1         -2.0500   -0.4920   -0.1160 n         1 40C     -0.349000
      3 C2         -3.0170   -0.3930   -1.1870 c         1 40C      0.829900
      4 O2         -2.6050   -0.5180   -2.3600 o         1 40C     -0.636500
      5 N3         -4.3720   -0.1750   -0.8990 nc        1 40C     -0.731100
      6 C4         -4.7550   -0.0870    0.3860 cd        1 40C      0.731500
      7 N4         -6.1110    0.0410    0.6940 nh        1 40C     -0.900800
      8 C5         -3.8080   -0.1760    1.4840 cd        1 40C     -0.460600
      9 C6         -2.4790   -0.3620    1.1760 cc        1 40C      0.106600
     10 N1'         1.7360   -3.1020   -0.2230 n3        1 40C     -0.912800
     11 O1'         4.7870    0.6110   -0.0790 o         1 40C     -0.832800
     12 C2'         2.7590   -2.0710   -0.2710 c3        1 40C      0.116500
     13 C2M         4.0230   -2.4580   -1.0410 c3        1 40C     -0.134100
     14 C3'         2.2250   -0.7420   -0.8870 c3        1 40C      0.089000
     15 N4'         1.6560    0.1830    0.0600 n         1 40C     -0.411800
     16 C5'         2.5790    0.9960    0.8370 c3        1 40C     -0.044000
     17 C7'         0.3180    0.2380    0.3580 c         1 40C      0.636100
     18 O7'        -0.1230    1.0270    1.2300 o         1 40C     -0.665100
     19 C8'        -0.6470   -0.6710   -0.4250 c3        1 40C     -0.005000
     20 H5         -4.1330   -0.0930    2.5250 ha        1 40C      0.149000
     21 H6         -1.7020   -0.3990    1.9690 h4        1 40C      0.191000
     22 H22'        3.0780   -1.8590    0.8000 h1        1 40C      0.117700
     23 H13'        3.1120   -0.2120   -1.3550 h1        1 40C      0.066700
     24 H23'        1.4840   -0.9670   -1.7020 h1        1 40C      0.066700
     25 HN4        -6.7240    0.2900   -0.0480 hn        1 40C      0.410300
     26 HN4A       -6.3000    0.4740    1.5670 hn        1 40C      0.410300
     27 H15'        2.1800    1.0990    1.8850 h1        1 40C      0.045200
     28 H25'        2.6180    2.0160    0.3650 h1        1 40C      0.045200
     29 H18'       -0.3770   -1.7440   -0.2030 h1        1 40C      0.104700
     30 H28'       -0.5160   -0.4780   -1.5300 h1        1 40C      0.104700
     31 H2M         4.4430   -3.4160   -0.6540 hc        1 40C      0.042700
     32 H2MA        3.8130   -2.5740   -2.1310 hc        1 40C      0.042700
     33 H2MB        4.7840   -1.6460   -0.8950 hc        1 40C      0.042700
     34 OXT         4.3670   -0.1490    1.9820 o         1 40C     -0.832800
     35 HN1'        1.5300   -3.4310   -1.1470 hn        1 40C      0.331800
     36 HNXT        2.0670   -3.8770    0.3180 hn        1 40C      0.331800
@<TRIPOS>BOND
     1    1   11 1   
     2    1   16 1   
     3    1   34 1   
     4    2    3 1   
     5    2    9 1   
     6    2   19 1   
     7    3    4 2   
     8    3    5 1   
     9    5    6 2   
    10    6    7 1   
    11    6    8 1   
    12    7   25 1   
    13    7   26 1   
    14    8    9 2   
    15    8   20 1   
    16    9   21 1   
    17   10   12 1   
    18   10   35 1   
    19   10   36 1   
    20   12   13 1   
    21   12   14 1   
    22   12   22 1   
    23   13   31 1   
    24   13   32 1   
    25   13   33 1   
    26   14   15 1   
    27   14   23 1   
    28   14   24 1   
    29   15   16 1   
    30   15   17 1   
    31   16   27 1   
    32   16   28 1   
    33   17   18 2   
    34   17   19 1   
    35   19   29 1   
    36   19   30 1   
@<TRIPOS>SUBSTRUCTURE
     1 40C         1 TEMP              0 ****  ****    0 ROOT
