@<TRIPOS>MOLECULE
40C
   36    34     1     0     0
SMALL
bcc


@<TRIPOS>ATOM
      1 C'         -1.1320    0.7970   -3.0750 c1        1 40C      0.318000
      2 N1          1.2010    1.6910    1.3530 n         1 40C     -0.241000
      3 C2          2.4350    2.1350    0.7130 c2        1 40C      0.341000
      4 O2          2.4400    2.4150   -0.4960 o         1 40C     -0.330000
      5 N3          3.6610    2.2820    1.5040 n2        1 40C     -0.300000
      6 C4          3.6340    2.0620    2.9130 c1        1 40C      0.197000
      7 N4          4.7710    2.2990    3.6740 n3        1 40C     -0.335000
      8 C5          2.3980    1.6150    3.5570 c1        1 40C     -0.381000
      9 C6          1.1660    1.4660    2.7580 c2        1 40C      0.090000
     10 N1'        -0.7710   -3.5400   -1.2920 n3        1 40C     -0.360000
     11 O1'         0.1230    0.8580   -2.9840 o         1 40C     -0.558500
     12 C2'        -1.7400   -2.5240   -1.5880 c3        1 40C     -0.048000
     13 C2M        -3.0770   -3.1540   -1.7610 c3        1 40C     -0.201000
     14 C3'        -1.7960   -1.5230   -0.4410 c3        1 40C     -0.072000
     15 N4'        -1.2310   -0.2140   -0.8870 n         1 40C     -0.271000
     16 C5'        -1.9650    0.6050   -1.8380 c2        1 40C     -0.141000
     17 C7'         0.0110    0.3040   -0.2690 c2        1 40C      0.304000
     18 O7'         1.0620   -0.2560   -0.4650 o         1 40C     -0.436000
     19 C8'        -0.0270    1.5870    0.5690 c3        1 40C     -0.071000
     20 H5          2.3760    1.4610    4.5430 ha        1 40C      0.145000
     21 H6          0.3470    1.1710    3.1810 h4        1 40C      0.188000
     22 HN1'       -1.0430   -4.3460   -1.6680 hn        1 40C      0.170500
     23 H22'       -1.4830   -2.0550   -2.4270 h1        1 40C      0.119000
     24 H13'       -1.2780   -1.8630    0.3120 h1        1 40C      0.086500
     25 H23'       -2.7300   -1.3970   -0.1640 h1        1 40C      0.086500
     26 HN4         5.4950    2.6730    3.2940 hn        1 40C      0.200000
     27 HN4A        4.7660    2.1230    4.5730 hn        1 40C      0.200000
     28 H15'       -2.8180    0.1510   -2.0770 h4        1 40C      0.084000
     29 H25'       -2.1640    1.4920   -1.4310 h4        1 40C      0.084000
     30 H18'       -0.7910    1.5610    1.1670 h1        1 40C      0.163000
     31 H28'       -0.1020    2.3580   -0.0200 h1        1 40C      0.163000
     32 H2M        -3.7490   -2.4560   -1.9190 hc        1 40C      0.064667
     33 H2MA       -3.3080   -3.6510   -0.9560 hc        1 40C      0.064667
     34 H2MB       -3.0540   -3.7600   -2.5220 hc        1 40C      0.064667
     35 OXT        -1.6830    0.9290   -4.1870 o         1 40C     -0.558500
     36 HNXT        0.0530   -3.2960   -1.6460 hn        1 40C      0.170500
@<TRIPOS>BOND
     1    1   11 1   
     2    1   35 1   
     3    2    3 1   
     4    2    9 1   
     5    2   19 1   
     6    3    4 1   
     7    3    5 1   
     8    5    6 1   
     9    6    7 1   
    10    7   26 1   
    11    7   27 1   
    12    8    9 1   
    13    8   20 1   
    14    9   21 1   
    15   10   12 1   
    16   10   22 1   
    17   10   36 1   
    18   12   13 1   
    19   12   14 1   
    20   12   23 1   
    21   13   32 1   
    22   13   33 1   
    23   13   34 1   
    24   14   15 1   
    25   14   24 1   
    26   14   25 1   
    27   15   16 1   
    28   15   17 1   
    29   16   28 1   
    30   16   29 1   
    31   17   18 1   
    32   17   19 1   
    33   19   30 1   
    34   19   31 1   
@<TRIPOS>SUBSTRUCTURE
     1 40C         1 TEMP              0 ****  ****    0 ROOT
