@<TRIPOS>MOLECULE
40D
   41    38     1     0     0
SMALL
bcc


@<TRIPOS>ATOM
      1 F2          2.7020   -0.8220   -2.0960 f         1 40D     -0.146000
      2 C16         3.3620    0.3190   -1.7120 c3        1 40D      0.520000
      3 F           4.1950   -0.0790   -0.6970 f         1 40D     -0.146000
      4 F1          4.2060    0.6010   -2.7610 f         1 40D     -0.146000
      5 C13         2.4590    1.4460   -1.3530 cu        1 40D     -0.155000
      6 C12         1.7160    2.1400   -0.2500 cx        1 40D      0.110000
      7 C11         2.4050    2.9230    0.7070 c1        1 40D     -0.235000
      8 C14         1.7620    2.5060   -1.7100 cu        1 40D     -0.139000
      9 C15         1.2960    3.4450   -2.7000 c3        1 40D     -0.133000
     10 Br          0.6910    2.5480   -4.3210 br        1 40D      0.081000
     11 C10         2.2720    4.4880   -3.1300 c2        1 40D      0.119000
     12 O           3.4390    4.4680   -2.5840 os        1 40D     -0.091000
     13 H1          0.7950    1.6590    0.1550 hc        1 40D      0.152000
     14 H2          1.9440    5.3040   -3.9780 h4        1 40D      0.324000
     15 H3          0.3880    3.9930   -2.3030 h1        1 40D      0.195000
     16 C1          4.4520    5.5130   -2.9560 c3        1 40D      0.080000
     17 C2          4.9420    5.2100   -4.3490 c3        1 40D     -0.254000
     18 C4          1.4480    6.1690   -5.1120 c1        1 40D      0.072000
     19 C5          0.9530    6.8230   -6.1030 c2        1 40D     -0.408000
     20 C6          3.5390    9.6710   -0.4470 c1        1 40D      0.318000
     21 C7          3.4810    8.9140   -1.5320 c2        1 40D     -0.507000
     22 C8          4.0070    7.5840   -1.6900 c2        1 40D      0.041000
     23 C9          3.8530    6.8570   -2.8110 c2        1 40D     -0.304000
     24 C3          2.9860    3.5730    1.5280 c1        1 40D     -0.129000
     25 N1          5.8200    5.2290    0.4830 n9        1 40D     -0.428000
     26 C18         4.9440    5.1780    3.6320 c1        1 40D     -0.061000
     27 H4          5.2300    5.2870   -2.1650 h1        1 40D      0.185000
     28 H5          4.1260    5.3510   -5.0990 hc        1 40D      0.112667
     29 H6          5.3220    4.1610   -4.4140 hc        1 40D      0.112667
     30 H7          3.3160    7.2440   -3.6910 ha        1 40D      0.126000
     31 H8          0.3310    6.3620   -6.9000 ha        1 40D      0.245500
     32 H9          1.0840    7.9100   -6.2800 ha        1 40D      0.245500
     33 H10         2.9820    9.3680   -2.4170 ha        1 40D      0.198000
     34 H11         4.5660    7.1700   -0.8260 ha        1 40D      0.168000
     35 H12         3.5110    4.1520    2.2620 ha        1 40D      0.261000
     36 H13         5.7810    5.9090   -4.5940 hc        1 40D      0.112667
     37 H14         5.1970    5.2200    1.2710 hn        1 40D      0.141333
     38 H15         4.3570    5.0810    4.5560 ha        1 40D      0.038500
     39 H16         5.9480    5.5850    3.8170 ha        1 40D      0.038500
     40 H17         6.6540    5.7130    0.7450 hn        1 40D      0.141333
     41 H121        6.0610    4.2850    0.2610 hn        1 40D      0.141333
@<TRIPOS>BOND
     1    1    2 1   
     2    2    3 1   
     3    2    4 1   
     4    2    5 1   
     5    5    6 1   
     6    5    8 1   
     7    6    7 1   
     8    6    8 1   
     9    6   13 1   
    10    7   24 1   
    11    8    9 1   
    12    9   10 1   
    13    9   11 1   
    14    9   15 1   
    15   11   12 1   
    16   11   14 1   
    17   12   16 1   
    18   16   17 1   
    19   16   23 1   
    20   16   27 1   
    21   17   28 1   
    22   17   29 1   
    23   17   36 1   
    24   18   19 1   
    25   19   31 1   
    26   19   32 1   
    27   20   21 1   
    28   21   22 1   
    29   21   33 1   
    30   22   23 1   
    31   22   34 1   
    32   23   30 1   
    33   24   35 1   
    34   25   37 1   
    35   25   40 1   
    36   25   41 1   
    37   26   38 1   
    38   26   39 1   
@<TRIPOS>SUBSTRUCTURE
     1 40D         1 TEMP              0 ****  ****    0 ROOT
