@<TRIPOS>MOLECULE
40D
   41    40     1     0     0
SMALL
bcc


@<TRIPOS>ATOM
      1 F2          0.3750   -1.6360   -0.8160 f         1 40D     -0.157333
      2 C16         0.1660   -0.4350   -0.1890 c3        1 40D      0.492000
      3 F          -1.1820   -0.2030   -0.3490 f         1 40D     -0.157333
      4 F1          0.3010   -0.6990    1.1490 f         1 40D     -0.157333
      5 C13         1.0530    0.7000   -0.6970 c2        1 40D     -0.290000
      6 C12         0.4980    1.8290   -1.2490 c2        1 40D      0.093000
      7 C11         1.3280    2.8850   -1.7370 c2        1 40D     -0.292000
      8 C14         2.4460    0.5180   -0.5670 c1        1 40D     -0.010000
      9 C15         3.3390    1.5930   -1.0200 c3        1 40D     -0.180000
     10 BR          4.3680    2.0720    0.5680 br        1 40D      0.039000
     11 C10         2.6880    2.7890   -1.6370 c2        1 40D      0.110000
     12 O           3.5580    3.7220   -2.1100 oh        1 40D     -0.287000
     13 H1         -0.5980    1.9480   -1.3390 ha        1 40D      0.170000
     14 H2          0.8480    3.7590   -2.2000 ha        1 40D      0.153000
     15 H3          4.0750    1.1430   -1.7470 h1        1 40D      0.196000
     16 C1          3.6350    6.6470   -2.3840 c1        1 40D     -0.001000
     17 C2          4.9820    6.8540   -1.8470 c3        1 40D     -0.249000
     18 C4          1.8410    7.4150   -3.8940 c2        1 40D      0.041000
     19 C5          1.8730    8.3380   -4.8350 c1        1 40D     -0.205000
     20 C6          2.6010    9.3970   -4.9710 c1        1 40D      0.087000
     21 C7          3.5960    9.8680   -4.1590 c2        1 40D     -0.128000
     22 C8          3.7240    9.0110   -3.0550 c1        1 40D     -0.164000
     23 C9          2.8840    7.8250   -2.8030 c3        1 40D     -0.212000
     24 C3          5.6040    5.4990   -1.5270 c3        1 40D     -0.132000
     25 N1          6.9940    5.6130   -0.9840 n4        1 40D     -0.031000
     26 C18         7.6040    4.2820   -0.7560 c3        1 40D     -0.198000
     27 H4          3.0720    4.5080   -2.4390 ho        1 40D      0.267000
     28 H5          5.6060    7.4310   -2.5930 hc        1 40D      0.156000
     29 H6          4.9210    7.5060   -0.9270 hc        1 40D      0.156000
     30 H7          0.1150    7.5560   -1.8440 ha        1 40D      0.000500
     31 H8          1.2430    6.5120   -3.7650 ha        1 40D      0.177000
     32 H9          4.2110   10.7600   -4.3160 ha        1 40D      0.192000
     33 H10        -0.4070    7.7310   -1.4490 ha        1 40D      0.000500
     34 H11         2.2230    8.1210   -1.9070 hc        1 40D      0.239000
     35 H12         4.9740    4.9480   -0.7660 hx        1 40D      0.166000
     36 H13         5.6420    4.8620   -2.4600 hx        1 40D      0.166000
     37 H14         6.9660    6.1340   -0.1000 hn        1 40D      0.246000
     38 H15         7.7050    3.7430   -1.7360 hx        1 40D      0.152667
     39 H16         6.9470    3.6790   -0.0700 hx        1 40D      0.152667
     40 H17         8.6180    4.4160   -0.2910 hx        1 40D      0.152667
     41 H121        7.5720    6.1470   -1.6440 hn        1 40D      0.246000
@<TRIPOS>BOND
     1    1    2 1   
     2    2    3 1   
     3    2    4 1   
     4    2    5 1   
     5    5    6 1   
     6    5    8 1   
     7    6    7 1   
     8    6   13 1   
     9    7   11 1   
    10    7   14 1   
    11    8    9 1   
    12    9   10 1   
    13    9   11 1   
    14    9   15 1   
    15   11   12 1   
    16   12   27 1   
    17   16   17 1   
    18   16   23 1   
    19   17   24 1   
    20   17   28 1   
    21   17   29 1   
    22   18   19 1   
    23   18   23 1   
    24   18   31 1   
    25   19   20 1   
    26   20   21 1   
    27   21   22 1   
    28   21   32 1   
    29   22   23 1   
    30   23   34 1   
    31   24   25 1   
    32   24   35 1   
    33   24   36 1   
    34   25   26 1   
    35   25   37 1   
    36   25   41 1   
    37   26   38 1   
    38   26   39 1   
    39   26   40 1   
    40   30   33 1   
@<TRIPOS>SUBSTRUCTURE
     1 40D         1 TEMP              0 ****  ****    0 ROOT
