@<TRIPOS>MOLECULE
40F
   23    24     1     0     0
SMALL
bcc


@<TRIPOS>ATOM
      1 O1          0.1830    0.2790   -0.0000 o         1 40F     -0.786300
      2 C7          2.4960   -1.3470   -2.1680 c3        1 40F     -0.078400
      3 O2          4.3400    3.3690   -2.5840 o         1 40F     -0.832300
      4 C6          4.0230   -1.4870   -2.1800 c3        1 40F     -0.055400
      5 C1          2.1270   -0.0440   -1.4190 c3        1 40F      0.009200
      6 C5          4.5980   -0.2330   -1.5680 cx        1 40F     -0.084700
      7 C3          4.2660    1.0450   -2.2800 cx        1 40F     -0.222700
      8 C2          3.4480    0.6200   -1.0750 cx        1 40F     -0.142700
      9 O3          6.2060    2.4040   -1.7940 o         1 40F     -0.832300
     10 N           1.3430    0.9360   -2.2720 n4        1 40F     -0.847600
     11 C           1.2480   -0.3910   -0.1360 c         1 40F      0.933600
     12 O           1.6540   -1.3110    0.6000 o         1 40F     -0.786300
     13 H2          3.4850    1.1830   -0.1320 hc        1 40F      0.120700
     14 H3          2.0410   -2.2080   -1.6120 hc        1 40F      0.047200
     15 H5          2.0990   -1.3650   -3.2140 hc        1 40F      0.047200
     16 H6          4.3270   -2.3800   -1.5790 hc        1 40F      0.040700
     17 H7          4.3980   -1.6280   -3.2240 hc        1 40F      0.040700
     18 H8          5.5380   -0.3290   -1.0050 hc        1 40F      0.108700
     19 H9          3.8300    0.9320   -3.2950 hc        1 40F      0.039700
     20 H10         1.9300    1.7530   -2.4880 hn        1 40F      0.447133
     21 H11         1.0260    0.5010   -3.1300 hn        1 40F      0.447133
     22 C4          5.0180    2.3680   -2.2000 c         1 40F      0.937600
     23 HN3         0.5250    1.2320   -1.7020 hn        1 40F      0.447133
@<TRIPOS>BOND
     1    1   11 1   
     2    2    4 1   
     3    2    5 1   
     4    2   14 1   
     5    2   15 1   
     6    3   22 1   
     7    4    6 1   
     8    4   16 1   
     9    4   17 1   
    10    5    8 1   
    11    5   10 1   
    12    5   11 1   
    13    6    7 1   
    14    6    8 1   
    15    6   18 1   
    16    7    8 1   
    17    7   19 1   
    18    7   22 1   
    19    8   13 1   
    20    9   22 1   
    21   10   20 1   
    22   10   21 1   
    23   10   23 1   
    24   11   12 1   
@<TRIPOS>SUBSTRUCTURE
     1 40F         1 TEMP              0 ****  ****    0 ROOT
