@<TRIPOS>MOLECULE
40F
   23    24     1     0     0
SMALL
bcc


@<TRIPOS>ATOM
      1 O1          0.1450    0.2960   -0.0550 o         1 40F     -0.786300
      2 C7          2.4910   -1.3570   -2.1670 c3        1 40F     -0.078400
      3 O2          4.2890    3.3670   -2.6820 o         1 40F     -0.832300
      4 C6          4.0190   -1.4810   -2.1630 c3        1 40F     -0.055400
      5 C1          2.1030   -0.0400   -1.4520 c3        1 40F      0.009200
      6 C5          4.5760   -0.2070   -1.5770 cx        1 40F     -0.084700
      7 C3          4.2370    1.0500   -2.3220 cx        1 40F     -0.222700
      8 C2          3.4140    0.6460   -1.1140 cx        1 40F     -0.142700
      9 O3          6.1590    2.4410   -1.8560 o         1 40F     -0.832300
     10 N           1.3150    0.9110   -2.3330 nz        1 40F     -0.847600
     11 C           1.2180   -0.3660   -0.1660 c         1 40F      0.933600
     12 O           1.6280   -1.2640    0.5940 o         1 40F     -0.786300
     13 H2          3.4380    1.2320   -0.1840 hc        1 40F      0.120700
     14 H3          2.1020   -1.4040   -3.2150 hc        1 40F      0.047200
     15 H5          2.0410   -2.2090   -1.5940 hc        1 40F      0.047200
     16 H6          4.3280   -2.3560   -1.5380 hc        1 40F      0.040700
     17 H7          4.4050   -1.6430   -3.2000 hc        1 40F      0.040700
     18 H8          5.5130   -0.2790   -1.0050 hc        1 40F      0.108700
     19 H9          3.8090    0.9080   -3.3380 hc        1 40F      0.039700
     20 H10         1.8960    1.7280   -2.5650 hn        1 40F      0.447133
     21 H11         1.0090    0.4520   -3.1830 hn        1 40F      0.447133
     22 C4          4.9740    2.3820   -2.2690 c         1 40F      0.937600
     23 HN3         0.4900    1.2120   -1.7760 hn        1 40F      0.447133
@<TRIPOS>BOND
     1    1   11 1   
     2    2    4 1   
     3    2    5 1   
     4    2   14 1   
     5    2   15 1   
     6    3   22 1   
     7    4    6 1   
     8    4   16 1   
     9    4   17 1   
    10    5    8 1   
    11    5   10 1   
    12    5   11 1   
    13    6    7 1   
    14    6    8 1   
    15    6   18 1   
    16    7    8 1   
    17    7   19 1   
    18    7   22 1   
    19    8   13 1   
    20    9   22 1   
    21   10   20 1   
    22   10   21 1   
    23   10   23 1   
    24   11   12 1   
@<TRIPOS>SUBSTRUCTURE
     1 40F         1 TEMP              0 ****  ****    0 ROOT
