@<TRIPOS>MOLECULE
40G
   39    35     1     0     0
SMALL
bcc


@<TRIPOS>ATOM
      1 C'          2.0080    1.9910   -0.8260 c1        1 40G      0.324000
      2 N1         -1.4680   -3.1130   -4.5560 n3        1 40G     -0.344000
      3 C2         -0.1860   -2.6240   -4.1740 c2        1 40G      0.190000
      4 N2          0.9380   -2.8340   -5.0250 n3        1 40G     -0.314000
      5 N3         -0.0070   -1.9970   -2.8860 n1        1 40G     -0.219000
      6 C4         -1.1370   -1.8640   -1.9740 c1        1 40G     -0.103000
      7 C5         -2.3650   -2.3330   -2.3370 c1        1 40G     -0.103000
      8 C6         -2.5540   -2.9850   -3.6830 c1        1 40G      0.395000
      9 O6         -3.6530   -3.3940   -4.0130 o         1 40G     -0.347000
     10 N7         -3.2290   -2.0710   -1.3260 n2        1 40G     -0.111500
     11 C8         -2.5400   -1.4390   -0.3350 c1        1 40G     -0.048000
     12 N9         -1.2500   -1.3110   -0.7360 n2        1 40G     -0.111500
     13 N1'        -0.5070    1.5460    4.2470 n3        1 40G     -0.343000
     14 O1'         3.0500    1.2830   -0.7950 o         1 40G     -0.565000
     15 C2'         0.5130    2.0710    3.4120 c3        1 40G     -0.088000
     16 C2M         1.6590    2.5640    4.2670 c3        1 40G     -0.240000
     17 C3'         1.0140    0.9770    2.4690 c3        1 40G     -0.025000
     18 N4'         0.6970    1.3340    1.1020 n         1 40G     -0.263000
     19 C5'         1.3620    2.4500    0.4750 c2        1 40G     -0.109000
     20 C7'        -0.3610    0.6390    0.4020 c2        1 40G      0.292000
     21 O7'        -1.2370    1.2700   -0.1560 o         1 40G     -0.414000
     22 C8'        -0.3300   -0.8840    0.2910 c2        1 40G     -0.050000
     23 HN1        -1.5780   -3.5280   -5.3640 hn        1 40G      0.242000
     24 H8         -2.9160   -1.1040    0.5020 DU        1 40G      0.247000
     25 HN1'       -1.1220    2.1950    4.4210 hn        1 40G      0.128500
     26 H22'        0.1560    2.8100    2.8910 h1        1 40G      0.170000
     27 HN2         0.8770   -3.4210   -5.7280 hn        1 40G      0.194500
     28 HN2A        1.7240   -2.3990   -4.8600 hn        1 40G      0.194500
     29 H13'        0.5810    0.1290    2.6940 h1        1 40G      0.103500
     30 H23'        1.9840    0.8840    2.5650 h1        1 40G      0.103500
     31 H15'        2.0510    2.7990    1.0760 h4        1 40G      0.083500
     32 H25'        0.7080    3.1560    0.2840 h4        1 40G      0.083500
     33 H18'       -0.5920   -1.2790    1.1490 ha        1 40G      0.131000
     34 H28'        0.5750   -1.1760    0.0600 ha        1 40G      0.131000
     35 H2M         1.3190    3.1960    4.9380 hc        1 40G      0.074333
     36 H2MA        2.3180    3.0120    3.7030 hc        1 40G      0.074333
     37 H2MB        2.0800    1.8010    4.7210 hc        1 40G      0.074333
     38 OXT         1.5530    2.3930   -1.9300 o         1 40G     -0.565000
     39 HNXT       -0.1370    1.2540    5.0380 hn        1 40G      0.128500
@<TRIPOS>BOND
     1    1   14 1   
     2    1   38 1   
     3    2    3 1   
     4    2    8 1   
     5    2   23 1   
     6    3    4 1   
     7    3    5 1   
     8    4   27 1   
     9    4   28 1   
    10    6    7 1   
    11    6   12 1   
    12    7   10 1   
    13    8    9 1   
    14   10   11 1   
    15   11   12 1   
    16   13   15 1   
    17   13   25 1   
    18   13   39 1   
    19   15   16 1   
    20   15   17 1   
    21   15   26 1   
    22   16   35 1   
    23   16   36 1   
    24   16   37 1   
    25   17   18 1   
    26   17   29 1   
    27   17   30 1   
    28   18   19 1   
    29   18   20 1   
    30   19   31 1   
    31   19   32 1   
    32   20   21 1   
    33   20   22 1   
    34   22   33 1   
    35   22   34 1   
@<TRIPOS>SUBSTRUCTURE
     1 40G         1 TEMP              0 ****  ****    0 ROOT
