@<TRIPOS>MOLECULE
40G
   39    40     1     0     0
SMALL
bcc


@<TRIPOS>ATOM
      1 C'          3.5880    1.8080    0.3860 c         1 40G      0.899600
      2 N1         -4.7080   -0.4980    0.3820 n         1 40G     -0.503400
      3 C2         -3.6670   -1.0050    1.1860 cc        1 40G      0.635800
      4 N2         -4.0280   -2.0180    2.1300 nh        1 40G     -0.873800
      5 N3         -2.3930   -0.5690    1.1550 nd        1 40G     -0.634100
      6 C4         -2.1610    0.4720    0.2700 cd        1 40G      0.099800
      7 C5         -3.1630    1.0770   -0.5750 cc        1 40G      0.182800
      8 C6         -4.5210    0.5820   -0.5220 c         1 40G      0.650000
      9 O6         -5.5160    0.9700   -1.1560 o         1 40G     -0.630500
     10 N7         -2.5960    2.0960   -1.3430 nc        1 40G     -0.614000
     11 C8         -1.2970    2.1150   -0.9870 cd        1 40G      0.424400
     12 N9         -0.9750    1.1620    0.0100 na        1 40G     -0.158900
     13 N1'         2.0350   -3.4090   -0.2320 n3        1 40G     -0.898800
     14 O1'         2.7480    2.7480    0.2840 o         1 40G     -0.826300
     15 C2'         3.3190   -2.7310   -0.2600 c3        1 40G      0.148500
     16 C2M         4.3100   -3.4140   -1.2020 c3        1 40G     -0.087100
     17 C3'         3.2560   -1.2330   -0.6780 c3        1 40G      0.047000
     18 N4'         2.4190   -0.4260    0.1850 n         1 40G     -0.433800
     19 C5'         3.1050    0.4930    1.0690 c3        1 40G     -0.058000
     20 C7'         1.0940   -0.2370   -0.1710 c         1 40G      0.641100
     21 O7'         0.5420   -1.0030   -0.9940 o         1 40G     -0.648100
     22 C8'         0.3280    0.8940    0.5340 c3        1 40G     -0.065700
     23 HN1        -5.6330   -0.8480    0.4900 hn        1 40G      0.327500
     24 H8         -0.5270    2.7900   -1.3840 h5        1 40G      0.085100
     25 H22'        3.7400   -2.7860    0.7880 h1        1 40G      0.050700
     26 HN2        -4.5050   -2.7840    1.6990 hn        1 40G      0.397300
     27 HN2A       -3.2440   -2.3330    2.6680 hn        1 40G      0.397300
     28 H13'        4.3000   -0.8070   -0.6670 h1        1 40G      0.068700
     29 H23'        2.8660   -1.1800   -1.7360 h1        1 40G      0.068700
     30 H15'        4.0030   -0.0420    1.4850 h1        1 40G      0.038700
     31 H25'        2.4260    0.7530    1.9260 h1        1 40G      0.038700
     32 H18'        0.9490    1.8510    0.4480 h1        1 40G      0.130200
     33 H28'        0.2230    0.6150    1.6220 h1        1 40G      0.130200
     34 H2M         4.4340   -4.4890   -0.9280 hc        1 40G      0.032700
     35 H2MA        3.9600   -3.3550   -2.2600 hc        1 40G      0.032700
     36 H2MB        5.3010   -2.9070   -1.1250 hc        1 40G      0.032700
     37 OXT         4.7820    1.8480   -0.0050 o         1 40G     -0.826300
     38 HN1'        1.4360   -2.9580    0.4360 hn        1 40G      0.349800
     39 HNXT        1.5910   -3.3260   -1.1300 hn        1 40G      0.349800
@<TRIPOS>BOND
     1    1   14 1   
     2    1   19 1   
     3    1   37 1   
     4    2    3 1   
     5    2    8 1   
     6    2   23 1   
     7    3    4 1   
     8    3    5 2   
     9    4   26 1   
    10    4   27 1   
    11    5    6 1   
    12    6    7 2   
    13    6   12 1   
    14    7    8 1   
    15    7   10 1   
    16    8    9 2   
    17   10   11 2   
    18   11   12 1   
    19   11   24 1   
    20   12   22 1   
    21   13   15 1   
    22   13   38 1   
    23   13   39 1   
    24   15   16 1   
    25   15   17 1   
    26   15   25 1   
    27   16   34 1   
    28   16   35 1   
    29   16   36 1   
    30   17   18 1   
    31   17   28 1   
    32   17   29 1   
    33   18   19 1   
    34   18   20 1   
    35   19   30 1   
    36   19   31 1   
    37   20   21 2   
    38   20   22 1   
    39   22   32 1   
    40   22   33 1   
@<TRIPOS>SUBSTRUCTURE
     1 40G         1 TEMP              0 ****  ****    0 ROOT
