@<TRIPOS>MOLECULE
40H
   27    26     1     0     0
SMALL
bcc


@<TRIPOS>ATOM
      1 O1          1.2250   -0.4650    1.4980 o         1 40H     -0.513000
      2 C7          4.8680    2.3290   -1.2740 c3        1 40H     -0.248000
      3 O2          1.1160   -3.1960   -3.8920 o         1 40H     -0.480500
      4 C6          5.1100    3.6040   -1.8990 c1        1 40H     -0.063000
      5 C1          2.3400   -1.6610   -2.5540 c1        1 40H      0.202000
      6 C5          4.1070    1.2790   -2.0800 c3        1 40H     -0.130000
      7 C4          3.7110    0.1540   -1.1680 cx        1 40H      0.019000
      8 C3          2.3980    0.0730   -0.5000 cx        1 40H     -0.059000
      9 C2          2.6580   -0.8160   -1.6960 cu        1 40H     -0.299000
     10 C9          2.1700   -2.5480   -3.7420 c2        1 40H      0.398000
     11 N           1.9800   -4.2690   -6.4390 n9        1 40H     -0.387000
     12 C8          2.3300   -0.5680    0.9170 c2        1 40H      0.357000
     13 O           3.3930   -1.0670    1.3590 o         1 40H     -0.513000
     14 C           4.9510    0.7620   -3.2280 c3        1 40H     -0.222000
     15 H2          5.2050    1.5990   -3.9220 hc        1 40H      0.087333
     16 H3          5.8670    1.9120   -0.9490 hc        1 40H      0.160000
     17 H4          4.3110    2.5530   -0.3130 hc        1 40H      0.160000
     18 H5          4.6690    3.7660   -2.8960 ha        1 40H      0.036000
     19 H6          3.1790    1.7580   -2.5040 hc        1 40H      0.096000
     20 H7          4.5640   -0.3490   -0.6480 hc        1 40H      0.183000
     21 H8          1.6180    0.8430   -0.6610 hc        1 40H      0.142000
     22 H10         1.3650   -4.6540   -5.7450 hn        1 40H      0.127667
     23 H11         2.9070   -4.3050   -6.0560 hn        1 40H      0.127667
     24 H13         4.3940   -0.0240   -3.7990 hc        1 40H      0.087333
     25 H14         5.9000    0.3130   -2.8490 hc        1 40H      0.087333
     26 O3          3.1780   -2.4990   -4.4970 o         1 40H     -0.480500
     27 HN3         1.7470   -3.2960   -6.5110 hn        1 40H      0.127667
@<TRIPOS>BOND
     1    1   12 1   
     2    2    4 1   
     3    2    6 1   
     4    2   16 1   
     5    2   17 1   
     6    3   10 1   
     7    4   18 1   
     8    5    9 1   
     9    5   10 1   
    10    6    7 1   
    11    6   14 1   
    12    6   19 1   
    13    7    8 1   
    14    7    9 1   
    15    7   20 1   
    16    8    9 1   
    17    8   12 1   
    18    8   21 1   
    19   10   26 1   
    20   11   22 1   
    21   11   23 1   
    22   11   27 1   
    23   12   13 1   
    24   14   15 1   
    25   14   24 1   
    26   14   25 1   
@<TRIPOS>SUBSTRUCTURE
     1 40H         1 TEMP              0 ****  ****    0 ROOT
