@<TRIPOS>MOLECULE
40H
   27    26     1     0     0
SMALL
bcc


@<TRIPOS>ATOM
      1 O1          0.9620   -1.2960    0.6940 o         1 40H     -0.489000
      2 C7          6.4340    0.8770   -1.6940 c3        1 40H     -0.212000
      3 O2          3.3810   -2.3910   -4.4310 o         1 40H     -0.504000
      4 C6          5.2580    1.7610   -2.0390 c3        1 40H     -0.110000
      5 C1          2.4740   -0.7420   -2.9880 c2        1 40H     -0.170000
      6 C5          3.9660    1.0210   -1.9710 c2        1 40H     -0.179000
      7 C4          3.1690    1.1070   -0.8880 c2        1 40H     -0.089000
      8 C3          1.8130    0.4300   -0.7820 c3        1 40H     -0.199000
      9 C2          1.8310   -0.3800   -1.9330 c1        1 40H      0.219000
     10 C9          2.3150   -1.8730   -4.0190 c2        1 40H      0.398000
     11 N           2.0180   -4.0720   -6.3350 n3        1 40H     -0.388000
     12 C8          1.6760   -0.2780    0.6650 c2        1 40H      0.386000
     13 O           2.2640    0.3230    1.5880 o         1 40H     -0.489000
     14 C           3.6660    0.1940   -3.1900 c3        1 40H     -0.048000
     15 H2          6.5030    0.0160   -2.4020 hc        1 40H      0.077667
     16 H3          7.3830    1.4640   -1.7530 hc        1 40H      0.077667
     17 H4          6.3290    0.4720   -0.6590 hc        1 40H      0.077667
     18 H5          5.3910    2.1740   -3.0750 hc        1 40H      0.080000
     19 H6          5.2330    2.6340   -1.3330 hc        1 40H      0.080000
     20 H7          3.4280    1.6590    0.0310 ha        1 40H      0.184000
     21 H8          0.9830    1.1880   -0.7790 hc        1 40H      0.145000
     22 H10         1.1930   -4.0840   -5.7630 hn        1 40H      0.128000
     23 H11         2.1540   -3.1150   -6.6030 hn        1 40H      0.128000
     24 H13         3.4730    0.8540   -4.0750 hc        1 40H      0.135500
     25 H14         4.5270   -0.4920   -3.4330 hc        1 40H      0.135500
     26 O3          1.1480   -2.1430   -4.3790 o         1 40H     -0.504000
     27 HN3         2.7870   -4.3000   -5.7310 hn        1 40H      0.128000
@<TRIPOS>BOND
     1    1   12 1   
     2    2    4 1   
     3    2   15 1   
     4    2   16 1   
     5    2   17 1   
     6    3   10 1   
     7    4    6 1   
     8    4   18 1   
     9    4   19 1   
    10    5    9 1   
    11    5   10 1   
    12    5   14 1   
    13    6    7 1   
    14    6   14 1   
    15    7    8 1   
    16    7   20 1   
    17    8    9 1   
    18    8   12 1   
    19    8   21 1   
    20   10   26 1   
    21   11   22 1   
    22   11   23 1   
    23   11   27 1   
    24   12   13 1   
    25   14   24 1   
    26   14   25 1   
@<TRIPOS>SUBSTRUCTURE
     1 40H         1 TEMP              0 ****  ****    0 ROOT
