@<TRIPOS>MOLECULE
40K
   35    37     1     0     0
SMALL
bcc


@<TRIPOS>ATOM
      1 C10         0.0340   -0.1520   -0.0900 c2        1 40K     -0.040000
      2 C13        -1.3240   -0.9690   -3.4930 c2        1 40K     -0.214000
      3 C20        -4.5730    1.2930    2.1750 c2        1 40K     -0.198000
      4 C21        -5.7000    0.1810    4.0700 c1        1 40K      0.225000
      5 C22        -5.2050   -0.4170    5.1540 c2        1 40K     -0.288000
      6 C24        -3.8150   -0.6200    5.4850 c2        1 40K     -0.454000
      7 O01         0.7040    1.9130    5.3360 os        1 40K     -0.490000
      8 O03        -0.5130    3.0940    6.7840 o         1 40K     -0.452000
      9 C04        -1.5520    2.4050    4.6980 c3        1 40K     -0.222000
     10 C05        -1.3090    1.2390    3.7610 c3        1 40K     -0.260000
     11 S06         0.4900    1.1440    3.5990 s4        1 40K      0.569000
     12 C07         0.6070    0.4740    2.0270 c2        1 40K     -0.306000
     13 N08         1.7020    0.0290    1.3410 n2        1 40K     -0.140000
     14 N09         1.3650   -0.3360    0.1170 n2        1 40K     -0.062000
     15 C11        -0.7360   -0.4060   -1.2670 c2        1 40K     -0.436000
     16 C12        -0.2650   -0.8250   -2.4740 c2        1 40K     -0.052000
     17 C14        -2.5310   -0.6340   -3.0220 c1        1 40K     -0.594000
     18 S15        -2.4730   -0.2680   -1.3780 s4        1 40K      1.019000
     19 N16        -0.5210    0.3430    1.1490 na        1 40K     -0.160000
     20 N17        -1.7350    0.8510    1.3140 n2        1 40K     -0.056000
     21 C18        -2.1090    1.2990    2.4950 c2        1 40K     -0.044000
     22 C19        -3.4570    1.8790    2.6160 c2        1 40K     -0.121000
     23 C25        -3.1180   -1.7360    5.4180 c1        1 40K      0.261000
     24 H1         -1.0840   -1.3290   -4.4940 ha        1 40K      0.151000
     25 H2         -5.5530    1.7860    2.2550 ha        1 40K      0.125500
     26 H3         -4.5810    0.3130    1.6790 ha        1 40K      0.125500
     27 H4         -3.2760    0.2850    5.8620 ha        1 40K      0.221000
     28 H6         -1.5890    3.3720    4.1330 hc        1 40K      0.096000
     29 H7         -2.5190    2.2860    5.2470 hc        1 40K      0.096000
     30 H8         -1.6270    0.2900    4.2800 h1        1 40K      0.106000
     31 H9          0.7800   -1.0600   -2.6970 ha        1 40K      0.165000
     32 H10        -2.6150    1.0380   -1.3920 hs        1 40K     -0.035000
     33 H11        -3.4800    2.8650    3.1120 ha        1 40K      0.142000
     34 C02        -0.4010    2.4970    5.6960 c2        1 40K      0.318000
     35 Cl23       -6.3640   -0.9830    6.2890 cl        1 40K      0.004000
@<TRIPOS>BOND
     1    1   14 1   
     2    1   15 1   
     3    1   19 1   
     4    2   16 1   
     5    2   17 1   
     6    2   24 1   
     7    3   22 1   
     8    3   25 1   
     9    3   26 1   
    10    4    5 1   
    11    5    6 1   
    12    5   35 1   
    13    6   23 1   
    14    6   27 1   
    15    7   11 1   
    16    7   34 1   
    17    8   34 1   
    18    9   10 1   
    19    9   28 1   
    20    9   29 1   
    21    9   34 1   
    22   10   11 1   
    23   10   21 1   
    24   10   30 1   
    25   11   12 1   
    26   12   13 1   
    27   12   19 1   
    28   13   14 1   
    29   15   16 1   
    30   15   18 1   
    31   16   31 1   
    32   17   18 1   
    33   18   32 1   
    34   19   20 1   
    35   20   21 1   
    36   21   22 1   
    37   22   33 1   
@<TRIPOS>SUBSTRUCTURE
     1 40K         1 TEMP              0 ****  ****    0 ROOT
