@<TRIPOS>MOLECULE
40K
   35    38     1     0     0
SMALL
bcc


@<TRIPOS>ATOM
      1 C10         0.0110    0.0260   -0.2160 cc        1 40K      0.481000
      2 C13        -1.6740    0.1870   -3.5060 cd        1 40K     -0.168000
      3 C20        -4.0300   -0.5940    2.9370 ca        1 40K     -0.084000
      4 C21        -5.3070   -0.7360    3.4730 ca        1 40K     -0.145000
      5 C22        -5.6500   -0.0320    4.6310 ca        1 40K      0.030400
      6 C24        -4.7210    0.8030    5.2540 ca        1 40K     -0.145000
      7 O01        -1.0220    2.0930    6.3400 o         1 40K     -0.828300
      8 O03        -0.1730    4.0340    5.6230 o         1 40K     -0.828300
      9 C04        -0.4890    2.3100    3.9880 c3        1 40K     -0.214400
     10 C05        -0.6300    0.8020    3.9240 c3        1 40K     -0.091900
     11 S06         0.9380    0.0150    3.5420 ss        1 40K     -0.158400
     12 C07         0.8870   -0.0070    1.8670 cc        1 40K      0.412800
     13 N08         1.8750   -0.2130    0.9440 nd        1 40K     -0.339000
     14 N09         1.3620   -0.1920   -0.2680 nd        1 40K     -0.344000
     15 C11        -0.9110    0.1370   -1.3100 cc        1 40K     -0.151600
     16 C12        -0.5470    0.0400   -2.6480 cd        1 40K     -0.131000
     17 C14        -2.8360    0.3910   -2.7860 cc        1 40K     -0.208100
     18 S15        -2.5640    0.4000   -1.1490 ss        1 40K      0.118200
     19 N16        -0.3440    0.1750    1.1620 na        1 40K     -0.119600
     20 N17        -1.5740    0.1720    1.6860 n2        1 40K     -0.541100
     21 C18        -1.7310    0.3950    2.9810 ce        1 40K      0.475900
     22 C19        -3.0870    0.2490    3.5490 ca        1 40K     -0.142900
     23 C25        -3.4410    0.9410    4.7160 ca        1 40K     -0.084000
     24 H1         -1.6070    0.1430   -4.5940 ha        1 40K      0.145000
     25 H2         -3.7720   -1.1580    2.0280 ha        1 40K      0.185500
     26 H3         -6.0360   -1.3990    2.9870 ha        1 40K      0.146500
     27 H4         -4.9830    1.3520    6.1720 ha        1 40K      0.146500
     28 H6         -1.3050    2.8120    3.4090 hc        1 40K      0.056700
     29 H7          0.4890    2.6290    3.5480 hc        1 40K      0.056700
     30 H8         -0.8470    0.4280    4.9740 h1        1 40K      0.162700
     31 H9          0.4730   -0.1280   -3.0020 ha        1 40K      0.167000
     32 H10        -3.8230    0.5330   -3.2220 h4        1 40K      0.163000
     33 H11        -2.7050    1.5950    5.2390 ha        1 40K      0.185500
     34 C02        -0.5590    2.8520    5.4360 c         1 40K      0.912600
     35 CL23       -7.2150   -0.2030    5.2850 cl        1 40K     -0.119400
@<TRIPOS>BOND
     1    1   14 2   
     2    1   15 1   
     3    1   19 1   
     4    2   16 1   
     5    2   17 2   
     6    2   24 1   
     7    3    4 ar  
     8    3   22 ar  
     9    3   25 1   
    10    4    5 ar  
    11    4   26 1   
    12    5    6 ar  
    13    5   35 1   
    14    6   23 ar  
    15    6   27 1   
    16    7   34 1   
    17    8   34 1   
    18    9   10 1   
    19    9   28 1   
    20    9   29 1   
    21    9   34 1   
    22   10   11 1   
    23   10   21 1   
    24   10   30 1   
    25   11   12 1   
    26   12   13 2   
    27   12   19 1   
    28   13   14 1   
    29   15   16 2   
    30   15   18 1   
    31   16   31 1   
    32   17   18 1   
    33   17   32 1   
    34   19   20 1   
    35   20   21 2   
    36   21   22 1   
    37   22   23 ar  
    38   23   33 1   
@<TRIPOS>SUBSTRUCTURE
     1 40K         1 TEMP              0 ****  ****    0 ROOT
