@<TRIPOS>MOLECULE
40L
   49    53     1     0     0
SMALL
bcc


@<TRIPOS>ATOM
      1 C13         0.1230   -0.1900    0.2210 ca        1 40L     -0.107000
      2 C15         0.3100    0.1090    2.6140 ca        1 40L     -0.114000
      3 C17         2.2670    0.3880    1.2180 ca        1 40L     -0.107000
      4 C20         0.7350    3.1270   -2.1860 c3        1 40L     -0.103400
      5 C21         0.0230    4.2890   -1.5470 c3        1 40L     -0.097100
      6 C24         4.3070    5.3150   -0.2380 ca        1 40L     -0.367800
      7 C01         4.1480   -2.2690   -5.0040 ca        1 40L     -0.200000
      8 C02         4.3410   -1.0310   -5.6180 ca        1 40L     -0.068000
      9 C03         3.9400    0.1470   -5.0090 ca        1 40L     -0.147000
     10 C04         3.3200    0.1100   -3.7360 ca        1 40L      0.213400
     11 C05         3.1170   -1.1430   -3.1000 ca        1 40L     -0.233600
     12 C06         3.5360   -2.3320   -3.7430 ca        1 40L      0.205900
     13 F07         3.3520   -3.5330   -3.1560 f         1 40L     -0.109900
     14 N08         2.9170    1.3010   -3.1270 nc        1 40L     -0.650100
     15 C09         2.4700   -1.1820   -1.7750 c         1 40L      0.713100
     16 O10         2.2420   -2.2270   -1.1470 o         1 40L     -0.578500
     17 N11         2.1000    0.0750   -1.2200 n         1 40L     -0.317500
     18 C12         1.4940    0.1020    0.0750 ca        1 40L      0.016600
     19 C14        -0.4560   -0.1830    1.4870 ca        1 40L     -0.124000
     20 C16         1.6680    0.3920    2.4760 ca        1 40L     -0.124000
     21 C18         2.3450    1.2540   -1.9380 cd        1 40L      0.510900
     22 C19         1.8930    2.6110   -1.3140 c3        1 40L      0.183200
     23 N22         3.0460    3.4820   -1.2280 nu        1 40L     -0.839900
     24 C23         3.1760    4.4370   -0.2120 ca        1 40L      0.696200
     25 C25         4.4940    6.2670    0.8590 ca        1 40L      0.574300
     26 N26         3.6170    6.3290    1.9060 nb        1 40L     -0.654000
     27 C27         2.6040    5.4450    1.8170 ca        1 40L      0.646900
     28 N28         2.3210    4.5250    0.8450 nb        1 40L     -0.757000
     29 N29         5.3630    5.5250   -1.1260 na        1 40L     -0.261300
     30 C30         6.1500    6.5380   -0.5550 cc        1 40L      0.436700
     31 N31         5.6700    7.0190    0.6060 nd        1 40L     -0.625700
     32 H1         -0.4910   -0.4390   -0.6580 ha        1 40L      0.145500
     33 H2         -0.1540    0.1110    3.6120 ha        1 40L      0.138000
     34 H3          3.3420    0.6090    1.1250 ha        1 40L      0.145500
     35 H4          1.1130    3.4210   -3.2000 hc        1 40L      0.057700
     36 H5          0.0140    2.2800   -2.3310 hc        1 40L      0.057700
     37 H6         -0.3220    4.0290   -0.5160 hc        1 40L      0.042700
     38 H7          0.6940    5.1790   -1.4740 hc        1 40L      0.042700
     39 H8         -0.8680    4.5720   -2.1590 hc        1 40L      0.042700
     40 H9          4.4700   -3.1980   -5.4960 ha        1 40L      0.156000
     41 H10         4.8220   -0.9950   -6.6090 ha        1 40L      0.143000
     42 H11         4.0990    1.1140   -5.5100 ha        1 40L      0.153000
     43 H12        -1.5260   -0.4150    1.5940 ha        1 40L      0.140000
     44 H13         2.2770    0.6190    3.3640 ha        1 40L      0.140000
     45 H14         1.4970    2.4270   -0.2700 h1        1 40L      0.117700
     46 H15         3.3870    3.7870   -2.1160 hn        1 40L      0.422800
     47 H16         1.8730    5.4630    2.6540 h5        1 40L      0.056100
     48 H17         5.5990    4.9510   -1.8910 hn        1 40L      0.312700
     49 H18         7.0630    6.9010   -1.0460 h5        1 40L      0.075800
@<TRIPOS>BOND
     1    1   18 ar  
     2    1   19 ar  
     3    1   32 1   
     4    2   19 ar  
     5    2   20 ar  
     6    2   33 1   
     7    3   18 ar  
     8    3   20 ar  
     9    3   34 1   
    10    4    5 1   
    11    4   22 1   
    12    4   35 1   
    13    4   36 1   
    14    5   37 1   
    15    5   38 1   
    16    5   39 1   
    17    6   24 ar  
    18    6   25 ar  
    19    6   29 1   
    20    7    8 ar  
    21    7   12 ar  
    22    7   40 1   
    23    8    9 ar  
    24    8   41 1   
    25    9   10 ar  
    26    9   42 1   
    27   10   11 ar  
    28   10   14 1   
    29   11   12 ar  
    30   11   15 1   
    31   12   13 1   
    32   14   21 2   
    33   15   16 2   
    34   15   17 1   
    35   17   18 1   
    36   17   21 1   
    37   19   43 1   
    38   20   44 1   
    39   21   22 1   
    40   22   23 1   
    41   22   45 1   
    42   23   24 1   
    43   23   46 1   
    44   24   28 ar  
    45   25   26 ar  
    46   25   31 1   
    47   26   27 ar  
    48   27   28 ar  
    49   27   47 1   
    50   29   30 1   
    51   29   48 1   
    52   30   31 2   
    53   30   49 1   
@<TRIPOS>SUBSTRUCTURE
     1 40L         1 TEMP              0 ****  ****    0 ROOT
