@<TRIPOS>MOLECULE
40L
   49    53     1     0     0
SMALL
bcc


@<TRIPOS>ATOM
      1 C13         0.1340   -0.1940    0.2310 ca        1 40L     -0.107500
      2 C15         0.3270    0.1070    2.6240 ca        1 40L     -0.114000
      3 C17         2.2790    0.3890    1.2220 ca        1 40L     -0.107500
      4 C20         0.7280    3.1190   -2.1820 c3        1 40L     -0.103400
      5 C21         0.0130    4.2790   -1.5420 c3        1 40L     -0.097100
      6 C24         4.2980    5.3230   -0.2500 ca        1 40L     -0.367800
      7 C01         4.1510   -2.2700   -5.0010 ca        1 40L     -0.200000
      8 C02         4.3380   -1.0320   -5.6180 ca        1 40L     -0.068000
      9 C03         3.9350    0.1460   -5.0100 ca        1 40L     -0.147000
     10 C04         3.3190    0.1080   -3.7350 ca        1 40L      0.213400
     11 C05         3.1220   -1.1440   -3.0970 ca        1 40L     -0.233600
     12 C06         3.5430   -2.3330   -3.7390 ca        1 40L      0.205900
     13 F07         3.3650   -3.5340   -3.1490 f         1 40L     -0.109900
     14 N08         2.9140    1.2990   -3.1270 nc        1 40L     -0.650100
     15 C09         2.4800   -1.1840   -1.7700 c         1 40L      0.713100
     16 O10         2.2570   -2.2280   -1.1390 o         1 40L     -0.578500
     17 N11         2.1070    0.0730   -1.2160 n         1 40L     -0.317500
     18 C12         1.5040    0.1010    0.0810 ca        1 40L      0.016600
     19 C14        -0.4420   -0.1870    1.4990 ca        1 40L     -0.124000
     20 C16         1.6840    0.3940    2.4810 ca        1 40L     -0.124000
     21 C18         2.3460    1.2520   -1.9360 cd        1 40L      0.510900
     22 C19         1.8910    2.6080   -1.3130 c3        1 40L      0.183200
     23 N22         3.0400    3.4840   -1.2320 nh        1 40L     -0.839900
     24 C23         3.1710    4.4400   -0.2180 ca        1 40L      0.696200
     25 C25         4.4850    6.2770    0.8460 ca        1 40L      0.574300
     26 N26         3.6120    6.3370    1.8950 nb        1 40L     -0.654000
     27 C27         2.6020    5.4490    1.8110 ca        1 40L      0.646900
     28 N28         2.3190    4.5270    0.8420 nb        1 40L     -0.757000
     29 N29         5.3490    5.5360   -1.1410 na        1 40L     -0.261300
     30 C30         6.1350    6.5520   -0.5750 cc        1 40L      0.436700
     31 N31         5.6570    7.0340    0.5870 nd        1 40L     -0.625700
     32 H1         -0.4830   -0.4450   -0.6460 ha        1 40L      0.145000
     33 H2         -0.1350    0.1100    3.6220 ha        1 40L      0.138000
     34 H3          3.3530    0.6110    1.1260 ha        1 40L      0.145000
     35 H4          1.1010    3.4120   -3.1980 hc        1 40L      0.057700
     36 H5          0.0090    2.2680   -2.3240 hc        1 40L      0.057700
     37 H6          0.6810    5.1710   -1.4730 hc        1 40L      0.043033
     38 H7         -0.3270    4.0190   -0.5110 hc        1 40L      0.043033
     39 H8         -0.8810    4.5570   -2.1520 hc        1 40L      0.043033
     40 H9          4.4750   -3.1990   -5.4940 ha        1 40L      0.156000
     41 H10         4.8160   -0.9960   -6.6110 ha        1 40L      0.143000
     42 H11         4.0890    1.1120   -5.5130 ha        1 40L      0.153000
     43 H12        -1.5120   -0.4210    1.6090 ha        1 40L      0.140000
     44 H13         2.2950    0.6230    3.3670 ha        1 40L      0.140000
     45 H14         1.4990    2.4250   -0.2670 h1        1 40L      0.117700
     46 H15         3.3780    3.7880   -2.1220 hn        1 40L      0.422800
     47 H16         1.8740    5.4660    2.6510 h5        1 40L      0.056100
     48 H17         5.5850    4.9620   -1.9060 hn        1 40L      0.312700
     49 H18         7.0450    6.9190   -1.0690 h5        1 40L      0.075800
@<TRIPOS>BOND
     1    1   18 ar  
     2    1   19 ar  
     3    1   32 1   
     4    2   19 ar  
     5    2   20 ar  
     6    2   33 1   
     7    3   18 ar  
     8    3   20 ar  
     9    3   34 1   
    10    4    5 1   
    11    4   22 1   
    12    4   35 1   
    13    4   36 1   
    14    5   37 1   
    15    5   38 1   
    16    5   39 1   
    17    6   24 ar  
    18    6   25 ar  
    19    6   29 1   
    20    7    8 ar  
    21    7   12 ar  
    22    7   40 1   
    23    8    9 ar  
    24    8   41 1   
    25    9   10 ar  
    26    9   42 1   
    27   10   11 ar  
    28   10   14 1   
    29   11   12 ar  
    30   11   15 1   
    31   12   13 1   
    32   14   21 2   
    33   15   16 2   
    34   15   17 1   
    35   17   18 1   
    36   17   21 1   
    37   19   43 1   
    38   20   44 1   
    39   21   22 1   
    40   22   23 1   
    41   22   45 1   
    42   23   24 1   
    43   23   46 1   
    44   24   28 ar  
    45   25   26 ar  
    46   25   31 1   
    47   26   27 ar  
    48   27   28 ar  
    49   27   47 1   
    50   29   30 1   
    51   29   48 1   
    52   30   31 2   
    53   30   49 1   
@<TRIPOS>SUBSTRUCTURE
     1 40L         1 TEMP              0 ****  ****    0 ROOT
