@<TRIPOS>MOLECULE
40M
   57    60     1     0     0
SMALL
bcc


@<TRIPOS>ATOM
      1 O          -0.7120    0.2770    0.0560 o         1 40M     -0.606100
      2 C6          0.3990   -0.2720    0.2090 c         1 40M      0.663300
      3 C7          0.9060   -0.6580    1.5530 ce        1 40M     -0.242200
      4 C8          0.1680   -0.4530    2.6450 c2        1 40M     -0.122000
      5 N           1.2410   -0.5230   -0.8680 n         1 40M     -0.479100
      6 C4          0.8730   -0.3670   -2.2240 ca        1 40M      0.040600
      7 C5          0.9110   -1.4900   -3.0760 ca        1 40M     -0.161000
      8 C3          0.6000   -1.3620   -4.4240 ca        1 40M     -0.109000
      9 C1          0.2380   -0.1250   -4.9460 ca        1 40M     -0.141000
     10 C           0.1890    1.0100   -4.1330 ca        1 40M     -0.024300
     11 C25        -0.1980    2.3130   -4.7250 c3        1 40M     -0.051800
     12 C2          0.5140    0.9050   -2.7600 ca        1 40M      0.125600
     13 N1          0.4330    2.0640   -1.9400 nh        1 40M     -0.706300
     14 C12         1.6090    2.7840   -1.6440 ca        1 40M      0.873900
     15 N3          2.6970    2.6680   -2.5500 nb        1 40M     -0.715000
     16 C11         3.7390    3.4370   -2.3150 ca        1 40M      0.480200
     17 C9          3.8240    4.3530   -1.2130 ca        1 40M     -0.319600
     18 C13         4.9470    5.1730   -0.9760 ca        1 40M     -0.044000
     19 N2          1.5900    3.5990   -0.5490 nb        1 40M     -0.752000
     20 C10         2.6930    4.3930   -0.3420 ca        1 40M      0.466600
     21 C15         2.7400    5.2890    0.7760 ca        1 40M     -0.194300
     22 C16         3.8440    6.0760    0.9840 ca        1 40M     -0.071000
     23 C14         4.9630    6.0260    0.1080 cp        1 40M     -0.075000
     24 C22         6.1210    6.8890    0.3750 cp        1 40M      0.032000
     25 C21         7.1680    6.4250    1.1880 ca        1 40M     -0.031600
     26 CL1         7.0880    4.8640    1.8530 cl        1 40M     -0.056900
     27 C20         6.1770    8.1780   -0.1800 ca        1 40M     -0.031600
     28 CL          4.9030    8.7270   -1.1590 cl        1 40M     -0.056900
     29 C18         7.2920    9.0020    0.0840 ca        1 40M      0.166600
     30 O1          7.2780   10.2540   -0.4950 os        1 40M     -0.308900
     31 C23         8.3920   11.0970   -0.2250 c3        1 40M      0.112700
     32 C17         8.3380    8.5460    0.8930 ca        1 40M     -0.271000
     33 C19         8.2760    7.2610    1.4420 ca        1 40M      0.166600
     34 O2          9.2660    6.7380    2.2470 os        1 40M     -0.308900
     35 C24        10.3820    7.5790    2.5200 c3        1 40M      0.112700
     36 H1          1.9090   -1.1070    1.6090 ha        1 40M      0.133000
     37 H3         -0.8330    0.0040    2.5970 ha        1 40M      0.132000
     38 H4          0.5230   -0.7270    3.6480 ha        1 40M      0.132000
     39 H6          2.0340   -1.1040   -0.7110 hn        1 40M      0.316500
     40 H7          1.1910   -2.4770   -2.6770 ha        1 40M      0.132000
     41 H8          0.6380   -2.2460   -5.0780 ha        1 40M      0.134000
     42 H9         -0.0120   -0.0350   -6.0140 ha        1 40M      0.137000
     43 H10        -0.4410    2.2070   -5.8110 hc        1 40M      0.051700
     44 H11         0.6390    3.0490   -4.6200 hc        1 40M      0.051700
     45 H12        -1.0960    2.7290   -4.2010 hc        1 40M      0.051700
     46 H13        -0.2210    1.9780   -1.1790 hn        1 40M      0.463800
     47 H14         4.5880    3.3490   -3.0210 h4        1 40M      0.026100
     48 H15         5.8030    5.1200   -1.6670 ha        1 40M      0.141000
     49 H16         1.8780    5.3370    1.4590 ha        1 40M      0.154000
     50 H17         3.8770    6.7650    1.8430 ha        1 40M      0.142000
     51 H18         8.1440   12.0320   -0.7900 h1        1 40M      0.048367
     52 H19         9.3360   10.6430   -0.6130 h1        1 40M      0.048367
     53 H20         8.4740   11.3080    0.8680 h1        1 40M      0.048367
     54 H21         9.2030    9.1920    1.0940 ha        1 40M      0.151000
     55 H22        10.0590    8.5040    3.0560 h1        1 40M      0.048367
     56 H23        11.0230    6.9410    3.1820 h1        1 40M      0.048367
     57 H24        10.9230    7.8350    1.5770 h1        1 40M      0.048367
@<TRIPOS>BOND
     1    1    2 2   
     2    2    3 1   
     3    2    5 1   
     4    3    4 2   
     5    3   36 1   
     6    4   37 1   
     7    4   38 1   
     8    5    6 1   
     9    5   39 1   
    10    6    7 ar  
    11    6   12 ar  
    12    7    8 ar  
    13    7   40 1   
    14    8    9 ar  
    15    8   41 1   
    16    9   10 ar  
    17    9   42 1   
    18   10   11 1   
    19   10   12 ar  
    20   11   43 1   
    21   11   44 1   
    22   11   45 1   
    23   12   13 1   
    24   13   14 1   
    25   13   46 1   
    26   14   15 ar  
    27   14   19 ar  
    28   15   16 ar  
    29   16   17 ar  
    30   16   47 1   
    31   17   18 ar  
    32   17   20 ar  
    33   18   23 ar  
    34   18   48 1   
    35   19   20 ar  
    36   20   21 ar  
    37   21   22 ar  
    38   21   49 1   
    39   22   23 ar  
    40   22   50 1   
    41   23   24 1   
    42   24   25 ar  
    43   24   27 ar  
    44   25   26 1   
    45   25   33 ar  
    46   27   28 1   
    47   27   29 ar  
    48   29   30 1   
    49   29   32 ar  
    50   30   31 1   
    51   31   51 1   
    52   31   52 1   
    53   31   53 1   
    54   32   33 ar  
    55   32   54 1   
    56   33   34 1   
    57   34   35 1   
    58   35   55 1   
    59   35   56 1   
    60   35   57 1   
@<TRIPOS>SUBSTRUCTURE
     1 40M         1 TEMP              0 ****  ****    0 ROOT
