@<TRIPOS>MOLECULE
40M
   57    60     1     0     0
SMALL
bcc


@<TRIPOS>ATOM
      1 O          -0.7210    0.2870    0.0520 o         1 40M     -0.606100
      2 C6          0.3880   -0.2630    0.2130 c         1 40M      0.663300
      3 C7          0.8880   -0.6420    1.5620 ce        1 40M     -0.242200
      4 C8          0.1450   -0.4290    2.6490 c2        1 40M     -0.122000
      5 N           1.2350   -0.5200   -0.8580 ns        1 40M     -0.479100
      6 C4          0.8740   -0.3710   -2.2160 ca        1 40M      0.040600
      7 C5          0.9150   -1.4980   -3.0620 ca        1 40M     -0.161000
      8 C3          0.6120   -1.3770   -4.4120 ca        1 40M     -0.109000
      9 C1          0.2540   -0.1420   -4.9430 ca        1 40M     -0.141000
     10 C           0.2020    0.9980   -4.1360 ca        1 40M     -0.024300
     11 C25        -0.1800    2.2990   -4.7370 c3        1 40M     -0.051800
     12 C2          0.5200    0.8990   -2.7610 ca        1 40M      0.125600
     13 N1          0.4360    2.0620   -1.9470 nu        1 40M     -0.707300
     14 C12         1.6130    2.7830   -1.6490 ca        1 40M      0.873900
     15 N3          2.7040    2.6600   -2.5490 nb        1 40M     -0.715000
     16 C11         3.7470    3.4280   -2.3120 ca        1 40M      0.480200
     17 C9          3.8280    4.3500   -1.2140 ca        1 40M     -0.319600
     18 C13         4.9510    5.1700   -0.9760 ca        1 40M     -0.044000
     19 N2          1.5890    3.6030   -0.5590 nb        1 40M     -0.752000
     20 C10         2.6910    4.3960   -0.3490 ca        1 40M      0.466600
     21 C15         2.7340    5.2990    0.7630 ca        1 40M     -0.194300
     22 C16         3.8380    6.0850    0.9730 ca        1 40M     -0.071000
     23 C14         4.9610    6.0280    0.1040 cp        1 40M     -0.075000
     24 C22         6.1200    6.8910    0.3720 cp        1 40M      0.032000
     25 C21         7.1610    6.4310    1.1950 ca        1 40M     -0.031600
     26 Cl1         7.0730    4.8750    1.8700 cl        1 40M     -0.056900
     27 C20         6.1820    8.1760   -0.1910 ca        1 40M     -0.031600
     28 Cl          4.9150    8.7210   -1.1820 cl        1 40M     -0.056900
     29 C18         7.2960    9.0000    0.0750 ca        1 40M      0.166600
     30 O1          7.2890   10.2470   -0.5130 os        1 40M     -0.308900
     31 C23         8.4030   11.0910   -0.2420 c3        1 40M      0.112700
     32 C17         8.3360    8.5470    0.8930 ca        1 40M     -0.271000
     33 C19         8.2690    7.2670    1.4510 ca        1 40M      0.166600
     34 O2          9.2520    6.7470    2.2660 os        1 40M     -0.308900
     35 C24        10.3680    7.5870    2.5400 c3        1 40M      0.112700
     36 H1          1.8900   -1.0930    1.6250 ha        1 40M      0.133000
     37 H3         -0.8550    0.0290    2.5940 ha        1 40M      0.132000
     38 H4          0.4950   -0.6980    3.6550 ha        1 40M      0.132000
     39 H6          2.0260   -1.1010   -0.6940 hn        1 40M      0.316500
     40 H7          1.1910   -2.4830   -2.6570 ha        1 40M      0.132000
     41 H8          0.6510   -2.2640   -5.0620 ha        1 40M      0.134000
     42 H9          0.0090   -0.0570   -6.0130 ha        1 40M      0.137000
     43 H10        -0.4170    2.1870   -5.8230 hc        1 40M      0.051700
     44 H11         0.6570    3.0340   -4.6310 hc        1 40M      0.051700
     45 H12        -1.0790    2.7180   -4.2200 hc        1 40M      0.051700
     46 H13        -0.2220    1.9810   -1.1890 hn        1 40M      0.463800
     47 H14         4.5990    3.3350   -3.0130 h4        1 40M      0.026100
     48 H15         5.8100    5.1120   -1.6610 ha        1 40M      0.141000
     49 H16         1.8680    5.3520    1.4420 ha        1 40M      0.154000
     50 H17         3.8680    6.7790    1.8280 ha        1 40M      0.142000
     51 H18         8.1600   12.0220   -0.8150 h1        1 40M      0.048367
     52 H19         9.3480   10.6310   -0.6210 h1        1 40M      0.048367
     53 H20         8.4780   11.3090    0.8510 h1        1 40M      0.048367
     54 H21         9.2010    9.1930    1.0960 ha        1 40M      0.151000
     55 H22        10.9160    7.8370    1.5990 h1        1 40M      0.048367
     56 H23        11.0030    6.9530    3.2100 h1        1 40M      0.048367
     57 H24        10.0430    8.5160    3.0680 h1        1 40M      0.048367
@<TRIPOS>BOND
     1    1    2 2   
     2    2    3 1   
     3    2    5 1   
     4    3    4 2   
     5    3   36 1   
     6    4   37 1   
     7    4   38 1   
     8    5    6 1   
     9    5   39 1   
    10    6    7 ar  
    11    6   12 ar  
    12    7    8 ar  
    13    7   40 1   
    14    8    9 ar  
    15    8   41 1   
    16    9   10 ar  
    17    9   42 1   
    18   10   11 1   
    19   10   12 ar  
    20   11   43 1   
    21   11   44 1   
    22   11   45 1   
    23   12   13 1   
    24   13   14 1   
    25   13   46 1   
    26   14   15 ar  
    27   14   19 ar  
    28   15   16 ar  
    29   16   17 ar  
    30   16   47 1   
    31   17   18 ar  
    32   17   20 ar  
    33   18   23 ar  
    34   18   48 1   
    35   19   20 ar  
    36   20   21 ar  
    37   21   22 ar  
    38   21   49 1   
    39   22   23 ar  
    40   22   50 1   
    41   23   24 1   
    42   24   25 ar  
    43   24   27 ar  
    44   25   26 1   
    45   25   33 ar  
    46   27   28 1   
    47   27   29 ar  
    48   29   30 1   
    49   29   32 ar  
    50   30   31 1   
    51   31   51 1   
    52   31   52 1   
    53   31   53 1   
    54   32   33 ar  
    55   32   54 1   
    56   33   34 1   
    57   34   35 1   
    58   35   55 1   
    59   35   56 1   
    60   35   57 1   
@<TRIPOS>SUBSTRUCTURE
     1 40M         1 TEMP              0 ****  ****    0 ROOT
