@<TRIPOS>MOLECULE
40N
   31    34     1     0     0
SMALL
bcc


@<TRIPOS>ATOM
      1 FAB         0.0470    0.3670    0.1110 f         1 40N     -0.140900
      2 CAN         1.3900    0.1910    0.0510 ca        1 40N      0.136900
      3 CAE         2.1240    0.1700    1.2530 ca        1 40N     -0.164000
      4 CAC         3.5020   -0.0060    1.2180 ca        1 40N     -0.090000
      5 CAD         4.1600   -0.1620   -0.0030 ca        1 40N     -0.143000
      6 CAF         3.4390   -0.1460   -1.1930 ca        1 40N     -0.077000
      7 CAR         2.0470    0.0260   -1.1880 ca        1 40N     -0.113800
      8 CAO         1.3290    0.0030   -2.4770 cc        1 40N      0.216800
      9 CAG         1.6500   -0.9180   -3.4350 cd        1 40N     -0.307200
     10 CAS         0.9720   -0.9560   -4.7250 c         1 40N      0.587900
     11 OAA         1.2690   -1.7820   -5.6050 o         1 40N     -0.570100
     12 CAU        -0.0880    0.0480   -4.9120 ca        1 40N     -0.213600
     13 CAI        -0.8020    0.0600   -6.1360 ca        1 40N     -0.028000
     14 CAQ        -1.7880    1.0030   -6.2710 ca        1 40N      0.008100
     15 OAM        -2.6360    1.2360   -7.3540 os        1 40N     -0.327900
     16 CAJ        -3.4910    2.3380   -6.9840 c3        1 40N      0.321200
     17 OAL        -3.1250    2.7570   -5.6450 os        1 40N     -0.332900
     18 CAP        -2.0900    1.9320   -5.2340 ca        1 40N      0.120100
     19 CAH        -1.4190    1.9500   -4.0370 ca        1 40N     -0.189000
     20 CAT        -0.3820    0.9740   -3.8800 ca        1 40N      0.197600
     21 NAK         0.3500    0.9630   -2.6970 na        1 40N     -0.603400
     22 H1          1.5920    0.2920    2.2090 ha        1 40N      0.155000
     23 H2          4.0740   -0.0210    2.1590 ha        1 40N      0.144000
     24 H3          5.2520   -0.2980   -0.0260 ha        1 40N      0.146000
     25 H4          3.9610   -0.2690   -2.1560 ha        1 40N      0.154000
     26 H5          2.4310   -1.6710   -3.2570 ha        1 40N      0.164000
     27 H6         -0.5510   -0.6690   -6.9210 ha        1 40N      0.183000
     28 H7         -4.5510    1.9820   -6.9650 h2        1 40N      0.074700
     29 H8         -3.3040    3.1900   -7.6830 h2        1 40N      0.074700
     30 H9         -1.6630    2.6710   -3.2470 ha        1 40N      0.160000
     31 H10         0.0650    1.5510   -1.9470 hn        1 40N      0.457800
@<TRIPOS>BOND
     1    1    2 1   
     2    2    3 ar  
     3    2    7 ar  
     4    3    4 ar  
     5    3   22 1   
     6    4    5 ar  
     7    4   23 1   
     8    5    6 ar  
     9    5   24 1   
    10    6    7 ar  
    11    6   25 1   
    12    7    8 1   
    13    8    9 2   
    14    8   21 1   
    15    9   10 1   
    16    9   26 1   
    17   10   11 2   
    18   10   12 1   
    19   12   13 ar  
    20   12   20 ar  
    21   13   14 ar  
    22   13   27 1   
    23   14   15 1   
    24   14   18 ar  
    25   15   16 1   
    26   16   17 1   
    27   16   28 1   
    28   16   29 1   
    29   17   18 1   
    30   18   19 ar  
    31   19   20 ar  
    32   19   30 1   
    33   20   21 1   
    34   21   31 1   
@<TRIPOS>SUBSTRUCTURE
     1 40N         1 TEMP              0 ****  ****    0 ROOT
