@<TRIPOS>MOLECULE
40N
   31    34     1     0     0
SMALL
bcc


@<TRIPOS>ATOM
      1 FAB         0.0460    0.3610    0.1110 f         1 40N     -0.140900
      2 CAN         1.3890    0.1880    0.0510 ca        1 40N      0.136900
      3 CAE         2.1230    0.1660    1.2530 ca        1 40N     -0.164000
      4 CAC         3.5020   -0.0070    1.2180 ca        1 40N     -0.090000
      5 CAD         4.1610   -0.1600   -0.0020 ca        1 40N     -0.143000
      6 CAF         3.4390   -0.1430   -1.1930 ca        1 40N     -0.077000
      7 CAR         2.0480    0.0260   -1.1880 ca        1 40N     -0.113800
      8 CAO         1.3290    0.0040   -2.4770 cc        1 40N      0.216800
      9 CAG         1.6540   -0.9150   -3.4370 cd        1 40N     -0.307200
     10 CAS         0.9760   -0.9520   -4.7280 c         1 40N      0.587900
     11 OAA         1.2750   -1.7760   -5.6090 o         1 40N     -0.570100
     12 CAU        -0.0860    0.0500   -4.9130 ca        1 40N     -0.213600
     13 CAI        -0.8000    0.0630   -6.1370 ca        1 40N     -0.028000
     14 CAQ        -1.7880    1.0030   -6.2710 ca        1 40N      0.008100
     15 OAM        -2.6360    1.2370   -7.3540 os        1 40N     -0.327900
     16 CAJ        -3.4940    2.3370   -6.9820 c3        1 40N      0.321200
     17 OAL        -3.1290    2.7540   -5.6430 os        1 40N     -0.332900
     18 CAP        -2.0920    1.9300   -5.2320 ca        1 40N      0.120100
     19 CAH        -1.4220    1.9480   -4.0360 ca        1 40N     -0.189000
     20 CAT        -0.3830    0.9740   -3.8800 ca        1 40N      0.197600
     21 NAK         0.3490    0.9620   -2.6970 na        1 40N     -0.603400
     22 H1          1.5910    0.2850    2.2090 ha        1 40N      0.155000
     23 H2          4.0730   -0.0230    2.1590 ha        1 40N      0.144000
     24 H3          5.2530   -0.2940   -0.0260 ha        1 40N      0.146000
     25 H4          3.9620   -0.2640   -2.1560 ha        1 40N      0.154000
     26 H5          2.4360   -1.6660   -3.2600 ha        1 40N      0.164000
     27 H6         -0.5470   -0.6650   -6.9230 ha        1 40N      0.183000
     28 H7         -3.3080    3.1900   -7.6800 h2        1 40N      0.074700
     29 H8         -4.5520    1.9780   -6.9640 h2        1 40N      0.074700
     30 H9         -1.6680    2.6660   -3.2440 ha        1 40N      0.160000
     31 H10         0.0620    1.5480   -1.9450 hn        1 40N      0.457800
@<TRIPOS>BOND
     1    1    2 1   
     2    2    3 ar  
     3    2    7 ar  
     4    3    4 ar  
     5    3   22 1   
     6    4    5 ar  
     7    4   23 1   
     8    5    6 ar  
     9    5   24 1   
    10    6    7 ar  
    11    6   25 1   
    12    7    8 1   
    13    8    9 2   
    14    8   21 1   
    15    9   10 1   
    16    9   26 1   
    17   10   11 2   
    18   10   12 1   
    19   12   13 ar  
    20   12   20 ar  
    21   13   14 ar  
    22   13   27 1   
    23   14   15 1   
    24   14   18 ar  
    25   15   16 1   
    26   16   17 1   
    27   16   28 1   
    28   16   29 1   
    29   17   18 1   
    30   18   19 ar  
    31   19   20 ar  
    32   19   30 1   
    33   20   21 1   
    34   21   31 1   
@<TRIPOS>SUBSTRUCTURE
     1 40N         1 TEMP              0 ****  ****    0 ROOT
