@<TRIPOS>MOLECULE
40O
   20    20     1     0     0
SMALL
bcc


@<TRIPOS>ATOM
      1 C4         -0.0680   -0.0580   -0.0510 c3        1 40O     -0.093900
      2 C5          1.4550    0.0080   -0.0890 c3        1 40O      0.127100
      3 C6          2.0240    0.0420    1.3420 c3        1 40O      0.127100
      4 C1          1.5460   -1.1610    2.1450 c3        1 40O     -0.093900
      5 C2          0.0340   -1.2320    2.1580 c3        1 40O     -0.077400
      6 C3         -0.5310   -1.2540    0.7530 c3        1 40O     -0.077400
      7 O7          3.4390    0.0370    1.1930 oh        1 40O     -0.607300
      8 O8          1.8060    1.1910   -0.7890 oh        1 40O     -0.607300
      9 H1         -0.4530   -0.1220   -1.1010 hc        1 40O      0.052450
     10 H2         -0.4660    0.8900    0.3960 hc        1 40O      0.052450
     11 H3          1.8770   -0.8850   -0.6280 h1        1 40O      0.046700
     12 H4          1.7090    0.9990    1.8470 h1        1 40O      0.046700
     13 H5          1.9710   -2.0950    1.6920 hc        1 40O      0.052450
     14 H6          1.9340   -1.0880    3.1930 hc        1 40O      0.052450
     15 H7         -0.2900   -2.1540    2.7080 hc        1 40O      0.043950
     16 H8         -0.3770   -0.3470    2.7130 hc        1 40O      0.043950
     17 H9         -0.2140   -2.1980    0.2370 hc        1 40O      0.043950
     18 H10        -1.6510   -1.2560    0.8000 hc        1 40O      0.043950
     19 H11         3.8150    0.0170    2.0800 ho        1 40O      0.411500
     20 H12         2.7680    1.2640   -0.7350 ho        1 40O      0.411500
@<TRIPOS>BOND
     1    1    2 1   
     2    1    6 1   
     3    1    9 1   
     4    1   10 1   
     5    2    3 1   
     6    2    8 1   
     7    2   11 1   
     8    3    4 1   
     9    3    7 1   
    10    3   12 1   
    11    4    5 1   
    12    4   13 1   
    13    4   14 1   
    14    5    6 1   
    15    5   15 1   
    16    5   16 1   
    17    6   17 1   
    18    6   18 1   
    19    7   19 1   
    20    8   20 1   
@<TRIPOS>SUBSTRUCTURE
     1 40O         1 TEMP              0 ****  ****    0 ROOT
