@<TRIPOS>MOLECULE
40Q
   39    37     1     0     0
SMALL
bcc


@<TRIPOS>ATOM
      1 N7          0.6010   -0.3440    0.0860 n2        1 40Q     -0.616900
      2 C23         2.0390   -0.2220    0.3740 c3        1 40Q      0.522100
      3 N6          2.6130   -1.4910    0.8450 n8        1 40Q     -0.915800
      4 N5          2.3930    0.9450    1.2180 ns        1 40Q     -0.633900
      5 C22         1.5000    1.5220    2.0880 c         1 40Q      0.705500
      6 O5          1.8470    2.4820    2.8080 o         1 40Q     -0.670500
      7 C21         0.0910    0.9710    2.1450 c3        1 40Q     -0.227700
      8 N8         -1.8470   -1.4630    4.3830 n1        1 40Q     -0.414800
      9 C18        -2.8330   -0.9260    4.6770 c1        1 40Q      0.214300
     10 C19        -2.2510   -0.7800    0.0210 c2        1 40Q      0.497100
     11 N4         -1.6750    0.1930    0.6190 ne        1 40Q     -0.678000
     12 C20        -0.2700    0.1990    0.8870 ce        1 40Q      0.640300
     13 C17        -3.9780    2.5190    3.0420 c3        1 40Q      0.081100
     14 N3         -4.2320    2.2000    4.4090 n2        1 40Q     -0.610900
     15 C13         0.0540    7.2000    4.2640 cc        1 40Q     -0.085200
     16 C26         0.9510    6.2910    4.3580 c1        1 40Q      0.017200
     17 C25         1.8340    5.3480    4.4670 c2        1 40Q     -0.155100
     18 C16        -4.3070    3.0850    5.3350 ce        1 40Q      0.493100
     19 C15        -4.1590    4.4950    5.2550 cg        1 40Q     -0.250200
     20 C14        -4.0290    5.6850    5.2230 c1        1 40Q     -0.083500
     21 O4         -0.0880    8.4930    3.6380 os        1 40Q     -0.352200
     22 H1          3.5990   -1.4030    0.9850 hn        1 40Q      0.365800
     23 H2          2.5200   -0.0280   -0.6450 h3        1 40Q      0.097700
     24 H4          0.0060    0.2850    3.0320 hc        1 40Q      0.110200
     25 H6         -0.6120    1.8320    2.3110 hc        1 40Q      0.110200
     26 H7         -1.7840   -1.7130   -0.3500 h4        1 40Q      0.002800
     27 H8         -3.7380   -0.4160    4.9410 ha        1 40Q      0.200500
     28 H9         -3.3430   -0.6870   -0.1410 h4        1 40Q      0.002800
     29 H10        -3.0450    1.9810    2.7200 h1        1 40Q      0.052700
     30 H11        -3.8530    3.6140    2.8260 h1        1 40Q      0.052700
     31 H12        -4.8360    2.1300    2.4290 h1        1 40Q      0.052700
     32 H13         1.8930    4.5080    3.7500 ha        1 40Q      0.165500
     33 H14         2.5690    5.3300    5.2870 ha        1 40Q      0.165500
     34 H15        -4.5150    2.7050    6.3610 h4        1 40Q      0.024800
     35 H16        -3.9000    6.7420    5.1920 ha        1 40Q      0.186500
     36 OXT        -2.2510    8.3200    4.6390 o         1 40Q     -0.514500
     37 H17         3.3070    1.3220    1.1370 hn        1 40Q      0.325500
     38 H63         2.1790   -1.8370    1.6750 hn        1 40Q      0.365800
     39 C12        -1.1350    7.9510    4.3690 c         1 40Q      0.758800
@<TRIPOS>BOND
     1    1    2 1   
     2    1   12 2   
     3    2    3 1   
     4    2    4 1   
     5    2   23 1   
     6    3   22 1   
     7    3   38 1   
     8    4    5 1   
     9    4   37 1   
    10    5    6 2   
    11    5    7 1   
    12    7   12 1   
    13    7   24 1   
    14    7   25 1   
    15    8    9 3   
    16    9   27 1   
    17   10   11 2   
    18   10   26 1   
    19   10   28 1   
    20   11   12 1   
    21   13   14 1   
    22   13   29 1   
    23   13   30 1   
    24   13   31 1   
    25   14   18 2   
    26   15   16 2   
    27   15   21 1   
    28   15   39 1   
    29   16   17 2   
    30   17   32 1   
    31   17   33 1   
    32   18   19 1   
    33   18   34 1   
    34   19   20 3   
    35   20   35 1   
    36   21   39 1   
    37   36   39 2   
@<TRIPOS>SUBSTRUCTURE
     1 40Q         1 TEMP              0 ****  ****    0 ROOT
