@<TRIPOS>MOLECULE
40Q
   39    41     1     0     0
SMALL
bcc


@<TRIPOS>ATOM
      1 N7         -0.2270   -0.6720   -0.2480 nc        1 40Q     -0.699300
      2 C23         1.1170   -0.6810   -0.3120 cd        1 40Q      0.672800
      3 N6          1.7450   -0.8140   -1.5740 nh        1 40Q     -0.886800
      4 N5          1.9470   -0.5050    0.8090 n         1 40Q     -0.489400
      5 C22         1.3930   -0.2760    2.0840 c         1 40Q      0.714700
      6 O5          2.1750   -0.0710    3.0330 o         1 40Q     -0.644500
      7 C21        -0.0680   -0.2880    2.1710 cd        1 40Q     -0.166200
      8 N8         -0.6670   -0.2600    3.4550 nh        1 40Q     -0.662000
      9 C18        -2.0240    0.2620    3.4690 c3        1 40Q      0.163500
     10 C19        -2.8570   -0.3500    2.3090 c3        1 40Q      0.193800
     11 N4         -2.2140   -0.2200    1.0230 nh        1 40Q     -0.720000
     12 C20        -0.8220   -0.4180    0.9910 cc        1 40Q      0.366600
     13 C17        -2.1600    1.8050    3.3970 c3        1 40Q      0.163800
     14 N3         -1.6710    2.4770    4.5740 nh        1 40Q     -0.750600
     15 C13        -1.1590    6.6590    4.6430 ca        1 40Q     -0.230600
     16 C26        -0.5500    5.8460    5.6100 ca        1 40Q     -0.042000
     17 C25        -0.6890    4.4680    5.5660 ca        1 40Q     -0.208000
     18 C16        -1.4720    3.8540    4.5520 ca        1 40Q      0.200600
     19 C15        -2.0910    4.6870    3.5870 ca        1 40Q     -0.208000
     20 C14        -1.9340    6.0650    3.6430 ca        1 40Q     -0.042000
     21 O4         -0.7750    8.7770    5.7520 o         1 40Q     -0.496000
     22 H1          2.5700   -1.3740   -1.5760 hn        1 40Q      0.417300
     23 H2          1.1190   -1.0200   -2.3230 hn        1 40Q      0.417300
     24 H4         -0.0690    0.2000    4.1180 hn        1 40Q      0.394800
     25 H6         -2.4870   -0.0980    4.4360 h1        1 40Q      0.081700
     26 H7         -3.8450    0.1850    2.2460 h1        1 40Q      0.053700
     27 H8         -3.0590   -1.4320    2.5620 h1        1 40Q      0.053700
     28 H9         -2.7290   -0.6140    0.2630 hn        1 40Q      0.426800
     29 H10        -3.2560    2.0540    3.2960 h1        1 40Q      0.055700
     30 H11        -1.6380    2.1770    2.4680 h1        1 40Q      0.055700
     31 H12        -1.0250    1.9660    5.1360 hn        1 40Q      0.414800
     32 H13         0.0430    6.3190    6.4110 ha        1 40Q      0.143500
     33 H14        -0.1940    3.8520    6.3320 ha        1 40Q      0.141500
     34 H15        -2.7120    4.2510    2.7910 ha        1 40Q      0.141500
     35 H16        -2.4450    6.6890    2.8920 ha        1 40Q      0.143500
     36 OXT        -1.0360    8.8840    3.6000 oh        1 40Q     -0.584100
     37 H17         2.9380   -0.4570    0.7130 hn        1 40Q      0.339500
     38 H63        -1.1110    8.3200    2.8180 ho        1 40Q      0.423000
     39 C12        -0.9840    8.1150    4.7330 c         1 40Q      0.647700
@<TRIPOS>BOND
     1    1    2 2   
     2    1   12 1   
     3    2    3 1   
     4    2    4 1   
     5    3   22 1   
     6    3   23 1   
     7    4    5 1   
     8    4   37 1   
     9    5    6 2   
    10    5    7 1   
    11    7    8 1   
    12    7   12 2   
    13    8    9 1   
    14    8   24 1   
    15    9   10 1   
    16    9   13 1   
    17    9   25 1   
    18   10   11 1   
    19   10   26 1   
    20   10   27 1   
    21   11   12 1   
    22   11   28 1   
    23   13   14 1   
    24   13   29 1   
    25   13   30 1   
    26   14   18 1   
    27   14   31 1   
    28   15   16 ar  
    29   15   20 ar  
    30   15   39 1   
    31   16   17 ar  
    32   16   32 1   
    33   17   18 ar  
    34   17   33 1   
    35   18   19 ar  
    36   19   20 ar  
    37   19   34 1   
    38   20   35 1   
    39   21   39 2   
    40   36   38 1   
    41   36   39 1   
@<TRIPOS>SUBSTRUCTURE
     1 40Q         1 TEMP              0 ****  ****    0 ROOT
