@<TRIPOS>MOLECULE
40R
   20    20     1     0     0
SMALL
bcc


@<TRIPOS>ATOM
      1 N1          0.0950   -0.0590   -0.0250 na        1 40R     -0.056400
      2 C2         -1.4180    1.1770   -3.2920 c3        1 40R     -0.080400
      3 N3          1.4310   -0.2090   -0.0110 nc        1 40R     -0.518800
      4 C4         -0.7200   -0.0150   -1.2240 c3        1 40R      0.057300
      5 C5         -0.3760    0.1260    1.2940 cc        1 40R      0.397400
      6 C6          1.7730   -0.1350    1.3070 cd        1 40R      0.497900
      7 C1         -1.2370    2.3930   -4.1640 c3        1 40R     -0.093100
      8 C3         -0.5060    1.2300   -2.0840 c3        1 40R     -0.101400
      9 N2          0.6660    0.0730    2.1510 nd        1 40R     -0.685000
     10 H1         -1.2010    0.2510   -3.8870 hc        1 40R      0.040200
     11 H2         -2.4870    1.1120   -2.9550 hc        1 40R      0.040200
     12 H3         -1.7950   -0.0640   -0.8920 h1        1 40R      0.063700
     13 H4         -0.4940   -0.9310   -1.8420 h1        1 40R      0.063700
     14 H5         -1.4300    0.2710    1.5460 h5        1 40R      0.069100
     15 H6          2.7960   -0.2300    1.6820 h5        1 40R      0.071100
     16 H7         -1.9150    2.3370   -5.0500 hc        1 40R      0.037367
     17 H8         -0.1830    2.4620   -4.5290 hc        1 40R      0.037367
     18 H9         -1.4730    3.3250   -3.5960 hc        1 40R      0.037367
     19 H10         0.5630    1.2860   -2.4180 hc        1 40R      0.060700
     20 H11        -0.7210    2.1550   -1.4880 hc        1 40R      0.060700
@<TRIPOS>BOND
     1    1    3 1   
     2    1    4 1   
     3    1    5 1   
     4    2    7 1   
     5    2    8 1   
     6    2   10 1   
     7    2   11 1   
     8    3    6 2   
     9    4    8 1   
    10    4   12 1   
    11    4   13 1   
    12    5    9 2   
    13    5   14 1   
    14    6    9 1   
    15    6   15 1   
    16    7   16 1   
    17    7   17 1   
    18    7   18 1   
    19    8   19 1   
    20    8   20 1   
@<TRIPOS>SUBSTRUCTURE
     1 40R         1 TEMP              0 ****  ****    0 ROOT
