@<TRIPOS>MOLECULE
40S
   22    21     1     0     0
SMALL
bcc


@<TRIPOS>ATOM
      1 C01        -0.1250   -0.0540    0.0210 c3        1 40S     -0.093100
      2 C02         1.3900   -0.0320    0.0280 c3        1 40S     -0.063700
      3 C03         1.9290   -0.0540    1.4510 c3        1 40S     -0.081400
      4 C04         1.7340    1.2840    2.1440 c3        1 40S      0.132400
      5 O05         2.3580    1.1830    3.4150 oh        1 40S     -0.601800
      6 C06         1.9570   -1.2150   -0.7440 c3        1 40S     -0.081400
      7 C07         1.6980   -1.0890   -2.2360 c3        1 40S      0.132400
      8 O08         2.4170   -2.1370   -2.8680 oh        1 40S     -0.601800
      9 H1         -0.5310    0.8110    0.5990 hc        1 40S      0.035367
     10 H2         -0.5060   -0.9970    0.4810 hc        1 40S      0.035367
     11 H3         -0.5110    0.0110   -1.0250 hc        1 40S      0.035367
     12 H4          1.7370    0.9170   -0.4710 hc        1 40S      0.045700
     13 H5          3.0250   -0.2940    1.4430 hc        1 40S      0.057950
     14 H6          1.4180   -0.8570    2.0430 hc        1 40S      0.057950
     15 H7          2.2100    2.1110    1.5510 h1        1 40S      0.020200
     16 H8          0.6430    1.5140    2.2740 h1        1 40S      0.020200
     17 H9          2.2270    2.0310    3.8540 ho        1 40S      0.399000
     18 H10         3.0650   -1.2830   -0.5800 hc        1 40S      0.057950
     19 H11         1.5060   -2.1700   -0.3690 hc        1 40S      0.057950
     20 H12         2.0580   -0.0960   -2.6190 h1        1 40S      0.020200
     21 H13         0.6030   -1.1880   -2.4630 h1        1 40S      0.020200
     22 H14         2.2380   -2.0630   -3.8120 ho        1 40S      0.399000
@<TRIPOS>BOND
     1    1    2 1   
     2    1    9 1   
     3    1   10 1   
     4    1   11 1   
     5    2    3 1   
     6    2    6 1   
     7    2   12 1   
     8    3    4 1   
     9    3   13 1   
    10    3   14 1   
    11    4    5 1   
    12    4   15 1   
    13    4   16 1   
    14    5   17 1   
    15    6    7 1   
    16    6   18 1   
    17    6   19 1   
    18    7    8 1   
    19    7   20 1   
    20    7   21 1   
    21    8   22 1   
@<TRIPOS>SUBSTRUCTURE
     1 40S         1 TEMP              0 ****  ****    0 ROOT
