@<TRIPOS>MOLECULE
40T
   38    37     1     0     0
SMALL
bcc


@<TRIPOS>ATOM
      1 C'          3.1570    0.6040    1.8140 c1        1 40T      0.787000
      2 N1         -1.3000   -1.7410    0.1830 n         1 40T     -0.341000
      3 C2         -1.7710   -2.0740   -1.1880 c         1 40T      0.806500
      4 O2         -1.0610   -1.8830   -2.1200 o         1 40T     -0.637500
      5 N3         -3.1170   -2.6680   -1.3900 n         1 40T     -0.589500
      6 C4         -3.9630   -2.9490   -0.2520 c         1 40T      0.722700
      7 O4         -5.0740   -3.3820   -0.4200 o         1 40T     -0.647500
      8 C5         -3.4910   -2.6170    1.1270 cc        1 40T     -0.293400
      9 C6         -2.1650   -1.9600    1.3170 cd        1 40T      0.067600
     10 C7         -4.3280   -3.0660    2.3720 c3        1 40T     -0.019900
     11 N1'         2.9000    3.6420   -0.5980 n3        1 40T     -0.903800
     12 O1'         4.0570    1.2530    2.4120 o         1 40T     -0.789000
     13 C2'         1.9510    2.8030   -1.2680 c3        1 40T      0.147500
     14 C2M         2.0660    3.0110   -2.7620 c3        1 40T     -0.087100
     15 C3'         2.2330    1.3720   -0.9400 c3        1 40T      0.038000
     16 N4'         1.3950    0.9540    0.1850 n         1 40T     -0.393400
     17 C5'         1.8100    1.2460    1.5490 c2        1 40T      0.128400
     18 C7'         0.1710    0.2030   -0.0580 c         1 40T      0.631100
     19 O7'        -0.7710    0.7360   -0.6270 o         1 40T     -0.629100
     20 C8'         0.0680   -1.2610    0.3900 c3        1 40T     -0.009000
     21 HN3        -3.4020   -2.8840   -2.2400 hn        1 40T      0.342500
     22 H6         -1.8610   -1.7460    2.1980 h4        1 40T      0.178000
     23 HN1'        2.5010    4.4290   -0.3650 hn        1 40T      0.343300
     24 H22'        1.0600    3.0290   -0.9800 h1        1 40T      0.064700
     25 H13'        3.1670    1.2740   -0.7010 h1        1 40T      0.074200
     26 H23'        2.0370    0.8200   -1.7110 h1        1 40T      0.074200
     27 H15'        1.1540    0.8910    2.1700 h4        1 40T     -0.060200
     28 H25'        1.8810    2.2150    1.6680 h4        1 40T     -0.060200
     29 H7         -4.6190   -3.9940    2.2540 hc        1 40T      0.042367
     30 H7A        -5.1070   -2.4910    2.4630 hc        1 40T      0.042367
     31 H7B        -3.7700   -2.9970    3.1880 hc        1 40T      0.042367
     32 HXT'        0.2970   -1.3280    1.3420 h1        1 40T      0.134700
     33 H28'        0.6960   -1.8140   -0.1410 h1        1 40T      0.134700
     34 H2M         2.9050    2.6240   -3.0810 hc        1 40T      0.034033
     35 H2MA        2.0520    3.9810   -2.9630 hc        1 40T      0.034033
     36 H2MB        1.3060    2.5700   -3.2150 hc        1 40T      0.034033
     37 OXT         3.3370   -0.6140    1.5410 o         1 40T     -0.789000
     38 HNXT        3.6030    3.8110   -1.1560 hn        1 40T      0.343300
@<TRIPOS>BOND
     1    1   12 2   
     2    1   37 2   
     3    2    3 1   
     4    2    9 1   
     5    2   20 1   
     6    3    4 2   
     7    3    5 1   
     8    5    6 1   
     9    5   21 1   
    10    6    7 2   
    11    6    8 1   
    12    8    9 2   
    13    8   10 1   
    14    9   22 1   
    15   10   29 1   
    16   10   30 1   
    17   10   31 1   
    18   11   13 1   
    19   11   23 1   
    20   11   38 1   
    21   13   14 1   
    22   13   15 1   
    23   13   24 1   
    24   14   34 1   
    25   14   35 1   
    26   14   36 1   
    27   15   16 1   
    28   15   25 1   
    29   15   26 1   
    30   16   17 2   
    31   16   18 1   
    32   17   27 1   
    33   17   28 1   
    34   18   19 2   
    35   18   20 1   
    36   20   32 1   
    37   20   33 1   
@<TRIPOS>SUBSTRUCTURE
     1 40T         1 TEMP              0 ****  ****    0 ROOT
