@<TRIPOS>MOLECULE
40T
   38    38     1     0     0
SMALL
bcc


@<TRIPOS>ATOM
      1 C'         -2.5500   -1.5950    1.5850 c         1 40T      0.900600
      2 N1          1.4740   -0.7070   -0.2430 n         1 40T     -0.343000
      3 C2          2.4060   -0.8270   -1.3090 c         1 40T      0.806500
      4 O2          2.1410   -1.4450   -2.3610 o         1 40T     -0.634500
      5 N3          3.6840   -0.2600   -1.1410 n         1 40T     -0.589500
      6 C4          4.0860    0.4000    0.0300 c         1 40T      0.722700
      7 O4          5.2330    0.8870    0.0730 o         1 40T     -0.647500
      8 C5          3.0980    0.4530    1.1170 cc        1 40T     -0.293400
      9 C6          1.8550   -0.0800    0.9280 cd        1 40T      0.066600
     10 C7          3.5080    1.0850    2.3850 c3        1 40T     -0.019900
     11 N1'        -1.8050    3.1810   -1.0180 n3        1 40T     -0.897800
     12 O1'        -1.7480   -2.5700    1.6300 o         1 40T     -0.822300
     13 C2'        -2.9060    2.6080   -0.2620 c3        1 40T      0.146500
     14 C2M        -4.2580    3.1660   -0.7040 c3        1 40T     -0.087100
     15 C3'        -3.0070    1.0580   -0.3360 c3        1 40T      0.048000
     16 N4'        -1.8300    0.3700    0.1510 n         1 40T     -0.432800
     17 C5'        -1.9110   -0.1750    1.4880 c3        1 40T     -0.053000
     18 C7'        -0.8680   -0.0150   -0.7590 c         1 40T      0.631100
     19 O7'        -0.7860    0.5600   -1.8700 o         1 40T     -0.648100
     20 C8'         0.1110   -1.1550   -0.4280 c3        1 40T     -0.007000
     21 HN3         4.3110   -0.3290   -1.9110 hn        1 40T      0.342500
     22 H6          1.0820   -0.0510    1.7230 h4        1 40T      0.181000
     23 H22'       -2.7450    2.9000    0.8190 h1        1 40T      0.050700
     24 H13'       -3.8950    0.7200    0.2730 h1        1 40T      0.069200
     25 H23'       -3.1880    0.7680   -1.4110 h1        1 40T      0.069200
     26 H15'       -2.5300    0.5310    2.1080 h1        1 40T      0.031700
     27 H25'       -0.8790   -0.2100    1.9300 h1        1 40T      0.031700
     28 H7          2.6190    1.3590    3.0050 hc        1 40T      0.043033
     29 H7A         4.1520    0.3850    2.9750 hc        1 40T      0.043033
     30 H7B         4.1040    2.0100    2.1770 hc        1 40T      0.043033
     31 HXT'        0.0800   -1.8500   -1.3190 h1        1 40T      0.136200
     32 H28'       -0.2200   -1.7430    0.4870 h1        1 40T      0.136200
     33 H2M        -5.0580    2.7610   -0.0390 hc        1 40T      0.033033
     34 H2MA       -4.2640    4.2800   -0.6360 hc        1 40T      0.033033
     35 H2MB       -4.4860    2.8720   -1.7560 hc        1 40T      0.033033
     36 OXT        -3.8040   -1.6630    1.6330 o         1 40T     -0.822300
     37 HN1'       -0.9370    2.8250   -0.6640 hn        1 40T      0.349800
     38 HNXT       -1.8720    2.8960   -1.9790 hn        1 40T      0.349800
@<TRIPOS>BOND
     1    1   12 1   
     2    1   17 1   
     3    1   36 1   
     4    2    3 1   
     5    2    9 1   
     6    2   20 1   
     7    3    4 2   
     8    3    5 1   
     9    5    6 1   
    10    5   21 1   
    11    6    7 2   
    12    6    8 1   
    13    8    9 2   
    14    8   10 1   
    15    9   22 1   
    16   10   28 1   
    17   10   29 1   
    18   10   30 1   
    19   11   13 1   
    20   11   37 1   
    21   11   38 1   
    22   13   14 1   
    23   13   15 1   
    24   13   23 1   
    25   14   33 1   
    26   14   34 1   
    27   14   35 1   
    28   15   16 1   
    29   15   24 1   
    30   15   25 1   
    31   16   17 1   
    32   16   18 1   
    33   17   26 1   
    34   17   27 1   
    35   18   19 2   
    36   18   20 1   
    37   20   31 1   
    38   20   32 1   
@<TRIPOS>SUBSTRUCTURE
     1 40T         1 TEMP              0 ****  ****    0 ROOT
