@<TRIPOS>MOLECULE
40U
   63    63     1     0     0
SMALL
bcc


@<TRIPOS>ATOM
      1 C13        -0.7810    0.4120    0.0750 c2        1 40U      0.302000
      2 C18         2.2900    2.4500    0.8780 c3        1 40U     -0.232000
      3 C17        -1.9520    0.3690   -3.6080 cx        1 40U     -0.189500
      4 C16        -1.6510   -0.9730   -3.0180 cx        1 40U     -0.189500
      5 C15        -1.9070    0.2040   -2.1100 cx        1 40U     -0.205000
      6 C19         2.3890    3.4380    2.0420 c3        1 40U     -0.224500
      7 C20         3.3540    1.3820    0.9800 c3        1 40U     -0.224500
      8 C21         6.6960   -1.8170    2.5950 c3        1 40U     -0.218000
      9 C22         5.3920   -0.3520    4.0930 c3        1 40U     -0.218000
     10 C11         1.9680   -1.7490    3.5910 c2        1 40U      0.292000
     11 C12         0.8910    2.0290    0.7700 c1        1 40U      0.119000
     12 C           9.5740   -1.1730    4.8520 c2        1 40U     -0.357000
     13 C5          8.6900   -0.2620    5.2800 c1        1 40U      0.196000
     14 C4          7.0240   -1.3740    6.5010 c2        1 40U     -0.184000
     15 C3          7.0480   -2.3760    5.6010 c2        1 40U     -0.097000
     16 C2          8.2650   -3.1630    5.4150 c2        1 40U     -0.179000
     17 C1          9.4410   -2.6010    5.0870 c2        1 40U     -0.069000
     18 C6          5.8390   -2.7730    4.7780 c3        1 40U      0.130000
     19 O2          6.0020   -4.0860    4.2380 oh        1 40U     -0.326000
     20 C10         4.6060   -2.9030    5.6920 c3        1 40U     -0.166000
     21 C9          3.3630   -3.2900    4.8940 c3        1 40U     -0.031000
     22 N           3.1350   -2.4290    3.7490 n         1 40U     -0.295000
     23 C8          4.2770   -2.2450    2.8790 c3        1 40U     -0.030000
     24 C7          5.5610   -1.7810    3.6100 c3        1 40U     -0.085000
     25 O           1.7660   -0.9480    2.6410 o         1 40U     -0.529000
     26 N1          0.5260    0.6410    0.8290 ny        1 40U     -0.169000
     27 O1         -1.6800   -0.0600    0.7490 o         1 40U     -0.173000
     28 C14        -0.7750    0.8340   -1.3640 c3        1 40U     -0.137000
     29 H1          3.3700    3.9690    1.9800 hc        1 40U      0.106667
     30 H2         -2.8640    0.2340   -1.5480 hc        1 40U      0.153000
     31 H3         -2.9330    0.5450   -4.0870 hc        1 40U      0.125750
     32 H4         -1.1440    0.9290   -4.1120 hc        1 40U      0.125750
     33 H5         -2.4140   -1.7720   -3.0700 hc        1 40U      0.125750
     34 H6         -0.6270   -1.3790   -3.1030 hc        1 40U      0.125750
     35 H7          2.4560    3.0540   -0.0770 hc        1 40U      0.184000
     36 H8          2.3380    2.8930    3.0150 hc        1 40U      0.106667
     37 H9          1.5660    4.1910    1.9950 hc        1 40U      0.106667
     38 H10         4.3570    1.8600    1.1050 hc        1 40U      0.106667
     39 H11         3.1810    0.7140    1.8630 hc        1 40U      0.106667
     40 H12         3.3860    0.7560    0.0550 hc        1 40U      0.106667
     41 H13         6.5610   -1.0080    1.8380 hc        1 40U      0.086667
     42 H14         6.7280   -2.7960    2.0570 hc        1 40U      0.086667
     43 H15         7.6740   -1.6590    3.1150 hc        1 40U      0.086667
     44 H16         5.0630    0.2970    3.2440 hc        1 40U      0.086667
     45 H17         6.3650    0.0440    4.4810 hc        1 40U      0.086667
     46 H18         4.6290   -0.2830    4.9040 hc        1 40U      0.086667
     47 H19         1.1740   -1.9660    4.3450 h5        1 40U      0.144000
     48 H22         8.1690   -4.2520    5.5670 ha        1 40U      0.164000
     49 H23        10.3560   -3.2080    4.9750 ha        1 40U      0.160000
     50 H24         6.8120   -4.0910    3.7110 ho        1 40U      0.215000
     51 H25         4.8000   -3.7110    6.4440 hc        1 40U      0.111500
     52 H26         4.4430   -1.9410    6.2390 hc        1 40U      0.111500
     53 H27         3.5020   -4.3430    4.5080 h1        1 40U      0.110500
     54 H28         2.4660   -3.2720    5.5730 h1        1 40U      0.110500
     55 H29         4.4940   -3.2390    2.3890 h1        1 40U      0.106000
     56 H30         4.0190   -1.4920    2.0830 h1        1 40U      0.106000
     57 H31         1.2440   -0.0280    0.5060 hn        1 40U      0.276500
     58 H32         0.2060    0.5790   -1.8490 hc        1 40U      0.140000
     59 H33        -0.8890    1.9580   -1.3720 hc        1 40U      0.140000
     60 H20         7.8610   -1.1850    7.1950 ha        1 40U      0.140500
     61 Cl         10.9420   -0.6490    3.9830 cl        1 40U      0.037000
     62 H121        0.3730    0.4010    1.8400 hn        1 40U      0.276500
     63 H21         6.1460   -0.7330    6.6610 ha        1 40U      0.140500
@<TRIPOS>BOND
     1    1   26 1   
     2    1   27 1   
     3    1   28 1   
     4    2    6 1   
     5    2    7 1   
     6    2   11 1   
     7    2   35 1   
     8    3    4 1   
     9    3    5 1   
    10    3   31 1   
    11    3   32 1   
    12    4    5 1   
    13    4   33 1   
    14    4   34 1   
    15    5   28 1   
    16    5   30 1   
    17    6   29 1   
    18    6   36 1   
    19    6   37 1   
    20    7   38 1   
    21    7   39 1   
    22    7   40 1   
    23    8   24 1   
    24    8   41 1   
    25    8   42 1   
    26    8   43 1   
    27    9   24 1   
    28    9   44 1   
    29    9   45 1   
    30    9   46 1   
    31   10   22 1   
    32   10   25 1   
    33   10   47 1   
    34   11   26 1   
    35   12   13 1   
    36   12   17 1   
    37   12   61 1   
    38   14   15 1   
    39   14   60 1   
    40   14   63 1   
    41   15   16 1   
    42   15   18 1   
    43   16   17 1   
    44   16   48 1   
    45   17   49 1   
    46   18   19 1   
    47   18   20 1   
    48   18   24 1   
    49   19   50 1   
    50   20   21 1   
    51   20   51 1   
    52   20   52 1   
    53   21   22 1   
    54   21   53 1   
    55   21   54 1   
    56   22   23 1   
    57   23   24 1   
    58   23   55 1   
    59   23   56 1   
    60   26   57 1   
    61   26   62 1   
    62   28   58 1   
    63   28   59 1   
@<TRIPOS>SUBSTRUCTURE
     1 40U         1 TEMP              0 ****  ****    0 ROOT
