@<TRIPOS>MOLECULE
40U
   63    63     1     0     0
SMALL
bcc


@<TRIPOS>ATOM
      1 C13        -0.7460   -0.6190   -0.2420 c2        1 40U      0.261000
      2 C18         1.5970    1.4250    1.6750 c2        1 40U     -0.263000
      3 C17        -0.6010    0.4510   -3.9490 cx        1 40U     -0.191500
      4 C16         0.2670    1.1480   -2.9500 cx        1 40U     -0.191500
      5 C15        -0.2000   -0.2630   -2.6810 cx        1 40U     -0.246000
      6 C19         3.3680    2.2520    4.9490 c3        1 40U     -0.279000
      7 C20         2.8030    1.8480    1.2980 c2        1 40U     -0.118000
      8 C21         7.6050   -4.2150    4.1070 cx        1 40U     -0.202000
      9 C22         5.1730   -0.4570    3.0200 c3        1 40U     -0.229000
     10 C11         2.1560   -1.0170    1.8020 c2        1 40U      0.241000
     11 C12         1.0810    0.0420    1.4250 c3        1 40U     -0.082000
     12 C           9.0200   -2.3300    3.1220 c2        1 40U     -0.345000
     13 C5          8.4220   -1.1370    3.1030 c1        1 40U      0.154000
     14 C4          7.5720   -0.7120    5.2120 c2        1 40U     -0.171000
     15 C3          6.9240   -1.8880    5.1000 c2        1 40U     -0.106000
     16 C2          7.7030   -3.1410    5.1600 cx        1 40U     -0.155000
     17 C1          8.8330   -3.3460    4.1680 cx        1 40U     -0.091000
     18 C6          5.4110   -1.9790    5.0450 c3        1 40U      0.126000
     19 O2          4.9630   -3.2380    5.5530 oh        1 40U     -0.321000
     20 C10         4.7650   -0.9590    5.9830 c3        1 40U     -0.218000
     21 C9          1.9160   -0.5400    4.1900 c1        1 40U     -0.047000
     22 N           2.4390   -1.2140    3.1870 n         1 40U     -0.162000
     23 C8          3.4270   -2.2680    3.4850 c3        1 40U     -0.037000
     24 C7          4.8990   -1.8280    3.5860 c3        1 40U     -0.133000
     25 O           2.7070   -1.6500    0.8880 o         1 40U     -0.302000
     26 N1          0.6640   -0.1160   -0.0150 n4        1 40U     -0.111000
     27 O1         -1.3560   -1.0440    0.7260 o         1 40U     -0.173000
     28 C14        -1.2480   -0.5280   -1.6560 c3        1 40U     -0.155000
     29 H1          3.0920    1.2530    5.3620 hc        1 40U      0.070250
     30 H2          0.5350   -1.0900   -2.7810 hc        1 40U      0.140000
     31 H3         -0.1610    0.1090   -4.9050 hc        1 40U      0.132750
     32 H4         -1.6500    0.7780   -4.0740 hc        1 40U      0.132750
     33 H5         -0.1640    1.9840   -2.3690 hc        1 40U      0.132750
     34 H6          1.3330    1.3190   -3.1940 hc        1 40U      0.132750
     35 H7          0.9000    2.0770    2.2310 ha        1 40U      0.172000
     36 H8          4.4720    2.3780    4.9920 hc        1 40U      0.070250
     37 H9          3.0290    2.3200    3.8900 hc        1 40U      0.070250
     38 H10         2.8790    3.0510    5.5470 hc        1 40U      0.070250
     39 H11         3.5310    1.2140    0.7670 ha        1 40U      0.151000
     40 H12         3.1520    2.8700    1.5220 ha        1 40U      0.151000
     41 H13         5.4810   -2.5740    2.9670 hc        1 40U      0.104000
     42 H14         7.6880   -5.2700    4.4270 hc        1 40U      0.121000
     43 H15         6.9120   -4.0940    3.2560 hc        1 40U      0.121000
     44 H16         6.2760   -0.2550    3.0170 hc        1 40U      0.087667
     45 H17         4.8090   -0.3980    1.9640 hc        1 40U      0.087667
     46 H18         4.6720    0.3450    3.6190 hc        1 40U      0.087667
     47 H19         0.1600   -0.1450    2.0640 hx        1 40U      0.188000
     48 H22         7.8670   -3.4720    6.2090 hc        1 40U      0.155000
     49 H23         9.7840   -3.7910    4.5260 hc        1 40U      0.153000
     50 H24         5.4260   -3.9370    5.0750 ho        1 40U      0.207000
     51 H25         3.6510   -1.0270    5.9040 hc        1 40U      0.099667
     52 H26         5.0640   -1.1800    7.0350 hc        1 40U      0.099667
     53 H27         5.0830    0.0770    5.7200 hc        1 40U      0.099667
     54 H28         1.1870    0.2670    3.9600 ha        1 40U      0.049000
     55 H29         3.1070   -2.7330    4.4660 h1        1 40U      0.136500
     56 H30         3.3420   -3.0470    2.6750 h1        1 40U      0.136500
     57 H31         1.3060   -0.7860   -0.4780 hn        1 40U      0.271000
     58 H32        -2.0400    0.2760   -1.6670 hc        1 40U      0.168000
     59 H33        -1.7660   -1.5070   -1.8820 hc        1 40U      0.168000
     60 H20         8.6540   -0.6550    5.4170 ha        1 40U      0.138500
     61 CL         10.0850   -2.7360    1.8550 cl        1 40U      0.034000
     62 H121        0.7600    0.7880   -0.4990 hn        1 40U      0.271000
     63 H21         7.0600    0.2590    5.1730 ha        1 40U      0.138500
@<TRIPOS>BOND
     1    1   26 1   
     2    1   27 1   
     3    1   28 1   
     4    2    7 1   
     5    2   11 1   
     6    2   35 1   
     7    3    4 1   
     8    3    5 1   
     9    3   31 1   
    10    3   32 1   
    11    4    5 1   
    12    4   33 1   
    13    4   34 1   
    14    5   28 1   
    15    5   30 1   
    16    6   29 1   
    17    6   36 1   
    18    6   37 1   
    19    6   38 1   
    20    7   39 1   
    21    7   40 1   
    22    8   16 1   
    23    8   17 1   
    24    8   42 1   
    25    8   43 1   
    26    9   24 1   
    27    9   44 1   
    28    9   45 1   
    29    9   46 1   
    30   10   11 1   
    31   10   22 1   
    32   10   25 1   
    33   11   26 1   
    34   11   47 1   
    35   12   13 1   
    36   12   17 1   
    37   12   61 1   
    38   14   15 1   
    39   14   60 1   
    40   14   63 1   
    41   15   16 1   
    42   15   18 1   
    43   16   17 1   
    44   16   48 1   
    45   17   49 1   
    46   18   19 1   
    47   18   20 1   
    48   18   24 1   
    49   19   50 1   
    50   20   51 1   
    51   20   52 1   
    52   20   53 1   
    53   21   22 1   
    54   21   54 1   
    55   22   23 1   
    56   23   24 1   
    57   23   55 1   
    58   23   56 1   
    59   24   41 1   
    60   26   57 1   
    61   26   62 1   
    62   28   58 1   
    63   28   59 1   
@<TRIPOS>SUBSTRUCTURE
     1 40U         1 TEMP              0 ****  ****    0 ROOT
