@<TRIPOS>MOLECULE
40V
   70    74     1     0     0
SMALL
bcc


@<TRIPOS>ATOM
      1 C10         0.9550   -0.7540   -0.3020 ca        1 40V     -0.273600
      2 C13         2.6030   -0.1900    1.4480 ca        1 40V      0.309600
      3 C15         2.2430   -0.8910    0.2360 ca        1 40V      0.240800
      4 C17        -2.5550   -3.0890   -8.4350 c3        1 40V     -0.030600
      5 C20        -1.6110    0.2550   -4.4700 c3        1 40V     -0.075400
      6 C21        -2.2100   -0.7330   -6.7020 c3        1 40V      0.157800
      7 C22        -2.2830   -2.1360   -4.7390 c3        1 40V      0.171800
      8 C24        -2.8470   -3.0630   -6.9050 c3        1 40V      0.176500
      9 C26        -1.6790   -1.2340   -2.4670 c3        1 40V      0.116800
     10 C28        -0.0240   -4.4280   -1.1230 c3        1 40V      0.101400
     11 C01        -2.8040   -6.4740  -10.2040 ca        1 40V     -0.122500
     12 C02        -2.8600   -7.2850   -9.0730 ca        1 40V     -0.122500
     13 C03         3.3240    1.1230    3.7660 ca        1 40V     -0.188300
     14 C04         2.0460    1.3000    3.2910 ca        1 40V     -0.088000
     15 C05        -2.7070   -5.0810  -10.0830 ca        1 40V     -0.112000
     16 C06        -2.8180   -6.7250   -7.7890 ca        1 40V     -0.112000
     17 C07         0.0110    0.0690    0.3480 ca        1 40V     -0.020000
     18 C08         4.2200    0.2750    3.0440 ca        1 40V      0.441200
     19 C09         1.6390    0.6430    2.0920 ca        1 40V     -0.043300
     20 C11        -2.6660   -4.5260   -8.8140 ca        1 40V     -0.093300
     21 C12        -2.7210   -5.3490   -7.6670 ca        1 40V     -0.093300
     22 C14         0.3370    0.7540    1.5040 ca        1 40V     -0.173200
     23 C16         0.6430   -1.4340   -1.5620 c         1 40V      0.585700
     24 C18        -2.6510   -4.5320   -6.4230 c3        1 40V     -0.030600
     25 C19        -1.3740    0.3100   -5.9630 c3        1 40V     -0.080400
     26 C23        -1.3750   -1.1640   -3.9660 c3        1 40V     -0.094700
     27 C25        -0.5500   -5.3770    0.9910 c3        1 40V      0.118700
     28 C27        -0.6590   -3.4750   -2.1390 c3        1 40V      0.104800
     29 N29         3.8820   -0.3600    1.9360 nb        1 40V     -0.670000
     30 N30        -2.0380   -2.0840   -6.1740 n3        1 40V     -0.718600
     31 N31        -0.7400   -2.0660   -1.6430 nx        1 40V     -0.590200
     32 N32        -0.7340    1.6080    2.1020 no        1 40V      0.319200
     33 O33        -0.4500    2.5050    2.8410 o         1 40V     -0.186000
     34 O34         1.3740   -1.5750   -2.5320 o         1 40V     -0.407100
     35 O35        -1.8690    1.3620    1.7890 o         1 40V     -0.186000
     36 O36         3.0830   -1.7280   -0.4160 oh        1 40V     -0.465100
     37 O37        -0.7820   -4.3120    0.0750 os        1 40V     -0.460600
     38 H1         -3.2950   -2.4530   -8.9810 hc        1 40V      0.057700
     39 H2         -1.5260   -2.7150   -8.6720 hc        1 40V      0.057700
     40 H3         -2.6640    0.5680   -4.2390 hc        1 40V      0.050200
     41 H4         -0.9200    0.9690   -3.9510 hc        1 40V      0.050200
     42 H5         -1.8900   -0.7440   -7.7820 h1        1 40V      0.049200
     43 H6         -3.2940   -0.4140   -6.6680 h1        1 40V      0.049200
     44 H7         -2.0720   -3.1850   -4.3890 h1        1 40V      0.030700
     45 H8         -3.3590   -1.8990   -4.4840 h1        1 40V      0.030700
     46 H9         -3.9470   -2.8190   -6.7800 h1        1 40V      0.031700
     47 H10        -1.6470   -0.1930   -2.0310 hx        1 40V      0.097700
     48 H11        -2.7150   -1.6540   -2.3050 hx        1 40V      0.097700
     49 H12        -0.0770   -5.4710   -1.5370 h1        1 40V      0.072200
     50 H13         1.0470   -4.1600   -0.9160 h1        1 40V      0.072200
     51 H14        -2.8390   -6.9280  -11.2060 ha        1 40V      0.139000
     52 H15        -2.9390   -8.3760   -9.1860 ha        1 40V      0.139000
     53 H16         3.6690    1.6200    4.6860 ha        1 40V      0.179000
     54 H17         1.3460    1.9560    3.8390 ha        1 40V      0.196000
     55 H18        -2.6650   -4.4470  -10.9800 ha        1 40V      0.135500
     56 H19        -2.8660   -7.3710   -6.9020 ha        1 40V      0.135500
     57 H20        -1.0020    0.1860   -0.0810 ha        1 40V      0.166000
     58 H21         5.2570    0.1190    3.4040 h4        1 40V      0.055100
     59 H22        -1.6540   -4.6810   -5.9330 hc        1 40V      0.057700
     60 H23        -3.4500   -4.8120   -5.6940 hc        1 40V      0.057700
     61 H24        -1.6500    1.3240   -6.3520 hc        1 40V      0.064700
     62 H25        -0.2860    0.1450   -6.1790 hc        1 40V      0.064700
     63 H26        -0.2970   -1.4290   -4.1700 hc        1 40V      0.096700
     64 H27         0.5250   -5.4020    1.2920 h1        1 40V      0.054367
     65 H28        -0.8510   -6.3530    0.5350 h1        1 40V      0.054367
     66 H29        -1.2040   -5.1290    1.8650 h1        1 40V      0.054367
     67 H30        -1.7130   -3.8160   -2.3540 hx        1 40V      0.118200
     68 H31        -0.0570   -3.4880   -3.0940 hx        1 40V      0.118200
     69 H33         3.9730   -1.7130   -0.0110 ho        1 40V      0.490000
     70 H311       -1.1180   -2.1070   -0.6820 hn        1 40V      0.470800
@<TRIPOS>BOND
     1    1    3 ar  
     2    1   17 ar  
     3    1   23 1   
     4    2    3 ar  
     5    2   19 ar  
     6    2   29 ar  
     7    3   36 1   
     8    4    8 1   
     9    4   20 1   
    10    4   38 1   
    11    4   39 1   
    12    5   25 1   
    13    5   26 1   
    14    5   40 1   
    15    5   41 1   
    16    6   25 1   
    17    6   30 1   
    18    6   42 1   
    19    6   43 1   
    20    7   26 1   
    21    7   30 1   
    22    7   44 1   
    23    7   45 1   
    24    8   24 1   
    25    8   30 1   
    26    8   46 1   
    27    9   26 1   
    28    9   31 1   
    29    9   47 1   
    30    9   48 1   
    31   10   28 1   
    32   10   37 1   
    33   10   49 1   
    34   10   50 1   
    35   11   12 ar  
    36   11   15 ar  
    37   11   51 1   
    38   12   16 ar  
    39   12   52 1   
    40   13   14 ar  
    41   13   18 ar  
    42   13   53 1   
    43   14   19 ar  
    44   14   54 1   
    45   15   20 ar  
    46   15   55 1   
    47   16   21 ar  
    48   16   56 1   
    49   17   22 ar  
    50   17   57 1   
    51   18   29 ar  
    52   18   58 1   
    53   19   22 ar  
    54   20   21 ar  
    55   21   24 1   
    56   22   32 1   
    57   23   31 1   
    58   23   34 2   
    59   24   59 1   
    60   24   60 1   
    61   25   61 1   
    62   25   62 1   
    63   26   63 1   
    64   27   37 1   
    65   27   64 1   
    66   27   65 1   
    67   27   66 1   
    68   28   31 1   
    69   28   67 1   
    70   28   68 1   
    71   31   70 1   
    72   32   33 1   
    73   32   35 1   
    74   36   69 1   
@<TRIPOS>SUBSTRUCTURE
     1 40V         1 TEMP              0 ****  ****    0 ROOT
