@<TRIPOS>MOLECULE
40V
   70    74     1     0     0
SMALL
bcc


@<TRIPOS>ATOM
      1 C10         0.9670   -0.7870   -0.2930 ca        1 40V     -0.273600
      2 C13         2.6080   -0.2610    1.4750 ca        1 40V      0.309600
      3 C15         2.2410   -0.9630    0.2660 ca        1 40V      0.240800
      4 C17        -2.5090   -3.0970   -8.4500 c3        1 40V     -0.030600
      5 C20        -1.5030    0.2610   -4.5100 c3        1 40V     -0.075400
      6 C21        -2.1050   -0.7330   -6.7390 c3        1 40V      0.157800
      7 C22        -2.2540   -2.1090   -4.7610 c3        1 40V      0.171800
      8 C24        -2.8210   -3.0420   -6.9230 c3        1 40V      0.176500
      9 C26        -1.6510   -1.2000   -2.4920 c3        1 40V      0.116800
     10 C28        -0.1270   -4.4330   -1.0860 c3        1 40V      0.101400
     11 C01        -2.8530   -6.4920  -10.1810 ca        1 40V     -0.122500
     12 C02        -2.9530   -7.2870   -9.0420 ca        1 40V     -0.122500
     13 C03         3.3410    1.0540    3.7880 ca        1 40V     -0.188300
     14 C04         2.0770    1.2700    3.2910 ca        1 40V     -0.088000
     15 C05        -2.7080   -5.1030  -10.0750 ca        1 40V     -0.112000
     16 C06        -2.9090   -6.7140   -7.7640 ca        1 40V     -0.112000
     17 C07         0.0440    0.0780    0.3330 ca        1 40V     -0.020000
     18 C08         4.2170    0.1660    3.0900 ca        1 40V      0.441200
     19 C09         1.6650    0.6150    2.0940 ca        1 40V     -0.043300
     20 C11        -2.6640   -4.5340   -8.8130 ca        1 40V     -0.093300
     21 C12        -2.7640   -5.3400   -7.6570 ca        1 40V     -0.093300
     22 C14         0.3770    0.7650    1.4850 ca        1 40V     -0.173200
     23 C16         0.6500   -1.4700   -1.5500 c         1 40V      0.585700
     24 C18        -2.6820   -4.5110   -6.4210 c3        1 40V     -0.030600
     25 C19        -1.2420    0.2880   -6.0010 c3        1 40V     -0.080400
     26 C23        -1.3230   -1.1590   -3.9870 c3        1 40V     -0.094700
     27 C25        -0.7150   -5.3390    1.0300 c3        1 40V      0.118700
     28 C27        -0.7140   -3.4720   -2.1230 c3        1 40V      0.104800
     29 N29         3.8730   -0.4700    1.9840 nb        1 40V     -0.670000
     30 N30        -1.9880   -2.0830   -6.1930 n3        1 40V     -0.718600
     31 N31        -0.7530   -2.0540   -1.6440 n4        1 40V     -0.590200
     32 N32        -0.6710    1.6630    2.0570 no        1 40V      0.319200
     33 O33        -0.3670    2.5590    2.7900 o         1 40V     -0.186000
     34 O34         1.3890   -1.6470   -2.5080 o         1 40V     -0.406100
     35 O35        -1.8100    1.4540    1.7300 o         1 40V     -0.186000
     36 O36         3.0600   -1.8370   -0.3630 oh        1 40V     -0.465100
     37 O37        -0.8970   -4.2770    0.0990 os        1 40V     -0.460600
     38 H1         -3.2180   -2.4420   -9.0130 hc        1 40V      0.057700
     39 H2         -1.4630   -2.7620   -8.6750 hc        1 40V      0.057700
     40 H3         -0.7940    0.9560   -3.9900 hc        1 40V      0.050200
     41 H4         -2.5470    0.6130   -4.2990 hc        1 40V      0.050200
     42 H5         -3.1770   -0.3760   -6.7250 h1        1 40V      0.049200
     43 H6         -1.7700   -0.7690   -7.8140 h1        1 40V      0.049200
     44 H7         -3.3250   -1.8310   -4.5250 h1        1 40V      0.030700
     45 H8         -2.0860   -3.1600   -4.3950 h1        1 40V      0.030700
     46 H9         -3.9130   -2.7580   -6.8170 h1        1 40V      0.031700
     47 H10        -1.5890   -0.1560   -2.0670 hx        1 40V      0.097700
     48 H11        -2.7030   -1.5820   -2.3400 hx        1 40V      0.097700
     49 H12        -0.2100   -5.4790   -1.4890 h1        1 40V      0.072200
     50 H13         0.9490   -4.2000   -0.8670 h1        1 40V      0.072200
     51 H14        -2.8900   -6.9570  -11.1780 ha        1 40V      0.139000
     52 H15        -3.0690   -8.3760   -9.1420 ha        1 40V      0.139000
     53 H16         3.6910    1.5490    4.7080 ha        1 40V      0.179000
     54 H17         1.3930    1.9580    3.8220 ha        1 40V      0.196000
     55 H18        -2.6310   -4.4810  -10.9790 ha        1 40V      0.135500
     56 H19        -2.9910   -7.3460   -6.8700 ha        1 40V      0.135500
     57 H20        -0.9580    0.2260   -0.1130 ha        1 40V      0.166000
     58 H21         5.2420   -0.0230    3.4680 h4        1 40V      0.055100
     59 H22        -3.5010   -4.7540   -5.7000 hc        1 40V      0.057700
     60 H23        -1.6990   -4.6890   -5.9160 hc        1 40V      0.057700
     61 H24        -0.1580    0.0830   -6.1990 hc        1 40V      0.064700
     62 H25        -1.4770    1.3070   -6.4050 hc        1 40V      0.064700
     63 H26        -0.2530   -1.4650   -4.1720 hc        1 40V      0.096700
     64 H27        -1.3730   -5.0580    1.8910 h1        1 40V      0.054367
     65 H28        -1.0420   -6.3090    0.5820 h1        1 40V      0.054367
     66 H29         0.3540   -5.3960    1.3470 h1        1 40V      0.054367
     67 H30        -0.1000   -3.5160   -3.0680 hx        1 40V      0.118200
     68 H31        -1.7760   -3.7790   -2.3490 hx        1 40V      0.118200
     69 H33         3.9430   -1.8490    0.0560 ho        1 40V      0.490000
     70 H311       -1.1460   -2.0710   -0.6880 hn        1 40V      0.470800
@<TRIPOS>BOND
     1    1    3 ar  
     2    1   17 ar  
     3    1   23 1   
     4    2    3 ar  
     5    2   19 ar  
     6    2   29 ar  
     7    3   36 1   
     8    4    8 1   
     9    4   20 1   
    10    4   38 1   
    11    4   39 1   
    12    5   25 1   
    13    5   26 1   
    14    5   40 1   
    15    5   41 1   
    16    6   25 1   
    17    6   30 1   
    18    6   42 1   
    19    6   43 1   
    20    7   26 1   
    21    7   30 1   
    22    7   44 1   
    23    7   45 1   
    24    8   24 1   
    25    8   30 1   
    26    8   46 1   
    27    9   26 1   
    28    9   31 1   
    29    9   47 1   
    30    9   48 1   
    31   10   28 1   
    32   10   37 1   
    33   10   49 1   
    34   10   50 1   
    35   11   12 ar  
    36   11   15 ar  
    37   11   51 1   
    38   12   16 ar  
    39   12   52 1   
    40   13   14 ar  
    41   13   18 ar  
    42   13   53 1   
    43   14   19 ar  
    44   14   54 1   
    45   15   20 ar  
    46   15   55 1   
    47   16   21 ar  
    48   16   56 1   
    49   17   22 ar  
    50   17   57 1   
    51   18   29 ar  
    52   18   58 1   
    53   19   22 ar  
    54   20   21 ar  
    55   21   24 1   
    56   22   32 1   
    57   23   31 1   
    58   23   34 2   
    59   24   59 1   
    60   24   60 1   
    61   25   61 1   
    62   25   62 1   
    63   26   63 1   
    64   27   37 1   
    65   27   64 1   
    66   27   65 1   
    67   27   66 1   
    68   28   31 1   
    69   28   67 1   
    70   28   68 1   
    71   31   70 1   
    72   32   33 1   
    73   32   35 1   
    74   36   69 1   
@<TRIPOS>SUBSTRUCTURE
     1 40V         1 TEMP              0 ****  ****    0 ROOT
