@<TRIPOS>MOLECULE
40W
   43    44     1     0     0
SMALL
bcc


@<TRIPOS>ATOM
      1 N1          0.6720   -0.2040    1.0580 nz        1 40W     -0.763400
      2 C4          4.5800   -1.1050   -6.6550 cc        1 40W     -0.188600
      3 C5          4.8010   -1.9920   -7.8060 c         1 40W      0.604900
      4 C6          3.6100   -2.6280   -8.4000 ce        1 40W     -0.275200
      5 C7          2.6780   -1.9940   -9.1250 c2        1 40W     -0.043400
      6 C8          3.0650   -2.5970   -5.2180 c3        1 40W     -0.047800
      7 C10         2.7130   -0.5410   -9.4190 c3        1 40W     -0.076400
      8 C13         3.5720    0.9210   -1.1540 ca        1 40W     -0.024000
      9 C15         1.7050   -0.5350   -1.6840 ca        1 40W     -0.024000
     10 C17         1.9360    0.5220    0.6000 c         1 40W      0.582700
     11 O1          2.4190    1.2300    1.4740 o         1 40W     -0.433100
     12 C14         2.3780    0.2800   -0.7550 ca        1 40W     -0.261600
     13 C12         4.0790    0.7460   -2.4270 ca        1 40W     -0.180000
     14 C16         2.2030   -0.7140   -2.9600 ca        1 40W     -0.180000
     15 C11         3.4130   -0.0850   -3.3720 ca        1 40W      0.147800
     16 N           3.9260   -0.2430   -4.6480 na        1 40W     -0.026200
     17 C2          4.7860    0.7020   -5.2690 cd        1 40W     -0.167300
     18 C3          3.8120   -1.3630   -5.5170 cd        1 40W     -0.037600
     19 C1          5.1930    0.2060   -6.4980 cc        1 40W     -0.049300
     20 C           6.0660    0.8670   -7.4710 c3        1 40W     -0.051800
     21 H1          0.4770    0.0360    2.0380 hn        1 40W      0.464467
     22 H2          0.8030   -1.2140    0.9770 hn        1 40W      0.464467
     23 H3          3.4360   -3.4160   -5.8880 hc        1 40W      0.062367
     24 H4          3.5720   -3.7210   -8.2510 ha        1 40W      0.151000
     25 H5          1.9720   -2.4590   -5.4200 hc        1 40W      0.062367
     26 H6          3.2040   -2.9210   -4.1560 hc        1 40W      0.062367
     27 H7          1.7170   -0.0770   -9.2120 hc        1 40W      0.052867
     28 H8          2.9520   -0.3830  -10.5020 hc        1 40W      0.052867
     29 H9          3.4870   -0.0130   -8.8070 hc        1 40W      0.052867
     30 H10         5.0240    1.2490   -2.6970 ha        1 40W      0.175500
     31 H11         1.6320   -1.3340   -3.6710 ha        1 40W      0.175500
     32 H12         4.1100    1.5620   -0.4320 ha        1 40W      0.148000
     33 H13         0.7610   -1.0410   -1.4300 ha        1 40W      0.148000
     34 H14         5.0080    1.6590   -4.7960 h4        1 40W      0.180000
     35 H15         0.5690   -2.3020   -9.3550 hc        1 40W      0.052867
     36 H16         1.5630   -3.8170   -9.4750 hc        1 40W      0.052867
     37 H17         1.5600   -2.6210  -10.8390 hc        1 40W      0.052867
     38 H18         6.7550    0.1170   -7.9400 hc        1 40W      0.064700
     39 H19         5.4530    1.3350   -8.2840 hc        1 40W      0.064700
     40 H20         6.6780    1.6660   -6.9850 hc        1 40W      0.064700
     41 C9          1.5350   -2.7280   -9.7250 c3        1 40W     -0.076400
     42 H131       -0.1200    0.0790    0.4770 hn        1 40W      0.464467
     43 O           5.9390   -2.2070   -8.2360 o         1 40W     -0.498100
@<TRIPOS>BOND
     1    1   10 1   
     2    1   21 1   
     3    1   22 1   
     4    1   42 1   
     5    2    3 1   
     6    2   18 2   
     7    2   19 1   
     8    3    4 1   
     9    3   43 2   
    10    4    5 2   
    11    4   24 1   
    12    5    7 1   
    13    5   41 1   
    14    6   18 1   
    15    6   23 1   
    16    6   25 1   
    17    6   26 1   
    18    7   27 1   
    19    7   28 1   
    20    7   29 1   
    21    8   12 ar  
    22    8   13 ar  
    23    8   32 1   
    24    9   12 ar  
    25    9   14 ar  
    26    9   33 1   
    27   10   11 2   
    28   10   12 1   
    29   13   15 ar  
    30   13   30 1   
    31   14   15 ar  
    32   14   31 1   
    33   15   16 1   
    34   16   17 1   
    35   16   18 1   
    36   17   19 2   
    37   17   34 1   
    38   19   20 1   
    39   20   38 1   
    40   20   39 1   
    41   20   40 1   
    42   35   41 1   
    43   36   41 1   
    44   37   41 1   
@<TRIPOS>SUBSTRUCTURE
     1 40W         1 TEMP              0 ****  ****    0 ROOT
