@<TRIPOS>MOLECULE
40W
   43    43     1     0     0
SMALL
bcc


@<TRIPOS>ATOM
      1 N1          0.2180    0.1520    0.2880 n4        1 40W     -0.149000
      2 C4          4.9430   -1.3720   -6.8030 c2        1 40W     -0.212000
      3 C5          5.1900   -2.3670   -7.8700 c2        1 40W      0.322000
      4 C6          4.0150   -2.6390   -8.6960 c2        1 40W     -0.303000
      5 C7          2.8620   -1.9590   -8.4720 c2        1 40W     -0.046000
      6 C8          3.5290   -2.8360   -5.2030 c3        1 40W     -0.185000
      7 C10         2.6880   -1.0810   -7.3720 c1        1 40W     -0.120000
      8 C13         3.4260    1.0700   -1.5610 ca        1 40W     -0.028500
      9 C15         1.6090   -0.3840   -2.2540 ca        1 40W     -0.028500
     10 C17         1.5420    0.8360   -0.0420 c2        1 40W      0.322000
     11 O1          1.9070    1.6110    0.8320 o         1 40W     -0.191000
     12 C14         2.1690    0.4840   -1.2980 ca        1 40W     -0.233000
     13 C12         4.1090    0.7880   -2.7300 ca        1 40W     -0.172000
     14 C16         2.2810   -0.6710   -3.4260 ca        1 40W     -0.172000
     15 C11         3.5610   -0.1040   -3.6900 ca        1 40W      0.185000
     16 N           4.2560   -0.3980   -4.8550 na        1 40W     -0.132000
     17 C2          5.1250    0.5100   -5.5140 c2        1 40W     -0.137000
     18 C3          4.1570   -1.5730   -5.6460 c2        1 40W      0.079000
     19 C1          5.5620   -0.0590   -6.7020 c2        1 40W     -0.047000
     20 C           6.4840    0.5230   -7.6790 c3        1 40W     -0.175000
     21 H1         -0.1080    0.4610    1.2120 hn        1 40W      0.260667
     22 H2          0.3440   -0.8630    0.2960 hn        1 40W      0.260667
     23 H3          4.1170   -3.3980   -9.4820 ha        1 40W      0.167000
     24 H4          4.0840   -3.6950   -5.6640 hc        1 40W      0.112667
     25 H5          3.5630   -2.9480   -4.0910 hc        1 40W      0.112667
     26 H6          2.4630   -2.8810   -5.5500 hc        1 40W      0.112667
     27 H7          0.6120   -1.7450   -6.2880 ha        1 40W      0.001000
     28 H8          0.1700   -1.8850   -5.7920 ha        1 40W      0.001000
     29 H9          2.7920    0.0020   -7.4490 ha        1 40W      0.113000
     30 H10         5.0960    1.2520   -2.9010 ha        1 40W      0.183000
     31 H11         1.8040   -1.3240   -4.1810 ha        1 40W      0.183000
     32 H12         3.8710    1.7570   -0.8180 ha        1 40W      0.149500
     33 H13         0.6200   -0.8440   -2.1080 ha        1 40W      0.149500
     34 H14         5.3480    1.4880   -5.0840 h4        1 40W      0.183000
     35 H15         0.7190   -2.1190   -8.6780 hc        1 40W      0.102333
     36 H16         1.6820   -3.1790   -9.7960 hc        1 40W      0.102333
     37 H17         1.5920   -1.3920  -10.0980 hc        1 40W      0.102333
     38 H18         7.1620   -0.2720   -8.0850 hc        1 40W      0.104667
     39 H19         5.9160    0.9690   -8.5350 hc        1 40W      0.104667
     40 H20         7.1090    1.3250   -7.2130 hc        1 40W      0.104667
     41 C9          1.6450   -2.1770   -9.3020 c3        1 40W     -0.183000
     42 H131       -0.4840    0.3960   -0.4150 hn        1 40W      0.260667
     43 O           6.2930   -2.8970   -8.0310 o         1 40W     -0.265000
@<TRIPOS>BOND
     1    1   10 1   
     2    1   21 1   
     3    1   22 1   
     4    1   42 1   
     5    2    3 1   
     6    2   18 1   
     7    2   19 1   
     8    3    4 1   
     9    3   43 1   
    10    4    5 1   
    11    4   23 1   
    12    5    7 1   
    13    5   41 1   
    14    6   18 1   
    15    6   24 1   
    16    6   25 1   
    17    6   26 1   
    18    7   29 1   
    19    8   12 1   
    20    8   13 1   
    21    8   32 1   
    22    9   12 1   
    23    9   14 1   
    24    9   33 1   
    25   10   11 1   
    26   10   12 1   
    27   13   15 1   
    28   13   30 1   
    29   14   15 1   
    30   14   31 1   
    31   15   16 1   
    32   16   17 1   
    33   16   18 1   
    34   17   19 1   
    35   17   34 1   
    36   19   20 1   
    37   20   38 1   
    38   20   39 1   
    39   20   40 1   
    40   27   28 1   
    41   35   41 1   
    42   36   41 1   
    43   37   41 1   
@<TRIPOS>SUBSTRUCTURE
     1 40W         1 TEMP              0 ****  ****    0 ROOT
