@<TRIPOS>MOLECULE
40X
   57    60     1     0     0
SMALL
bcc


@<TRIPOS>ATOM
      1 N1          0.2860    1.0170   -0.3160 n4        1 40X     -0.770400
      2 C4          2.4410   -0.8460    6.1880 c3        1 40X     -0.043100
      3 C5          3.5800    0.0920    6.1580 cc        1 40X     -0.132600
      4 C6          4.4270    0.4790    7.1990 cd        1 40X     -0.022300
      5 C7          5.4490    1.3250    6.6200 cd        1 40X     -0.207600
      6 C8          5.2030    1.4240    5.2420 cc        1 40X     -0.028600
      7 C10         4.1050    0.4780    2.5060 ca        1 40X     -0.154000
      8 C13         1.3090    0.2670    2.4640 ca        1 40X     -0.093000
      9 C15         1.3290   -0.0560    0.0130 c         1 40X      0.593700
     10 C17         6.8290    3.2890    5.0560 c3        1 40X     -0.038000
     11 C20         5.9080    4.4310    5.4580 c3        1 40X     -0.095100
     12 C21         7.9060    3.8240    4.1200 c3        1 40X     -0.095100
     13 C22         4.3140    0.0910    8.6070 c3        1 40X     -0.054800
     14 C19         6.5680    2.0140    7.2510 c         1 40X      0.605700
     15 C18         7.5070    2.7010    6.2930 c3        1 40X     -0.176400
     16 C16         6.0310    2.2120    4.3030 c3        1 40X     -0.023100
     17 N           4.0550    0.6700    4.9440 na        1 40X     -0.009200
     18 C9          3.3960    0.5480    3.7260 ca        1 40X      0.101800
     19 C14         1.9660    0.4650    3.6760 ca        1 40X      0.101100
     20 C12         2.0370    0.1910    1.2660 ca        1 40X     -0.236600
     21 O1          1.4040   -0.9470   -0.8110 o         1 40X     -0.375100
     22 C11         3.4370    0.3060    1.2940 ca        1 40X      0.091400
     23 CL          4.3390    0.2520   -0.1360 cl        1 40X     -0.025400
     24 O           1.1850    0.7640    4.7690 os        1 40X     -0.328900
     25 C3          1.1070   -0.2070    5.8320 c3        1 40X      0.144100
     26 C2          0.0760   -1.2770    5.4910 c3        1 40X     -0.109400
     27 C1         -1.3250   -0.7070    5.4370 c3        1 40X     -0.079400
     28 C          -2.3320   -1.7570    5.0450 c3        1 40X     -0.097100
     29 H1         -0.3220    1.1710    0.4930 hn        1 40X      0.465467
     30 H2         -0.2790    0.7330   -1.1230 hn        1 40X      0.465467
     31 H3          2.3630   -1.2650    7.2300 hc        1 40X      0.079700
     32 H4          2.6410   -1.7090    5.4940 hc        1 40X      0.079700
     33 H5          5.2090    0.5470    2.5070 ha        1 40X      0.189000
     34 H6          0.2120    0.1670    2.4810 ha        1 40X      0.154000
     35 H7          5.4410    4.8910    4.5550 hc        1 40X      0.045200
     36 H8          5.1000    4.0590    6.1330 hc        1 40X      0.045200
     37 H9          6.4880    5.2200    5.9970 hc        1 40X      0.045200
     38 H10         8.4850    4.6320    4.6280 hc        1 40X      0.045200
     39 H11         7.4400    4.2470    3.1980 hc        1 40X      0.045200
     40 H12         8.6130    3.0120    3.8250 hc        1 40X      0.045200
     41 H13         4.4570   -1.0140    8.7200 hc        1 40X      0.065700
     42 H14         5.0910    0.6150    9.2220 hc        1 40X      0.065700
     43 H15         3.3030    0.3560    9.0080 hc        1 40X      0.065700
     44 H16         8.0500    3.5190    6.8380 hc        1 40X      0.083200
     45 H17         8.2710    1.9420    5.9740 hc        1 40X      0.083200
     46 H18         6.7530    1.5200    3.7860 hc        1 40X      0.059700
     47 H19         5.4000    2.7040    3.5160 hc        1 40X      0.059700
     48 H20         0.7400    0.4420    6.6830 h1        1 40X      0.104700
     49 H21         0.1270   -2.0830    6.2690 hc        1 40X      0.055200
     50 H22         0.3360   -1.7410    4.5040 hc        1 40X      0.055200
     51 H23        -1.5960   -0.2830    6.4410 hc        1 40X      0.044700
     52 H24        -1.3480    0.1420    4.7040 hc        1 40X      0.044700
     53 H25        -2.3320   -2.5980    5.7800 hc        1 40X      0.039367
     54 H26        -3.3580   -1.3170    5.0160 hc        1 40X      0.039367
     55 H27        -2.0980   -2.1760    4.0360 hc        1 40X      0.039367
     56 H131        0.7670    1.8940   -0.5340 hn        1 40X      0.465467
     57 O2          6.7660    2.0240    8.4700 o         1 40X     -0.517100
@<TRIPOS>BOND
     1    1    9 1   
     2    1   29 1   
     3    1   30 1   
     4    1   56 1   
     5    2    3 1   
     6    2   25 1   
     7    2   31 1   
     8    2   32 1   
     9    3    4 2   
    10    3   17 1   
    11    4    5 1   
    12    4   13 1   
    13    5    6 2   
    14    5   14 1   
    15    6   16 1   
    16    6   17 1   
    17    7   18 ar  
    18    7   22 ar  
    19    7   33 1   
    20    8   19 ar  
    21    8   20 ar  
    22    8   34 1   
    23    9   20 1   
    24    9   21 2   
    25   10   11 1   
    26   10   12 1   
    27   10   15 1   
    28   10   16 1   
    29   11   35 1   
    30   11   36 1   
    31   11   37 1   
    32   12   38 1   
    33   12   39 1   
    34   12   40 1   
    35   13   41 1   
    36   13   42 1   
    37   13   43 1   
    38   14   15 1   
    39   14   57 2   
    40   15   44 1   
    41   15   45 1   
    42   16   46 1   
    43   16   47 1   
    44   17   18 1   
    45   18   19 ar  
    46   19   24 1   
    47   20   22 ar  
    48   22   23 1   
    49   24   25 1   
    50   25   26 1   
    51   25   48 1   
    52   26   27 1   
    53   26   49 1   
    54   26   50 1   
    55   27   28 1   
    56   27   51 1   
    57   27   52 1   
    58   28   53 1   
    59   28   54 1   
    60   28   55 1   
@<TRIPOS>SUBSTRUCTURE
     1 40X         1 TEMP              0 ****  ****    0 ROOT
