@<TRIPOS>MOLECULE
40Y
   48    48     1     0     0
SMALL
bcc


@<TRIPOS>ATOM
      1 N1         -0.1320    1.6260    0.3990 n4        1 40Y     -0.174000
      2 C4          4.9740    0.0050    6.3460 c2        1 40Y     -0.364000
      3 C5          4.9710    0.0050    7.7640 c2        1 40Y      0.301000
      4 C6          3.6720   -0.3500    8.4840 c3        1 40Y     -0.173000
      5 C7          3.8710   -1.6260    9.2690 c2        1 40Y     -0.034000
      6 C8          3.2190   -1.6510    5.6110 c2        1 40Y     -0.295000
      7 C10         4.5930   -1.4530   10.5700 c3        1 40Y     -0.183000
      8 C13         1.4500    0.2220    2.0510 c1        1 40Y     -0.221000
      9 C15         3.3820    0.2130    0.5190 c1        1 40Y      0.010000
     10 C17         5.9730    0.5930    0.7270 c1        1 40Y     -0.001000
     11 C19         1.2860    1.3090   -0.1120 c2        1 40Y      0.368000
     12 C14         2.0690    0.5770    0.8670 c2        1 40Y     -0.358000
     13 C12         2.1650   -0.5220    3.0840 c3        1 40Y     -0.148000
     14 C16         4.1180   -0.5610    1.5510 c3        1 40Y      0.007000
     15 O1          5.5390   -0.5100    1.3190 os        1 40Y     -0.181000
     16 C18         6.1560    1.5750    3.1820 c3        1 40Y     -0.169000
     17 C2          5.5700    0.7090    4.2180 c2        1 40Y     -0.185000
     18 C11         3.6760   -0.3590    2.9850 c2        1 40Y      0.006000
     19 N           4.4090   -0.1030    4.0590 na        1 40Y      0.045000
     20 C3          4.0620   -0.6190    5.4030 c2        1 40Y      0.093000
     21 C1          5.9300    0.7480    5.5720 c2        1 40Y      0.104000
     22 C           7.0760    1.4640    6.1380 c3        1 40Y     -0.190000
     23 H1         -0.2330    1.1530    1.3250 hn        1 40Y      0.254000
     24 H2         -0.8270    1.2810   -0.2590 hn        1 40Y      0.254000
     25 H3          3.4460    0.4710    9.2200 hc        1 40Y      0.144500
     26 H4          2.8090   -0.4320    7.7760 hc        1 40Y      0.144500
     27 H5          2.6380   -2.1640    4.8400 ha        1 40Y      0.116000
     28 H6          3.1250   -2.0910    6.6120 ha        1 40Y      0.116000
     29 H7          3.9330   -0.8760   11.2690 hc        1 40Y      0.146333
     30 H8          4.8640   -2.4310   11.0330 hc        1 40Y      0.146333
     31 H9          5.5270   -0.8550   10.3700 hc        1 40Y      0.146333
     32 H10         1.8830   -1.6090    2.9570 hc        1 40Y      0.143000
     33 H11         3.8870   -1.6640    1.3460 h1        1 40Y      0.164000
     34 H12         7.0520    0.4100    0.4750 ha        1 40Y      0.047000
     35 H13         5.4130    1.8540    2.3880 hc        1 40Y      0.108333
     36 H14         1.7860   -0.1910    4.0920 hc        1 40Y      0.143000
     37 H15         6.5020    2.5300    3.6590 hc        1 40Y      0.108333
     38 H16         7.0520    1.0860    2.7210 hc        1 40Y      0.108333
     39 H17         0.6770   -2.1290    7.7340 ha        1 40Y      0.002500
     40 H18         1.3270   -2.2300    7.9030 ha        1 40Y      0.002500
     41 H19         3.1600   -3.7310    8.4690 ha        1 40Y      0.274000
     42 H20         6.7230    2.2210    6.8860 hc        1 40Y      0.113000
     43 H21         7.6820    1.9760    5.3510 hc        1 40Y      0.113000
     44 H22         7.7310    0.7390    6.6890 hc        1 40Y      0.113000
     45 C9          3.4760   -2.7690    8.8260 c1        1 40Y      0.131000
     46 O2          1.5090    1.7230   -1.2370 o         1 40Y     -0.204000
     47 H131       -0.2450    2.6310    0.5040 hn        1 40Y      0.254000
     48 O           5.9410    0.3300    8.4750 o         1 40Y     -0.347000
@<TRIPOS>BOND
     1    1   11 1   
     2    1   23 1   
     3    1   24 1   
     4    1   47 1   
     5    2    3 1   
     6    2   20 1   
     7    2   21 1   
     8    3    4 1   
     9    3   48 1   
    10    4    5 1   
    11    4   25 1   
    12    4   26 1   
    13    5    7 1   
    14    5   45 1   
    15    6   20 1   
    16    6   27 1   
    17    6   28 1   
    18    7   29 1   
    19    7   30 1   
    20    7   31 1   
    21    8   12 1   
    22    8   13 1   
    23    9   12 1   
    24    9   14 1   
    25   10   15 1   
    26   10   34 1   
    27   11   12 1   
    28   11   46 1   
    29   13   18 1   
    30   13   32 1   
    31   13   36 1   
    32   14   15 1   
    33   14   18 1   
    34   14   33 1   
    35   16   17 1   
    36   16   35 1   
    37   16   37 1   
    38   16   38 1   
    39   17   19 1   
    40   17   21 1   
    41   18   19 1   
    42   19   20 1   
    43   21   22 1   
    44   22   42 1   
    45   22   43 1   
    46   22   44 1   
    47   39   40 1   
    48   41   45 1   
@<TRIPOS>SUBSTRUCTURE
     1 40Y         1 TEMP              0 ****  ****    0 ROOT
