@<TRIPOS>MOLECULE
40Y
   48    47     1     0     0
SMALL
bcc


@<TRIPOS>ATOM
      1 N1          0.5890    1.5700   -0.4190 nt        1 40Y     -0.656000
      2 C4          5.3160    0.1720    6.8030 ce        1 40Y     -0.364800
      3 C5          5.5270   -0.6550    8.0350 c         1 40Y      0.578300
      4 C6          4.4070   -0.6280    9.0420 c3        1 40Y     -0.125200
      5 C7          3.3700   -1.6390    8.7090 c2        1 40Y     -0.231300
      6 C8          5.2280   -2.0490    5.6360 c3        1 40Y     -0.217400
      7 C10         2.6820   -3.5760   10.3030 c2        1 40Y     -0.209100
      8 C13         1.4860    0.2090    2.1360 c2        1 40Y     -0.074200
      9 C15         3.6810    0.5740    1.1570 ce        1 40Y      0.074800
     10 C17         4.4710    0.9020   -0.0750 c3        1 40Y      0.131600
     11 C19         1.6060    0.6640   -0.3000 c         1 40Y      0.663300
     12 C14         2.2360    0.4950    1.0510 ce        1 40Y     -0.164200
     13 C12         2.0520   -0.0460    3.4750 c3        1 40Y     -0.164500
     14 C16         4.2970    0.3610    2.3530 cf        1 40Y     -0.350600
     15 O1          5.8560    0.9600    0.1800 oh        1 40Y     -0.582800
     16 C18         5.4100    3.0980    4.7600 c1        1 40Y     -0.028500
     17 C2          5.4740    2.3380    5.6860 ch        1 40Y     -0.246300
     18 C11         3.5570    0.0450    3.5570 cf        1 40Y      0.621300
     19 N           4.1340   -0.0710    4.7120 n1        1 40Y     -0.610800
     20 C3          4.8620   -0.5900    5.6360 ce        1 40Y      0.645300
     21 C1          5.5960    1.5040    6.8130 cf        1 40Y      0.224100
     22 C           6.1160    2.1840    8.0300 c3        1 40Y     -0.096900
     23 H1          0.3850    0.1350    2.0740 ha        1 40Y      0.171000
     24 H2          0.1550    1.6980   -1.3030 hn        1 40Y      0.327500
     25 H3          4.8390   -0.8220   10.0630 hc        1 40Y      0.086200
     26 H4          3.9380    0.3940    9.0530 hc        1 40Y      0.086200
     27 H5          5.0060   -2.5600    4.6690 hc        1 40Y      0.102033
     28 H6          4.6600   -2.5610    6.4580 hc        1 40Y      0.102033
     29 H7          1.8890   -3.4600   11.0590 ha        1 40Y      0.152500
     30 H8          6.3250   -2.1430    5.8590 hc        1 40Y      0.102033
     31 H9          3.1590   -4.5690   10.2660 ha        1 40Y      0.152500
     32 H10         1.5890    0.6840    4.2050 hc        1 40Y      0.128200
     33 H11         5.3990    0.4410    2.4140 ha        1 40Y      0.187000
     34 H12         6.2260    0.0860    0.0020 ho        1 40Y      0.417000
     35 H13         4.1860    1.9380   -0.4200 h1        1 40Y      0.107700
     36 H14         1.7330   -1.0790    3.8130 hc        1 40Y      0.128200
     37 H15         4.2200    0.1650   -0.8900 h1        1 40Y      0.107700
     38 H16         5.3630    3.7770    3.9410 ha        1 40Y      0.188500
     39 H17         1.8870   -2.7490    5.6920 ha        1 40Y      0.001500
     40 H18         2.8610   -1.5090    7.7380 ha        1 40Y      0.122000
     41 H19         2.4690   -2.4350    5.5410 ha        1 40Y      0.001500
     42 H20         7.1870    2.4740    7.8640 hc        1 40Y      0.082700
     43 H21         5.5310    3.1190    8.2270 hc        1 40Y      0.082700
     44 H22         6.0640    1.5290    8.9350 hc        1 40Y      0.082700
     45 C9          3.0300   -2.6100    9.5110 c1        1 40Y     -0.002800
     46 O2          1.9900   -0.0130   -1.2740 o         1 40Y     -0.582100
     47 H131        0.3080    2.1360    0.3390 hn        1 40Y      0.327500
     48 O           6.5610   -1.3020    8.1960 o         1 40Y     -0.479100
@<TRIPOS>BOND
     1    1   11 1   
     2    1   24 1   
     3    1   47 1   
     4    2    3 1   
     5    2   20 1   
     6    2   21 2   
     7    3    4 1   
     8    3   48 2   
     9    4    5 1   
    10    4   25 1   
    11    4   26 1   
    12    5   40 1   
    13    5   45 2   
    14    6   20 1   
    15    6   27 1   
    16    6   28 1   
    17    6   30 1   
    18    7   29 1   
    19    7   31 1   
    20    7   45 2   
    21    8   12 2   
    22    8   13 1   
    23    8   23 1   
    24    9   10 1   
    25    9   12 1   
    26    9   14 2   
    27   10   15 1   
    28   10   35 1   
    29   10   37 1   
    30   11   12 1   
    31   11   46 2   
    32   13   18 1   
    33   13   32 1   
    34   13   36 1   
    35   14   18 1   
    36   14   33 1   
    37   15   34 1   
    38   16   17 3   
    39   16   38 1   
    40   17   21 1   
    41   18   19 2   
    42   19   20 2   
    43   21   22 1   
    44   22   42 1   
    45   22   43 1   
    46   22   44 1   
    47   39   41 1   
@<TRIPOS>SUBSTRUCTURE
     1 40Y         1 TEMP              0 ****  ****    0 ROOT
