@<TRIPOS>MOLECULE
40Z
   59    61     1     0     0
SMALL
bcc


@<TRIPOS>ATOM
      1 N1         -0.4810    1.8220   -0.1890 nu        1 40Z     -0.215300
      2 C4         -0.1810    2.3590    5.0040 cc        1 40Z     -0.127200
      3 C5         -0.0740    2.3570    6.4760 c         1 40Z      0.586300
      4 C6          0.1440    1.0100    7.1160 c3        1 40Z     -0.137200
      5 C7          1.5570    0.8240    7.5640 c2        1 40Z     -0.135400
      6 C8         -2.3050    1.0330    4.8420 c2        1 40Z     -0.153000
      7 C10         2.1950   -0.4420    7.1310 c3        1 40Z     -0.059900
      8 C13        -3.9060    0.2880    1.7060 ce        1 40Z      0.122400
      9 C15        -2.0590    0.0440    0.1510 ce        1 40Z      0.031000
     10 C17         0.4960    2.6080    0.2630 ce        1 40Z      0.386500
     11 C20         0.4220    0.5970   -3.7490 c2        1 40Z      0.059900
     12 C21         0.7230   -0.4750   -4.7640 c3        1 40Z     -0.030000
     13 C22        -0.0450   -1.6510   -4.2250 c2        1 40Z     -0.230200
     14 Cl         -5.4830   -0.1180    2.2540 cl        1 40Z     -0.137400
     15 C12        -3.3880    1.4500    2.1660 c2        1 40Z     -0.239200
     16 C14        -3.2230   -0.5340    0.7510 ce        1 40Z     -0.343000
     17 N2         -4.7420   -2.5610    0.8620 nz        1 40Z     -0.749400
     18 O2         -2.9990   -2.4980   -0.6100 o         1 40Z     -0.588300
     19 C16        -1.5170    1.2300    0.5610 c2        1 40Z     -0.205300
     20 C19         0.8110    1.8690   -3.6920 c2        1 40Z     -0.274000
     21 O1         -0.4170    0.0610   -2.7400 os        1 40Z     -0.319200
     22 C23        -0.6690   -1.2860   -3.0850 c2        1 40Z     -0.001900
     23 C18         0.8040    2.9850    1.5720 ce        1 40Z     -0.413600
     24 C2          0.1440    2.6260    2.7380 cd        1 40Z      0.270000
     25 C11        -2.0420    1.9640    1.7770 c3        1 40Z      0.350900
     26 N          -1.0570    1.9520    2.8640 na        1 40Z     -0.499200
     27 C3         -1.3140    1.7270    4.2640 cc        1 40Z      0.093000
     28 C9          2.1780    1.7200    8.3370 c2        1 40Z     -0.196000
     29 O          -0.1550    3.4020    7.1230 o         1 40Z     -0.481100
     30 C1          0.6890    2.9010    4.1010 cd        1 40Z     -0.061200
     31 C           1.9370    3.6300    4.3330 c3        1 40Z     -0.061900
     32 H1         -0.1430    0.1980    6.3960 hc        1 40Z      0.075200
     33 H2         -0.5350    0.9330    8.0110 hc        1 40Z      0.075200
     34 H3         -2.3370    0.9400    5.9390 ha        1 40Z      0.148000
     35 H4         -3.1150    0.5300    4.3000 ha        1 40Z      0.148000
     36 H5          3.2350   -0.5290    7.5320 hc        1 40Z      0.046033
     37 H6          1.6020   -1.3180    7.4960 hc        1 40Z      0.046033
     38 H7          2.2420   -0.4920    6.0140 hc        1 40Z      0.046033
     39 H8         -1.6190   -0.5040   -0.7080 ha        1 40Z      0.164000
     40 H9         -1.3260   -1.7950   -2.3770 h4        1 40Z      0.197000
     41 H10         1.1770    2.9940   -0.5360 h4        1 40Z      0.044800
     42 H11         0.3650   -0.1790   -5.7830 hc        1 40Z      0.087700
     43 H12         1.8200   -0.6870   -4.8200 hc        1 40Z      0.087700
     44 H13        -2.1780    3.0640    1.5030 h1        1 40Z      0.080700
     45 H14        -5.6080   -2.0640    0.6380 hn        1 40Z      0.452800
     46 H15        -4.7760   -3.5040    0.4630 hn        1 40Z      0.452800
     47 H16         1.4600    2.2960   -4.4660 ha        1 40Z      0.127000
     48 H17         0.4990    2.5530   -2.8950 ha        1 40Z      0.127000
     49 H18        -0.4840    1.5870   -1.1710 hn        1 40Z      0.329700
     50 H19        -0.0590   -2.6180   -4.7220 ha        1 40Z      0.173000
     51 H20         1.7140    3.6020    1.6970 ha        1 40Z      0.180000
     52 H21        -3.9630    2.1130    2.8330 ha        1 40Z      0.163000
     53 H22         1.6930    2.6530    8.6580 ha        1 40Z      0.130500
     54 H23         3.2060    1.5730    8.6940 ha        1 40Z      0.130500
     55 H24         2.0990    3.7910    5.4300 hc        1 40Z      0.071367
     56 H25         1.9040    4.6310    3.8320 hc        1 40Z      0.071367
     57 H26         2.8080    3.0580    3.9220 hc        1 40Z      0.071367
     58 C24        -3.5530   -1.8170    0.2660 c2        1 40Z      0.577300
     59 H231       -4.6490   -2.6190    1.8770 hn        1 40Z      0.452800
@<TRIPOS>BOND
     1    1   10 2   
     2    1   19 1   
     3    1   49 1   
     4    2    3 1   
     5    2   27 1   
     6    2   30 2   
     7    3    4 1   
     8    3   29 2   
     9    4    5 1   
    10    4   32 1   
    11    4   33 1   
    12    5    7 1   
    13    5   28 2   
    14    6   27 2   
    15    6   34 1   
    16    6   35 1   
    17    7   36 1   
    18    7   37 1   
    19    7   38 1   
    20    8   14 1   
    21    8   15 2   
    22    8   16 1   
    23    9   16 1   
    24    9   19 2   
    25    9   39 1   
    26   10   23 1   
    27   10   41 1   
    28   11   12 1   
    29   11   20 2   
    30   11   21 1   
    31   12   13 1   
    32   12   42 1   
    33   12   43 1   
    34   13   22 2   
    35   13   50 1   
    36   15   25 1   
    37   15   52 1   
    38   16   58 2   
    39   17   45 1   
    40   17   46 1   
    41   17   58 1   
    42   17   59 1   
    43   18   58 1   
    44   19   25 1   
    45   20   47 1   
    46   20   48 1   
    47   21   22 1   
    48   22   40 1   
    49   23   24 2   
    50   23   51 1   
    51   24   26 1   
    52   24   30 1   
    53   25   26 1   
    54   25   44 1   
    55   26   27 1   
    56   28   53 1   
    57   28   54 1   
    58   30   31 1   
    59   31   55 1   
    60   31   56 1   
    61   31   57 1   
@<TRIPOS>SUBSTRUCTURE
     1 40Z         1 TEMP              0 ****  ****    0 ROOT
