@<TRIPOS>MOLECULE
410
   57    60     1     0     0
SMALL
bcc


@<TRIPOS>ATOM
      1 C1          3.5990    2.5540    0.5850 ca        1 410     -0.107000
      2 C2          4.0120    1.3940    1.2410 ca        1 410     -0.126000
      3 C3          3.1170    0.6910    2.0470 ca        1 410     -0.098500
      4 C4          1.8100    1.1610    2.2070 ca        1 410     -0.126600
      5 C5          1.3910    2.3160    1.5410 ca        1 410     -0.098500
      6 C6          2.2880    3.0090    0.7290 ca        1 410     -0.126000
      7 C7          0.8470    0.4040    3.0610 c         1 410      0.687700
      8 O1          0.1850   -0.5460    2.5890 o         1 410     -0.628100
      9 N1          0.6920    0.7860    4.3870 n         1 410     -0.384000
     10 C8          1.4230    1.8730    4.9500 ca        1 410      0.029600
     11 C9          0.7330    2.9900    5.4660 ca        1 410     -0.169000
     12 C10         1.4490    4.0450    6.0240 ca        1 410     -0.133000
     13 C11         2.8390    4.0200    6.0740 ca        1 410     -0.118000
     14 C12         3.5450    2.9200    5.5610 ca        1 410      0.069000
     15 C13         2.8270    1.8420    5.0180 ca        1 410     -0.134000
     16 C14         4.9860    2.8690    5.5930 cc        1 410     -0.163100
     17 C15         5.8760    3.8280    5.1170 cd        1 410     -0.043900
     18 C16         7.2520    3.4180    5.3050 cd        1 410      0.140100
     19 C17         7.3290    2.1770    5.9210 cc        1 410     -0.171700
     20 S1          5.8060    1.5500    6.2110 ss        1 410      0.034200
     21 C18         8.5200    1.3550    6.3760 c         1 410      0.939200
     22 O2          9.2580    1.8240    7.2820 o         1 410     -0.817800
     23 O3          8.6560    0.2040    5.8700 o         1 410     -0.817800
     24 O4          8.2220    4.2730    4.8800 os        1 410     -0.286900
     25 C19         9.5600    3.7470    4.7990 c3        1 410      0.007400
     26 C20        10.3720    4.7430    3.9340 c         1 410      0.916600
     27 O5         10.4680    4.5110    2.6950 o         1 410     -0.851300
     28 O6         10.9490    5.7080    4.5110 o         1 410     -0.851300
     29 BR1         5.3510    5.4120    4.3020 br        1 410     -0.099100
     30 C21        -0.2330    0.0960    5.2790 c3        1 410      0.126700
     31 C22         0.1210   -1.3880    5.4840 c3        1 410     -0.098900
     32 C23        -0.8010   -2.0110    6.5100 c3        1 410     -0.071900
     33 C24        -2.2540   -1.8770    6.1020 c3        1 410     -0.076400
     34 C25        -2.6170   -0.4280    5.8520 c3        1 410     -0.071900
     35 C26        -1.7010    0.2020    4.8250 c3        1 410     -0.098900
     36 H1          4.3160    3.1200   -0.0280 ha        1 410      0.139000
     37 H2          5.0530    1.0480    1.1470 ha        1 410      0.138500
     38 H3          3.4460   -0.2210    2.5690 ha        1 410      0.134500
     39 H5          0.3620    2.6810    1.6670 ha        1 410      0.134500
     40 H6          1.9650    3.9260    0.2170 ha        1 410      0.138500
     41 H9         -0.3650    3.0310    5.4300 ha        1 410      0.117000
     42 H10         0.9050    4.9120    6.4270 ha        1 410      0.116000
     43 H11         3.3960    4.8620    6.5120 ha        1 410      0.151000
     44 H13         3.3880    0.9800    4.6220 ha        1 410      0.150000
     45 H19         9.5400    2.7350    4.3230 h1        1 410      0.053700
     46 H19A        9.9710    3.6730    5.8380 h1        1 410      0.053700
     47 H21        -0.1530    0.6070    6.2870 h1        1 410      0.059700
     48 H22         1.1830   -1.4790    5.8340 hc        1 410      0.059200
     49 H22A        0.0320   -1.9300    4.5060 hc        1 410      0.059200
     50 H23        -0.5430   -3.0950    6.6280 hc        1 410      0.032700
     51 H23A       -0.6460   -1.5180    7.5060 hc        1 410      0.032700
     52 H24        -2.4350   -2.4720    5.1680 hc        1 410      0.033200
     53 H24A       -2.9130   -2.2990    6.9050 hc        1 410      0.033200
     54 H25        -3.6770   -0.3630    5.4930 hc        1 410      0.032700
     55 H25A       -2.5530    0.1440    6.8160 hc        1 410      0.032700
     56 H26        -1.8210   -0.3130    3.8350 hc        1 410      0.059200
     57 H26A       -1.9780    1.2800    4.6900 hc        1 410      0.059200
@<TRIPOS>BOND
     1    1    2 ar  
     2    1    6 ar  
     3    1   36 1   
     4    2    3 ar  
     5    2   37 1   
     6    3    4 ar  
     7    3   38 1   
     8    4    5 ar  
     9    4    7 1   
    10    5    6 ar  
    11    5   39 1   
    12    6   40 1   
    13    7    8 2   
    14    7    9 1   
    15    9   10 1   
    16    9   30 1   
    17   10   11 ar  
    18   10   15 ar  
    19   11   12 ar  
    20   11   41 1   
    21   12   13 ar  
    22   12   42 1   
    23   13   14 ar  
    24   13   43 1   
    25   14   15 ar  
    26   14   16 1   
    27   15   44 1   
    28   16   17 2   
    29   16   20 1   
    30   17   18 1   
    31   17   29 1   
    32   18   19 2   
    33   18   24 1   
    34   19   20 1   
    35   19   21 1   
    36   21   22 1   
    37   21   23 1   
    38   24   25 1   
    39   25   26 1   
    40   25   45 1   
    41   25   46 1   
    42   26   27 1   
    43   26   28 1   
    44   30   31 1   
    45   30   35 1   
    46   30   47 1   
    47   31   32 1   
    48   31   48 1   
    49   31   49 1   
    50   32   33 1   
    51   32   50 1   
    52   32   51 1   
    53   33   34 1   
    54   33   52 1   
    55   33   53 1   
    56   34   35 1   
    57   34   54 1   
    58   34   55 1   
    59   35   56 1   
    60   35   57 1   
@<TRIPOS>SUBSTRUCTURE
     1 410         1 TEMP              0 ****  ****    0 ROOT
