@<TRIPOS>MOLECULE
410
   57    60     1     0     0
SMALL
bcc


@<TRIPOS>ATOM
      1 C1          1.7840    2.0310   -3.4900 ca        1 410     -0.107000
      2 C2          1.7530    2.5720   -2.2050 ca        1 410     -0.126000
      3 C3          2.6360    2.1090   -1.2300 ca        1 410     -0.098500
      4 C4          3.5430    1.0920   -1.5430 ca        1 410     -0.126600
      5 C5          3.5850    0.5570   -2.8330 ca        1 410     -0.098500
      6 C6          2.7040    1.0310   -3.8050 ca        1 410     -0.126000
      7 C7          4.4980    0.6020   -0.5040 c         1 410      0.687700
      8 O1          5.5900    1.1810   -0.3150 o         1 410     -0.628100
      9 N1          4.1530   -0.5190    0.2400 n         1 410     -0.384000
     10 C8          2.9220   -1.2100    0.0380 ca        1 410      0.029600
     11 C9          2.9320   -2.5640   -0.3570 ca        1 410     -0.169000
     12 C10         1.7290   -3.2370   -0.5430 ca        1 410     -0.133000
     13 C11         0.5100   -2.5920   -0.3530 ca        1 410     -0.118000
     14 C12         0.4780   -1.2440    0.0350 ca        1 410      0.069000
     15 C13         1.6890   -0.5660    0.2470 ca        1 410     -0.134000
     16 C14        -0.7690   -0.5470    0.2320 cc        1 410     -0.163100
     17 C15        -1.8330   -0.4490   -0.6620 cd        1 410     -0.043900
     18 C16        -2.9110    0.3510   -0.1220 cd        1 410      0.141100
     19 C17        -2.6100    0.8090    1.1540 cc        1 410     -0.172700
     20 S1         -1.0870    0.3110    1.6310 ss        1 410      0.034200
     21 C18        -3.4200    1.6220    2.1450 c         1 410      0.939200
     22 O2         -4.4920    1.1310    2.5870 o         1 410     -0.817800
     23 O3         -2.9270    2.7200    2.5330 o         1 410     -0.817800
     24 O4         -4.0140    0.5230   -0.9010 os        1 410     -0.286900
     25 C19        -4.9370    1.5520   -0.5020 c3        1 410      0.007400
     26 C20        -5.8410    1.8320   -1.7280 c         1 410      0.916600
     27 O5         -5.5100    2.7720   -2.5070 o         1 410     -0.851300
     28 O6         -6.8970    1.1510   -1.8650 o         1 410     -0.851300
     29 BR1        -1.8360   -1.2180   -2.3520 br        1 410     -0.099100
     30 C21         5.0370   -1.0580    1.2670 c3        1 410      0.126700
     31 C22         5.3000   -0.0660    2.4150 c3        1 410     -0.098900
     32 C23         6.1220   -0.7270    3.5010 c3        1 410     -0.071900
     33 C24         7.4360   -1.2530    2.9600 c3        1 410     -0.076400
     34 C25         7.2050   -2.1990    1.8000 c3        1 410     -0.071900
     35 C26         6.3860   -1.5450    0.7070 c3        1 410     -0.098900
     36 H1          1.0670    2.3800   -4.2480 ha        1 410      0.139000
     37 H2          1.0110    3.3450   -1.9490 ha        1 410      0.138500
     38 H3          2.6080    2.5330   -0.2150 ha        1 410      0.134500
     39 H5          4.3000   -0.2410   -3.0760 ha        1 410      0.134500
     40 H6          2.7250    0.6010   -4.8160 ha        1 410      0.138500
     41 H9          3.8850   -3.0890   -0.5180 ha        1 410      0.117000
     42 H10         1.7430   -4.2940   -0.8480 ha        1 410      0.116000
     43 H11        -0.4360   -3.1320   -0.5090 ha        1 410      0.151000
     44 H13         1.6560    0.4920    0.5580 ha        1 410      0.151000
     45 H19        -5.5290    1.1720    0.3690 h1        1 410      0.053700
     46 H19A       -4.3740    2.4730   -0.2070 h1        1 410      0.053700
     47 H21         4.5100   -1.9580    1.7100 h1        1 410      0.059700
     48 H22         5.8420    0.8310    2.0150 hc        1 410      0.059200
     49 H22A        4.3260    0.2820    2.8450 hc        1 410      0.059200
     50 H23         6.3230    0.0170    4.3150 hc        1 410      0.032700
     51 H23A        5.5390   -1.5720    3.9540 hc        1 410      0.032700
     52 H24         8.0690   -0.3920    2.6180 hc        1 410      0.033200
     53 H24A        7.9950   -1.7820    3.7740 hc        1 410      0.033200
     54 H25         8.1920   -2.5250    1.3790 hc        1 410      0.032700
     55 H25A        6.6770   -3.1180    2.1680 hc        1 410      0.032700
     56 H26         6.2090   -2.2830   -0.1180 hc        1 410      0.059200
     57 H26A        6.9460   -0.6730    0.2770 hc        1 410      0.059200
@<TRIPOS>BOND
     1    1    2 ar  
     2    1    6 ar  
     3    1   36 1   
     4    2    3 ar  
     5    2   37 1   
     6    3    4 ar  
     7    3   38 1   
     8    4    5 ar  
     9    4    7 1   
    10    5    6 ar  
    11    5   39 1   
    12    6   40 1   
    13    7    8 2   
    14    7    9 1   
    15    9   10 1   
    16    9   30 1   
    17   10   11 ar  
    18   10   15 ar  
    19   11   12 ar  
    20   11   41 1   
    21   12   13 ar  
    22   12   42 1   
    23   13   14 ar  
    24   13   43 1   
    25   14   15 ar  
    26   14   16 1   
    27   15   44 1   
    28   16   17 2   
    29   16   20 1   
    30   17   18 1   
    31   17   29 1   
    32   18   19 2   
    33   18   24 1   
    34   19   20 1   
    35   19   21 1   
    36   21   22 1   
    37   21   23 1   
    38   24   25 1   
    39   25   26 1   
    40   25   45 1   
    41   25   46 1   
    42   26   27 1   
    43   26   28 1   
    44   30   31 1   
    45   30   35 1   
    46   30   47 1   
    47   31   32 1   
    48   31   48 1   
    49   31   49 1   
    50   32   33 1   
    51   32   50 1   
    52   32   51 1   
    53   33   34 1   
    54   33   52 1   
    55   33   53 1   
    56   34   35 1   
    57   34   54 1   
    58   34   55 1   
    59   35   56 1   
    60   35   57 1   
@<TRIPOS>SUBSTRUCTURE
     1 410         1 TEMP              0 ****  ****    0 ROOT
