@<TRIPOS>MOLECULE
410
   57    51     1     0     0
SMALL
bcc


@<TRIPOS>ATOM
      1 C1         -4.3310    1.8380   -4.3930 c1        1 410     -0.127500
      2 C2         -2.9360    1.8680   -4.3710 c1        1 410     -0.127500
      3 C3         -2.2580    1.8200   -3.1500 c1        1 410     -0.127500
      4 C4         -2.9580    1.7450   -1.9860 c1        1 410     -0.091000
      5 C5         -4.3620    1.7150   -2.0100 c1        1 410     -0.095000
      6 C6         -5.0350    1.7620   -3.2150 c1        1 410     -0.127500
      7 C7         -2.2060    1.6250   -0.6470 c2        1 410      0.343000
      8 O1         -2.8150    1.5570    0.3710 o         1 410     -0.357000
      9 N1         -0.7060    1.5060   -0.6360 n         1 410     -0.275000
     10 C8          0.0100    1.3040    0.6400 c2        1 410      0.041000
     11 C9          0.6430    2.3640    1.2500 c2        1 410     -0.145000
     12 C10         1.2760    2.1860    2.4800 c1        1 410     -0.134000
     13 C11         1.2680    0.9140    3.1020 c1        1 410     -0.133000
     14 C12         0.6380   -0.1440    2.4960 c1        1 410      0.061000
     15 C13         0.0030    0.0340    1.2630 c1        1 410     -0.133000
     16 C14         0.5650   -1.3750    3.1460 c1        1 410     -0.427500
     17 C15         1.5430   -2.4340    3.0660 c1        1 410     -0.047500
     18 C16         1.1250   -3.5780    4.1020 c1        1 410     -0.047500
     19 C17        -0.1040   -3.1610    4.7760 c1        1 410     -0.427500
     20 S1         -0.5080   -1.7890    4.2220 ss        1 410      0.580000
     21 C18        -0.7460   -3.8560    5.8990 c1        1 410      0.389000
     22 O2         -0.4490   -3.5220    7.1350 o         1 410     -0.551500
     23 O3         -1.5530   -4.7270    5.6870 o         1 410     -0.551500
     24 O4          1.7990   -4.7640    4.3160 o         1 410     -0.172000
     25 C19         1.7190   -5.6770    3.2410 c3        1 410     -0.095000
     26 C20         2.4040   -6.9430    3.6200 c2        1 410      0.337000
     27 O5          1.9490   -8.0470    3.2220 o         1 410     -0.586000
     28 O6          3.5160   -6.8990    4.2140 o         1 410     -0.586000
     29 BR1         3.1270   -2.4400    1.9330 br        1 410      0.031000
     30 C21        -0.0450    1.5830   -1.7490 c3        1 410      0.042000
     31 C22         1.3670    0.7990   -1.6820 c3        1 410     -0.173500
     32 C23         2.1810    0.9010   -2.9990 c3        1 410     -0.155000
     33 C24         1.7540    1.9470   -3.7770 c3        1 410     -0.154000
     34 C25         1.3720    3.1690   -3.3090 c3        1 410     -0.155000
     35 C26         0.5620    3.0460   -1.9840 c3        1 410     -0.173500
     36 H1         -4.8150    1.8730   -5.2560 ha        1 410      0.129500
     37 H2         -2.4430    1.9950   -5.1920 ha        1 410      0.129500
     38 H3         -1.2680    1.8410   -3.1320 ha        1 410      0.129500
     39 H5         -4.8710    1.6610   -1.1600 ha        1 410      0.151000
     40 H6         -5.9850    1.7920   -3.2270 ha        1 410      0.129500
     41 H9          0.6490    3.2310    0.8250 ha        1 410      0.131000
     42 H10         1.6790    2.9530    2.9390 ha        1 410      0.116000
     43 H11         1.7020    0.7900    3.9460 ha        1 410      0.143000
     44 H13        -0.4590   -0.7380    0.8220 ha        1 410      0.153000
     45 H19         0.7410   -5.8680    3.0270 h1        1 410      0.093500
     46 H19A        2.1420   -5.3040    2.4790 h1        1 410      0.093500
     47 H21        -0.5940    1.2840   -2.5290 h1        1 410      0.081000
     48 H22         1.9300    1.1950   -0.9090 hc        1 410      0.097500
     49 H22A        1.1960   -0.1300   -1.4970 hc        1 410      0.097500
     50 H23         2.0760    0.0740   -3.4980 hc        1 410      0.085250
     51 H23A        3.0560    1.0160   -2.8000 hc        1 410      0.085250
     52 H24         2.4960    2.1250   -4.4260 hc        1 410      0.070000
     53 H24A        0.9740    1.5970   -4.3150 hc        1 410      0.070000
     54 H25         0.8120    3.6040   -3.9860 hc        1 410      0.085250
     55 H25A        2.1840    3.7300   -3.1480 hc        1 410      0.085250
     56 H26         1.1570    3.2630   -1.2340 hc        1 410      0.097500
     57 H26A       -0.1670    3.6910   -2.0010 hc        1 410      0.097500
@<TRIPOS>BOND
     1    1    6 1   
     2    1   36 1   
     3    2    3 1   
     4    2   37 1   
     5    3   38 1   
     6    4    5 1   
     7    4    7 1   
     8    5   39 1   
     9    6   40 1   
    10    7    8 1   
    11    7    9 1   
    12    9   10 1   
    13    9   30 1   
    14   10   11 1   
    15   10   15 1   
    16   11   12 1   
    17   11   41 1   
    18   12   42 1   
    19   13   14 1   
    20   13   43 1   
    21   15   44 1   
    22   16   17 1   
    23   16   20 1   
    24   17   18 1   
    25   18   19 1   
    26   19   20 1   
    27   21   22 1   
    28   21   23 1   
    29   24   25 1   
    30   25   26 1   
    31   25   45 1   
    32   25   46 1   
    33   26   27 1   
    34   26   28 1   
    35   30   31 1   
    36   30   35 1   
    37   30   47 1   
    38   31   32 1   
    39   31   48 1   
    40   31   49 1   
    41   32   33 1   
    42   32   50 1   
    43   32   51 1   
    44   33   34 1   
    45   33   52 1   
    46   33   53 1   
    47   34   35 1   
    48   34   54 1   
    49   34   55 1   
    50   35   56 1   
    51   35   57 1   
@<TRIPOS>SUBSTRUCTURE
     1 410         1 TEMP              0 ****  ****    0 ROOT
