@<TRIPOS>MOLECULE
410
   57    60     1     0     0
SMALL
bcc


@<TRIPOS>ATOM
      1 C1          3.6590    2.4540    0.5760 ca        1 410     -0.107000
      2 C2          4.0620    1.3110    1.2680 ca        1 410     -0.126000
      3 C3          3.1550    0.6280    2.0780 ca        1 410     -0.098500
      4 C4          1.8460    1.1010    2.2050 ca        1 410     -0.126600
      5 C5          1.4360    2.2380    1.5040 ca        1 410     -0.098500
      6 C6          2.3460    2.9110    0.6880 ca        1 410     -0.126000
      7 C7          0.8700    0.3660    3.0630 c         1 410      0.687700
      8 O1          0.2140   -0.5960    2.6070 o         1 410     -0.628100
      9 N1          0.6960    0.7810    4.3780 n         1 410     -0.384000
     10 C8          1.4180    1.8830    4.9230 ca        1 410      0.029600
     11 C9          0.7220    3.0130    5.4010 ca        1 410     -0.169000
     12 C10         1.4300    4.0810    5.9430 ca        1 410     -0.133000
     13 C11         2.8200    4.0570    6.0130 ca        1 410     -0.118000
     14 C12         3.5320    2.9450    5.5390 ca        1 410      0.069000
     15 C13         2.8210    1.8530    5.0130 ca        1 410     -0.134000
     16 C14         4.9720    2.8940    5.5930 cc        1 410     -0.163100
     17 C15         5.8700    3.8400    5.1040 cd        1 410     -0.043900
     18 C16         7.2420    3.4360    5.3220 cd        1 410      0.141100
     19 C17         7.3100    2.2110    5.9720 cc        1 410     -0.172700
     20 S1          5.7830    1.5920    6.2570 ss        1 410      0.034200
     21 C18         8.4940    1.4020    6.4670 c         1 410      0.939200
     22 O2          9.2260    1.9000    7.3620 o         1 410     -0.817800
     23 O3          8.6310    0.2340    6.0030 o         1 410     -0.817800
     24 O4          8.2190    4.2790    4.8890 os        1 410     -0.286900
     25 C19         9.5560    3.7480    4.8320 c3        1 410      0.007400
     26 C20        10.3760    4.7180    3.9450 c         1 410      0.916600
     27 O5         10.4800    4.4500    2.7130 o         1 410     -0.851300
     28 O6         10.9510    5.6980    4.4970 o         1 410     -0.851300
     29 Br1         5.3560    5.4020    4.2400 br        1 410     -0.099100
     30 C21        -0.2440    0.1150    5.2720 c3        1 410      0.126700
     31 C22         0.1060   -1.3630    5.5210 c3        1 410     -0.098900
     32 C23        -0.8330   -1.9590    6.5470 c3        1 410     -0.071900
     33 C24        -2.2790   -1.8350    6.1140 c3        1 410     -0.076400
     34 C25        -2.6360   -0.3930    5.8220 c3        1 410     -0.071900
     35 C26        -1.7040    0.2110    4.7930 c3        1 410     -0.098900
     36 H1          4.3850    3.0050   -0.0410 ha        1 410      0.139000
     37 H2          5.1050    0.9630    1.1980 ha        1 410      0.138500
     38 H3          3.4760   -0.2700    2.6270 ha        1 410      0.134500
     39 H5          0.4060    2.6070    1.6050 ha        1 410      0.134500
     40 H6          2.0300    3.8150    0.1480 ha        1 410      0.138500
     41 H9         -0.3760    3.0530    5.3470 ha        1 410      0.117000
     42 H10         0.8810    4.9580    6.3160 ha        1 410      0.116000
     43 H11         3.3710    4.9100    6.4380 ha        1 410      0.151000
     44 H13         3.3870    0.9810    4.6480 ha        1 410      0.151000
     45 H19         9.5380    2.7230    4.3860 h1        1 410      0.053700
     46 H19A        9.9590    3.7030    5.8760 h1        1 410      0.053700
     47 H21        -0.1790    0.6510    6.2690 h1        1 410      0.059700
     48 H22         0.0310   -1.9300    4.5560 hc        1 410      0.059200
     49 H22A        1.1610   -1.4460    5.8890 hc        1 410      0.059200
     50 H23        -0.6920   -1.4420    7.5330 hc        1 410      0.032700
     51 H23A       -0.5780   -3.0410    6.6970 hc        1 410      0.032700
     52 H24        -2.9500   -2.2360    6.9170 hc        1 410      0.033200
     53 H24A       -2.4460   -2.4540    5.1930 hc        1 410      0.033200
     54 H25        -3.6910   -0.3360    5.4440 hc        1 410      0.032700
     55 H25A       -2.5870    0.2030    6.7710 hc        1 410      0.032700
     56 H26        -1.8100   -0.3290    3.8150 hc        1 410      0.059200
     57 H26A       -1.9780    1.2850    4.6270 hc        1 410      0.059200
@<TRIPOS>BOND
     1    1    2 ar  
     2    1    6 ar  
     3    1   36 1   
     4    2    3 ar  
     5    2   37 1   
     6    3    4 ar  
     7    3   38 1   
     8    4    5 ar  
     9    4    7 1   
    10    5    6 ar  
    11    5   39 1   
    12    6   40 1   
    13    7    8 2   
    14    7    9 1   
    15    9   10 1   
    16    9   30 1   
    17   10   11 ar  
    18   10   15 ar  
    19   11   12 ar  
    20   11   41 1   
    21   12   13 ar  
    22   12   42 1   
    23   13   14 ar  
    24   13   43 1   
    25   14   15 ar  
    26   14   16 1   
    27   15   44 1   
    28   16   17 2   
    29   16   20 1   
    30   17   18 1   
    31   17   29 1   
    32   18   19 2   
    33   18   24 1   
    34   19   20 1   
    35   19   21 1   
    36   21   22 1   
    37   21   23 1   
    38   24   25 1   
    39   25   26 1   
    40   25   45 1   
    41   25   46 1   
    42   26   27 1   
    43   26   28 1   
    44   30   31 1   
    45   30   35 1   
    46   30   47 1   
    47   31   32 1   
    48   31   48 1   
    49   31   49 1   
    50   32   33 1   
    51   32   50 1   
    52   32   51 1   
    53   33   34 1   
    54   33   52 1   
    55   33   53 1   
    56   34   35 1   
    57   34   54 1   
    58   34   55 1   
    59   35   56 1   
    60   35   57 1   
@<TRIPOS>SUBSTRUCTURE
     1 410         1 TEMP              0 ****  ****    0 ROOT
