@<TRIPOS>MOLECULE
410
   58    61     1     0     0
SMALL
bcc


@<TRIPOS>ATOM
      1 C1          4.3170   -0.9350    1.1810 ca        1 410     -0.077000
      2 C2          4.6850   -0.0420    2.1870 ca        1 410     -0.121000
      3 C3          3.9120    0.0420    3.3490 ca        1 410     -0.093000
      4 C4          2.7600   -0.7410    3.4820 ca        1 410     -0.218600
      5 C5          2.3990   -1.6490    2.4740 ca        1 410     -0.093000
      6 C6          3.1830   -1.7410    1.3290 ca        1 410     -0.121000
      7 C7          1.9150   -0.6610    4.6840 c         1 410      0.607700
      8 O1          1.7230   -1.4970    5.5530 o         1 410     -0.441100
      9 N1          1.1340    0.6600    4.8070 n4        1 410     -0.465600
     10 C8          1.9120    1.6050    5.6240 ca        1 410     -0.033400
     11 C9          1.9040    1.5720    7.0260 ca        1 410     -0.156000
     12 C10         2.7650    2.4320    7.7130 ca        1 410     -0.106000
     13 C11         3.6710    3.2450    7.0430 ca        1 410     -0.092000
     14 C12         3.7110    3.2550    5.6330 ca        1 410      0.119000
     15 C13         2.7410    2.5030    4.9360 ca        1 410     -0.189000
     16 C14         4.7750    3.8000    4.8570 cc        1 410     -0.191100
     17 C15         5.7740    4.7280    5.1410 cd        1 410      0.055100
     18 C16         6.8440    4.6640    4.1700 cd        1 410      0.171100
     19 C17         6.5690    3.7520    3.1570 cc        1 410     -0.109700
     20 S1          5.0980    3.0030    3.4010 ss        1 410     -0.017800
     21 C18         7.2990    3.2680    1.9260 c         1 410      0.943200
     22 O2          6.7560    2.2600    1.3590 o         1 410     -0.817300
     23 O3          8.3280    3.8440    1.5100 o         1 410     -0.817300
     24 O4          7.9220    5.4920    4.2770 os        1 410     -0.319900
     25 C19         9.1840    4.8170    4.4850 c3        1 410      0.013400
     26 C20         9.3120    4.1750    5.8770 c         1 410      0.892600
     27 O5          8.3480    3.5000    6.3410 o         1 410     -0.848800
     28 O6         10.4110    4.3370    6.4800 o         1 410     -0.848800
     29 BR1         5.7070    5.9360    6.5460 br        1 410     -0.065100
     30 C21        -0.2710    0.4400    5.3010 c3        1 410      0.130500
     31 C22        -1.0630   -0.4440    4.3260 c3        1 410     -0.095400
     32 C23        -2.4430   -0.7160    4.8910 c3        1 410     -0.075400
     33 C24        -3.1930    0.5710    5.1630 c3        1 410     -0.086400
     34 C25        -2.3990    1.4850    6.0710 c3        1 410     -0.075400
     35 C26        -1.0180    1.7620    5.5150 c3        1 410     -0.095400
     36 H1          4.9280   -0.9990    0.2650 ha        1 410      0.162000
     37 H2          5.5750    0.6280    2.0610 ha        1 410      0.195000
     38 H3          4.2370    0.7300    4.1530 ha        1 410      0.153000
     39 H5          1.5100   -2.2840    2.5940 ha        1 410      0.153000
     40 H6          2.9070   -2.4530    0.5370 ha        1 410      0.195000
     41 H9          1.2670    0.8730    7.5840 ha        1 410      0.134000
     42 H10         2.7550    2.4240    8.8150 ha        1 410      0.144000
     43 H11         4.4060    3.8490    7.6050 ha        1 410      0.190000
     44 H13         2.7020    2.5900    3.8350 ha        1 410      0.155000
     45 H19         9.9140    5.6590    4.3680 h1        1 410      0.060700
     46 H19A        9.3290    4.0540    3.6780 h1        1 410      0.060700
     47 H21        -0.1790   -0.1000    6.2920 hx        1 410      0.109700
     48 H22        -0.5280   -1.4180    4.1660 hc        1 410      0.063950
     49 H22A       -1.1580    0.0700    3.3330 hc        1 410      0.063950
     50 H23        -2.3500   -1.3070    5.8400 hc        1 410      0.054950
     51 H23A       -3.0170   -1.3410    4.1580 hc        1 410      0.054950
     52 H24        -3.4040    1.0950    4.1930 hc        1 410      0.050700
     53 H24A       -4.1800    0.3340    5.6380 hc        1 410      0.050700
     54 H25        -2.9410    2.4600    6.1940 hc        1 410      0.054950
     55 H25A       -2.3080    1.0200    7.0880 hc        1 410      0.054950
     56 H26        -1.1050    2.3120    4.5410 hc        1 410      0.063950
     57 H26A       -0.4470    2.4130    6.2300 hc        1 410      0.063950
     58 H111        1.0720    1.0550    3.8580 hn        1 410      0.448800
@<TRIPOS>BOND
     1    1    2 ar  
     2    1    6 ar  
     3    1   36 1   
     4    2    3 ar  
     5    2   37 1   
     6    3    4 ar  
     7    3   38 1   
     8    4    5 ar  
     9    4    7 1   
    10    5    6 ar  
    11    5   39 1   
    12    6   40 1   
    13    7    8 2   
    14    7    9 1   
    15    9   10 1   
    16    9   30 1   
    17    9   58 1   
    18   10   11 ar  
    19   10   15 ar  
    20   11   12 ar  
    21   11   41 1   
    22   12   13 ar  
    23   12   42 1   
    24   13   14 ar  
    25   13   43 1   
    26   14   15 ar  
    27   14   16 1   
    28   15   44 1   
    29   16   17 2   
    30   16   20 1   
    31   17   18 1   
    32   17   29 1   
    33   18   19 2   
    34   18   24 1   
    35   19   20 1   
    36   19   21 1   
    37   21   22 1   
    38   21   23 1   
    39   24   25 1   
    40   25   26 1   
    41   25   45 1   
    42   25   46 1   
    43   26   27 1   
    44   26   28 1   
    45   30   31 1   
    46   30   35 1   
    47   30   47 1   
    48   31   32 1   
    49   31   48 1   
    50   31   49 1   
    51   32   33 1   
    52   32   50 1   
    53   32   51 1   
    54   33   34 1   
    55   33   52 1   
    56   33   53 1   
    57   34   35 1   
    58   34   54 1   
    59   34   55 1   
    60   35   56 1   
    61   35   57 1   
@<TRIPOS>SUBSTRUCTURE
     1 410         1 TEMP              0 ****  ****    0 ROOT
