@<TRIPOS>MOLECULE
411
   58    61     1     0     0
SMALL
bcc


@<TRIPOS>ATOM
      1 C1          0.5330    0.0320   -0.3540 ca        1 411     -0.086000
      2 C2          1.6520   -0.5190    0.2750 ca        1 411     -0.117500
      3 C3          1.9960   -0.1220    1.5650 ca        1 411     -0.114500
      4 C4          1.2170    0.8320    2.2360 ca        1 411     -0.102000
      5 C5          0.0990    1.3910    1.5990 ca        1 411     -0.114500
      6 C6         -0.2390    0.9870    0.3080 ca        1 411     -0.117500
      7 C7          1.5990    1.3060    3.5570 cc        1 411      0.010700
      8 C8          1.9440    2.5980    3.9510 cd        1 411     -0.151000
      9 C9          2.2570    2.5680    5.3570 cd        1 411     -0.068000
     10 C10         2.0980    1.2560    5.8040 cc        1 411     -0.169300
     11 N1          1.6930    0.4570    4.6950 na        1 411     -0.128100
     12 C11         1.4440   -0.9210    4.7110 c3        1 411      0.016300
     13 C12         0.0690   -1.3410    5.3050 c         1 411      0.533100
     14 O1         -0.7430   -2.1240    4.8680 o         1 411     -0.388100
     15 N2         -0.2340   -0.6920    6.6830 n4        1 411     -0.719800
     16 C13        -1.4540   -1.1410    7.4260 c2        1 411      0.610100
     17 N3         -2.5350   -1.6450    6.9750 n2        1 411     -0.613100
     18 N4         -1.3770   -0.9480    8.9170 n4        1 411     -0.825600
     19 C14         2.2970    0.7240    7.1390 ca        1 411     -0.074000
     20 C15         3.2900   -0.2240    7.4220 ca        1 411     -0.137500
     21 C16         3.3970   -0.7830    8.6920 ca        1 411     -0.171000
     22 C17         2.4940   -0.4060    9.7110 ca        1 411      0.077600
     23 C18         1.5620    0.6260    9.4490 ca        1 411     -0.171000
     24 C19         1.4770    1.1880    8.1820 ca        1 411     -0.137500
     25 N5          2.5070   -1.0540   10.9590 n         1 411     -0.474100
     26 C20         1.3420   -1.4730   11.5840 c         1 411      0.752700
     27 O2          0.2540   -1.4020   10.9470 o         1 411     -0.768100
     28 C21         1.4300   -2.0250   12.9510 ca        1 411     -0.184600
     29 C22         0.5130   -3.0180   13.3280 ca        1 411     -0.059000
     30 C23         0.5660   -3.5530   14.6120 ca        1 411     -0.127000
     31 C24         1.5180   -3.1000   15.5260 ca        1 411     -0.040000
     32 C25         2.4260   -2.0990   15.1570 ca        1 411     -0.035900
     33 C26         2.3820   -1.5610   13.8680 ca        1 411     -0.067000
     34 BR          3.6920   -1.4790   16.3800 br        1 411     -0.014100
     35 H1          0.2690   -0.2770   -1.3790 ha        1 411      0.164000
     36 H2          2.2740   -1.2570   -0.2570 ha        1 411      0.160000
     37 H3          2.9060   -0.5250    2.0360 ha        1 411      0.138000
     38 H5         -0.4970    2.1630    2.1080 ha        1 411      0.138000
     39 H6         -1.1110    1.4350   -0.1950 ha        1 411      0.160000
     40 H8          1.9930    3.4750    3.3030 ha        1 411      0.201000
     41 H9          2.5800    3.4200    5.9570 ha        1 411      0.190000
     42 H11         2.2090   -1.4800    5.3310 h1        1 411      0.144700
     43 H11A        1.4230   -1.3310    3.6470 h1        1 411      0.144700
     44 HN2         0.6200   -0.8480    7.2520 hn        1 411      0.490800
     45 HN3        -2.6970   -1.8410    6.0020 hn        1 411      0.532400
     46 HN4        -1.3260   -1.8720    9.3920 hn        1 411      0.510800
     47 HN4A       -0.5340   -0.4180    9.2310 hn        1 411      0.510800
     48 H15         4.0110   -0.5130    6.6370 ha        1 411      0.167500
     49 H16         4.1990   -1.5140    8.8960 ha        1 411      0.174500
     50 H18         0.9430    1.0240   10.2730 ha        1 411      0.174500
     51 H19         0.8110    2.0500    8.0070 ha        1 411      0.167500
     52 HN5         3.3920   -1.2270   11.3860 hn        1 411      0.363500
     53 H22        -0.2430   -3.3670   12.6090 ha        1 411      0.142000
     54 H23        -0.1480   -4.3380   14.9110 ha        1 411      0.167000
     55 H24         1.5490   -3.5330   16.5420 ha        1 411      0.179000
     56 H26         3.0860   -0.7570   13.5950 ha        1 411      0.152000
     57 H221       -0.3040    0.3310    6.5270 hn        1 411      0.490800
     58 H43        -2.2240   -0.4620    9.2530 hn        1 411      0.510800
@<TRIPOS>BOND
     1    1    2 ar  
     2    1    6 ar  
     3    1   35 1   
     4    2    3 ar  
     5    2   36 1   
     6    3    4 ar  
     7    3   37 1   
     8    4    5 ar  
     9    4    7 1   
    10    5    6 ar  
    11    5   38 1   
    12    6   39 1   
    13    7    8 2   
    14    7   11 1   
    15    8    9 1   
    16    8   40 1   
    17    9   10 2   
    18    9   41 1   
    19   10   11 1   
    20   10   19 1   
    21   11   12 1   
    22   12   13 1   
    23   12   42 1   
    24   12   43 1   
    25   13   14 2   
    26   13   15 1   
    27   15   16 1   
    28   15   44 1   
    29   15   57 1   
    30   16   17 2   
    31   16   18 1   
    32   17   45 1   
    33   18   46 1   
    34   18   47 1   
    35   18   58 1   
    36   19   20 ar  
    37   19   24 ar  
    38   20   21 ar  
    39   20   48 1   
    40   21   22 ar  
    41   21   49 1   
    42   22   23 ar  
    43   22   25 1   
    44   23   24 ar  
    45   23   50 1   
    46   24   51 1   
    47   25   26 1   
    48   25   52 1   
    49   26   27 2   
    50   26   28 1   
    51   28   29 ar  
    52   28   33 ar  
    53   29   30 ar  
    54   29   53 1   
    55   30   31 ar  
    56   30   54 1   
    57   31   32 ar  
    58   31   55 1   
    59   32   33 ar  
    60   32   34 1   
    61   33   56 1   
@<TRIPOS>SUBSTRUCTURE
     1 411         1 TEMP              0 ****  ****    0 ROOT
