@<TRIPOS>MOLECULE
411
   56    42     1     0     0
SMALL
bcc


@<TRIPOS>ATOM
      1 C1         -1.2320    0.6200   -7.5830 c1        1 411     -0.126667
      2 C2         -0.5510    1.7580   -7.1080 c1        1 411     -0.126667
      3 C3          0.1060    1.7170   -5.8830 c1        1 411     -0.126667
      4 C4          0.0920    0.5720   -5.1380 c1        1 411      0.026000
      5 C5         -0.5950   -0.5770   -5.6170 c1        1 411     -0.155500
      6 C6         -1.2490   -0.5340   -6.8380 c1        1 411     -0.126667
      7 C7          0.8330    0.5080   -3.9290 c1        1 411     -0.043000
      8 C8          2.2240    0.5090   -3.8230 c1        1 411     -0.168000
      9 C9          2.5450    0.5270   -2.4990 c1        1 411     -0.179000
     10 C10         1.3660    0.5370   -1.7680 c2        1 411     -0.022000
     11 N1          0.3120    0.5250   -2.6580 n2        1 411     -0.115000
     12 C11        -1.1590    0.6880   -2.2970 c2        1 411     -0.038000
     13 C12        -1.7130   -0.6300   -1.8790 c1        1 411      0.296000
     14 O1         -0.9800   -1.4690   -1.4210 o         1 411     -0.351000
     15 N2         -3.0480   -0.9620   -2.2110 n2        1 411     -0.391000
     16 C13        -3.7800   -1.9850   -1.4290 c1        1 411      0.213000
     17 N3         -4.9970   -2.3040   -1.7600 n1        1 411     -0.336000
     18 N4         -3.1400   -2.6290   -0.2930 n2        1 411     -0.324000
     19 C14         1.2630    0.5640   -0.3670 c1        1 411     -0.055000
     20 C15         1.3220   -0.6240    0.3600 c1        1 411     -0.126667
     21 C16         1.2410   -0.5960    1.7680 c1        1 411     -0.126667
     22 C17         1.1000    0.6460    2.4430 c1        1 411      0.026000
     23 C18         1.0430    1.8050    1.7260 c1        1 411     -0.155500
     24 C19         1.1270    1.7660    0.2850 c1        1 411     -0.086000
     25 N5          0.8650    0.6720    3.8840 n2        1 411     -0.323000
     26 C20         1.6050   -0.2350    4.7550 c1        1 411      0.353000
     27 O2          2.3960   -0.9910    4.2890 o         1 411     -0.335000
     28 C21         1.4410   -0.1460    6.2470 c1        1 411     -0.128000
     29 C22         1.9880    0.9210    6.9420 c2        1 411     -0.094000
     30 C23         1.8540    0.9940    8.3330 c1        1 411     -0.136000
     31 C24         1.1520   -0.0330    9.0370 c1        1 411     -0.082000
     32 C25         0.6090   -1.0910    8.3460 c1        1 411     -0.176000
     33 C26         0.7460   -1.1630    6.9430 c2        1 411     -0.053000
     34 BR         -0.3110   -2.5210    9.3140 br        1 411      0.068000
     35 H1         -1.7030    0.6520   -8.4620 ha        1 411      0.146500
     36 H2         -0.5400    2.5710   -7.6340 ha        1 411      0.146500
     37 H3          0.5310    2.4280   -5.5870 ha        1 411      0.146500
     38 H5         -0.6080   -1.4340   -5.0630 ha        1 411      0.138500
     39 H6         -1.7290   -1.3340   -7.1740 ha        1 411      0.146500
     40 H8          2.8060    0.4990   -4.5090 DU        1 411      0.155333
     41 H9          3.4390    0.5320   -2.1340 DU        1 411      0.155333
     42 H11        -1.6340    1.0060   -3.0450 ha        1 411      0.127500
     43 H11A       -1.2490    1.3570   -1.5260 ha        1 411      0.127500
     44 HN2        -3.4820   -0.4930   -2.8550 hn        1 411      0.236000
     45 HN3        -5.4110   -1.8820   -2.5000 DU        1 411      0.155333
     46 HN4        -3.5770   -3.3580    0.1530 hn        1 411      0.214500
     47 HN4A       -2.2900   -2.3030    0.0310 hn        1 411      0.214500
     48 H15         1.4170   -1.4540   -0.0970 ha        1 411      0.146500
     49 H16         1.2840   -1.4830    2.3100 ha        1 411      0.146500
     50 H18         0.9500    2.6210    2.1630 ha        1 411      0.138500
     51 H19         1.0860    2.5980   -0.2310 ha        1 411      0.140000
     52 HN5         0.1370    1.2080    4.2470 hn        1 411      0.233000
     53 H22         2.4580    1.6090    6.4690 ha        1 411      0.143000
     54 H23         2.2560    1.7790    8.8440 ha        1 411      0.144000
     55 H24         1.0570    0.0160   10.0150 ha        1 411      0.152000
     56 H26         0.3290   -1.9750    6.4120 ha        1 411      0.169000
@<TRIPOS>BOND
     1    1    6 1   
     2    1   35 1   
     3    2    3 1   
     4    2   36 1   
     5    3   37 1   
     6    4    5 1   
     7    5   38 1   
     8    6   39 1   
     9    7    8 1   
    10    7   11 1   
    11    8    9 1   
    12    9   10 1   
    13   10   11 1   
    14   10   19 1   
    15   12   13 1   
    16   12   42 1   
    17   12   43 1   
    18   13   14 1   
    19   15   16 1   
    20   15   44 1   
    21   16   17 1   
    22   18   46 1   
    23   18   47 1   
    24   19   24 1   
    25   20   21 1   
    26   20   48 1   
    27   21   49 1   
    28   22   23 1   
    29   23   50 1   
    30   24   51 1   
    31   25   26 1   
    32   25   52 1   
    33   26   27 1   
    34   28   29 1   
    35   28   33 1   
    36   29   30 1   
    37   29   53 1   
    38   30   54 1   
    39   31   32 1   
    40   31   55 1   
    41   32   33 1   
    42   33   56 1   
@<TRIPOS>SUBSTRUCTURE
     1 411         1 TEMP              0 ****  ****    0 ROOT
