@<TRIPOS>MOLECULE
411
   59    62     1     0     0
SMALL
bcc


@<TRIPOS>ATOM
      1 C1         -0.0700   -0.1360    0.2620 ca        1 411     -0.089000
      2 C2          0.2590   -1.2950    0.9670 ca        1 411     -0.112000
      3 C3          0.7330   -1.2110    2.2770 ca        1 411     -0.158500
      4 C4          0.8820    0.0410    2.8920 ca        1 411     -0.116000
      5 C5          0.5450    1.2070    2.1790 ca        1 411     -0.158500
      6 C6          0.0740    1.1140    0.8700 ca        1 411     -0.112000
      7 C7          1.5310    0.1580    4.1900 cc        1 411     -0.126300
      8 C8          2.7720    0.7320    4.4650 cd        1 411     -0.080000
      9 C9          3.0800    0.4650    5.8470 cd        1 411     -0.116000
     10 C10         2.0200   -0.2610    6.3990 cc        1 411     -0.059300
     11 N1          1.0260   -0.4180    5.3940 na        1 411     -0.135100
     12 C11        -0.1640   -1.1570    5.4790 c3        1 411      0.016300
     13 C12        -1.4720   -0.3440    5.3330 c         1 411      0.536100
     14 O1         -2.5760   -0.6560    5.7430 o         1 411     -0.437100
     15 N2         -1.4220    0.9320    4.4850 n4        1 411     -0.719800
     16 C13        -2.6330    1.8200    4.5610 c2        1 411      0.617100
     17 N3         -2.7140    3.0220    4.9730 n2        1 411     -0.606100
     18 N4         -3.9130    1.1840    4.0890 n4        1 411     -0.815600
     19 C14         2.0060   -0.8340    7.7360 ca        1 411      0.001000
     20 C15         3.1890   -1.4490    8.1850 ca        1 411     -0.104500
     21 C16         3.2880   -1.9520    9.4780 ca        1 411     -0.077000
     22 C17         2.1870   -1.8520   10.3480 ca        1 411     -0.018400
     23 C18         0.9960   -1.2470    9.9080 ca        1 411     -0.077000
     24 C19         0.9150   -0.7460    8.6090 ca        1 411     -0.104500
     25 N5          2.2910   -2.3710   11.7120 n4        1 411     -0.564200
     26 C20         2.2780   -1.2760   12.8050 c         1 411      0.593700
     27 O2          1.5580   -0.3200   12.5660 o         1 411     -0.424100
     28 C21         3.1300   -1.5400   13.9570 ca        1 411     -0.219600
     29 C22         3.5790   -0.4200   14.6820 ca        1 411     -0.028000
     30 C23         4.3780   -0.6070   15.8080 ca        1 411     -0.120000
     31 C24         4.7240   -1.8920   16.2240 ca        1 411     -0.011000
     32 C25         4.2640   -3.0130   15.5120 ca        1 411     -0.032900
     33 C26         3.4660   -2.8370   14.3820 ca        1 411     -0.080000
     34 BR          4.7090   -4.7340   16.0780 br        1 411      0.012900
     35 H1         -0.4060   -0.2040   -0.7880 ha        1 411      0.185000
     36 H2          0.1810   -2.2810    0.4740 ha        1 411      0.178500
     37 H3          1.0560   -2.1270    2.7980 ha        1 411      0.151000
     38 H5          0.7610    2.1960    2.6130 ha        1 411      0.151000
     39 H6         -0.1380    2.0320    0.2950 ha        1 411      0.178500
     40 H8          3.4120    1.2640    3.7570 ha        1 411      0.207000
     41 H9          3.9930    0.7700    6.3630 ha        1 411      0.200000
     42 H11        -0.2460   -1.6810    6.4820 h1        1 411      0.149700
     43 H11A       -0.2410   -1.9230    4.6400 h1        1 411      0.149700
     44 HN2        -0.5960    1.4830    4.7880 hn        1 411      0.506800
     45 HN3        -1.9490    3.5710    5.3200 hn        1 411      0.536400
     46 HN4        -4.6860    1.8820    4.1360 hn        1 411      0.511133
     47 HN4A       -3.8250    0.8670    3.1140 hn        1 411      0.511133
     48 H15         4.0580   -1.5300    7.5060 ha        1 411      0.157000
     49 H16         4.2370   -2.4210    9.7970 ha        1 411      0.177500
     50 H18         0.1330   -1.1340   10.5880 ha        1 411      0.177500
     51 H19        -0.0120   -0.2430    8.2980 ha        1 411      0.157000
     52 HN5         3.1620   -2.9100   11.8030 hn        1 411      0.467800
     53 H22         3.2960    0.5970   14.3630 ha        1 411      0.171000
     54 H23         4.7330    0.2690   16.3790 ha        1 411      0.186000
     55 H24         5.3560   -2.0260   17.1230 ha        1 411      0.194000
     56 H26         3.0810   -3.7290   13.8640 ha        1 411      0.136000
     57 H221       -1.2140    0.6650    3.4900 hn        1 411      0.506800
     58 H43        -4.1560    0.3860    4.7060 hn        1 411      0.511133
     59 H52         1.4970   -3.0000   11.8870 hn        1 411      0.467800
@<TRIPOS>BOND
     1    1    2 ar  
     2    1    6 ar  
     3    1   35 1   
     4    2    3 ar  
     5    2   36 1   
     6    3    4 ar  
     7    3   37 1   
     8    4    5 ar  
     9    4    7 1   
    10    5    6 ar  
    11    5   38 1   
    12    6   39 1   
    13    7    8 2   
    14    7   11 1   
    15    8    9 1   
    16    8   40 1   
    17    9   10 2   
    18    9   41 1   
    19   10   11 1   
    20   10   19 1   
    21   11   12 1   
    22   12   13 1   
    23   12   42 1   
    24   12   43 1   
    25   13   14 2   
    26   13   15 1   
    27   15   16 1   
    28   15   44 1   
    29   15   57 1   
    30   16   17 2   
    31   16   18 1   
    32   17   45 1   
    33   18   46 1   
    34   18   47 1   
    35   18   58 1   
    36   19   20 ar  
    37   19   24 ar  
    38   20   21 ar  
    39   20   48 1   
    40   21   22 ar  
    41   21   49 1   
    42   22   23 ar  
    43   22   25 1   
    44   23   24 ar  
    45   23   50 1   
    46   24   51 1   
    47   25   26 1   
    48   25   52 1   
    49   25   59 1   
    50   26   27 2   
    51   26   28 1   
    52   28   29 ar  
    53   28   33 ar  
    54   29   30 ar  
    55   29   53 1   
    56   30   31 ar  
    57   30   54 1   
    58   31   32 ar  
    59   31   55 1   
    60   32   33 ar  
    61   32   34 1   
    62   33   56 1   
@<TRIPOS>SUBSTRUCTURE
     1 411         1 TEMP              0 ****  ****    0 ROOT
