@<TRIPOS>MOLECULE
411
   56    59     1     0     0
SMALL
bcc


@<TRIPOS>ATOM
      1 C1          9.0210    0.2480   -1.3550 ca        1 411     -0.125000
      2 C2          8.6880   -1.0530   -1.7340 ca        1 411     -0.132500
      3 C3          7.4730   -1.6080   -1.3390 ca        1 411     -0.120000
      4 C4          6.5780   -0.8610   -0.5570 ca        1 411     -0.028000
      5 C5          6.9210    0.4420   -0.1720 ca        1 411     -0.120000
      6 C6          8.1380    0.9910   -0.5730 ca        1 411     -0.132500
      7 C7          5.3330   -1.4770   -0.1300 cc        1 411     -0.053300
      8 C8          5.1770   -2.7630    0.4160 cd        1 411     -0.174000
      9 C9          3.7840   -2.9590    0.6710 cd        1 411     -0.170000
     10 C10         3.1110   -1.7910    0.2760 cc        1 411     -0.059300
     11 N1          4.0640   -0.8720   -0.2040 na        1 411     -0.050100
     12 C11         3.7670    0.3520   -0.8750 c3        1 411     -0.024700
     13 C12         3.5390    1.5620    0.0560 c         1 411      0.646100
     14 O1          4.1550    1.7020    1.1280 o         1 411     -0.594100
     15 N2          2.6690    2.5290   -0.4270 n         1 411     -0.499400
     16 C13         2.2790    3.7000    0.3130 c2        1 411      0.647800
     17 N3          1.0340    4.0870    0.1840 n2        1 411     -0.875100
     18 N4          3.3030    4.3990    1.0160 nh        1 411     -0.919800
     19 C14         1.6820   -1.5400    0.3400 ca        1 411     -0.058000
     20 C15         0.7900   -2.4470   -0.2460 ca        1 411     -0.092500
     21 C16        -0.5850   -2.2500   -0.1740 ca        1 411     -0.170500
     22 C17        -1.1080   -1.1240    0.4980 ca        1 411      0.075600
     23 C18        -0.2010   -0.2150    1.0990 ca        1 411     -0.170500
     24 C19         1.1680   -0.4280    1.0180 ca        1 411     -0.092500
     25 N5         -2.4810   -0.8510    0.5940 n         1 411     -0.466100
     26 C20        -3.5340   -1.6530    0.1730 c         1 411      0.680700
     27 O2         -3.3770   -2.7660   -0.3590 o         1 411     -0.578100
     28 C21        -4.9040   -1.1050    0.4160 ca        1 411     -0.148600
     29 C22        -5.8890   -1.9840    0.8810 ca        1 411     -0.066000
     30 C23        -7.1820   -1.5150    1.1050 ca        1 411     -0.136000
     31 C24        -7.4990   -0.1800    0.8580 ca        1 411     -0.082000
     32 C25        -6.5180    0.6940    0.3800 ca        1 411     -0.035900
     33 C26        -5.2170    0.2320    0.1570 ca        1 411     -0.081000
     34 BR         -6.9420    2.4840    0.0350 br        1 411     -0.075100
     35 H1          9.9810    0.6840   -1.6690 ha        1 411      0.132000
     36 H2          9.3850   -1.6430   -2.3460 ha        1 411      0.133500
     37 H3          7.2100   -2.6350   -1.6330 ha        1 411      0.148000
     38 H5          6.2340    1.0220    0.4670 ha        1 411      0.148000
     39 H6          8.4030    2.0130   -0.2640 ha        1 411      0.133500
     40 H8          5.9770   -3.4680    0.6170 ha        1 411      0.157000
     41 H9          3.3220   -3.8420    1.1030 ha        1 411      0.158000
     42 H11         4.6430    0.6340   -1.5320 h1        1 411      0.091200
     43 H11A        2.8560    0.1860   -1.5220 h1        1 411      0.091200
     44 HN2         2.0710    2.2880   -1.1900 hn        1 411      0.340500
     45 HN3         0.7950    4.9350    0.6480 hn        1 411      0.404400
     46 HN4         4.1580    3.9020    1.1520 hn        1 411      0.406800
     47 HN4A        2.9780    4.8270    1.8570 hn        1 411      0.406800
     48 H15         1.1820   -3.3320   -0.7700 ha        1 411      0.143500
     49 H16        -1.2560   -2.9860   -0.6480 ha        1 411      0.156000
     50 H18        -0.5710    0.6700    1.6390 ha        1 411      0.156000
     51 H19         1.8580    0.2800    1.5070 ha        1 411      0.143500
     52 HN5        -2.7170   -0.0010    1.0580 hn        1 411      0.322500
     53 H22        -5.6350   -3.0420    1.0550 ha        1 411      0.159000
     54 H23        -7.9590   -2.2020    1.4730 ha        1 411      0.147000
     55 H24        -8.5250    0.1790    1.0380 ha        1 411      0.152000
     56 H26        -4.4500    0.9170   -0.2400 ha        1 411      0.153000
@<TRIPOS>BOND
     1    1    2 ar  
     2    1    6 ar  
     3    1   35 1   
     4    2    3 ar  
     5    2   36 1   
     6    3    4 ar  
     7    3   37 1   
     8    4    5 ar  
     9    4    7 1   
    10    5    6 ar  
    11    5   38 1   
    12    6   39 1   
    13    7    8 2   
    14    7   11 1   
    15    8    9 1   
    16    8   40 1   
    17    9   10 2   
    18    9   41 1   
    19   10   11 1   
    20   10   19 1   
    21   11   12 1   
    22   12   13 1   
    23   12   42 1   
    24   12   43 1   
    25   13   14 2   
    26   13   15 1   
    27   15   16 1   
    28   15   44 1   
    29   16   17 2   
    30   16   18 1   
    31   17   45 1   
    32   18   46 1   
    33   18   47 1   
    34   19   20 ar  
    35   19   24 ar  
    36   20   21 ar  
    37   20   48 1   
    38   21   22 ar  
    39   21   49 1   
    40   22   23 ar  
    41   22   25 1   
    42   23   24 ar  
    43   23   50 1   
    44   24   51 1   
    45   25   26 1   
    46   25   52 1   
    47   26   27 2   
    48   26   28 1   
    49   28   29 ar  
    50   28   33 ar  
    51   29   30 ar  
    52   29   53 1   
    53   30   31 ar  
    54   30   54 1   
    55   31   32 ar  
    56   31   55 1   
    57   32   33 ar  
    58   32   34 1   
    59   33   56 1   
@<TRIPOS>SUBSTRUCTURE
     1 411         1 TEMP              0 ****  ****    0 ROOT
