@<TRIPOS>MOLECULE
411
   58    61     1     0     0
SMALL
bcc


@<TRIPOS>ATOM
      1 C1         -0.4190   -0.7680    0.4260 ca        1 411     -0.089000
      2 C2          0.8110   -1.2900    0.8300 ca        1 411     -0.119000
      3 C3          1.5020   -0.7110    1.8930 ca        1 411     -0.116000
      4 C4          0.9600    0.3960    2.5610 ca        1 411     -0.096000
      5 C5         -0.2730    0.9220    2.1500 ca        1 411     -0.116000
      6 C6         -0.9580    0.3380    1.0860 ca        1 411     -0.119000
      7 C7          1.7030    1.0490    3.6280 cc        1 411     -0.009300
      8 C8          2.3610    2.2740    3.6030 cd        1 411     -0.140000
      9 C9          2.9710    2.4850    4.8980 cd        1 411     -0.068000
     10 C10         2.6760    1.3830    5.6880 cc        1 411     -0.153300
     11 N1          1.8360    0.4910    4.9390 na        1 411     -0.145100
     12 C11         1.7250   -0.8900    5.2100 c3        1 411     -0.001700
     13 C12         0.6280   -1.2970    6.2100 c         1 411      0.551100
     14 O1          0.0280   -2.3580    6.2390 o         1 411     -0.448100
     15 N2          0.2810   -0.3430    7.3540 ny        1 411     -0.717800
     16 C13        -1.1720   -0.4010    7.7250 c2        1 411      0.640100
     17 N3         -2.0910    0.4430    7.4550 n2        1 411     -0.635100
     18 N4         -1.5660   -1.6280    8.4940 nz        1 411     -0.817600
     19 C14         2.9640    1.1020    7.0840 ca        1 411     -0.034000
     20 C15         3.8180    0.0560    7.4550 ca        1 411     -0.145500
     21 C16         3.8040   -0.4260    8.7620 ca        1 411     -0.127000
     22 C17         2.9230    0.1460    9.7020 ca        1 411      0.014600
     23 C18         2.2530    1.3470    9.3840 ca        1 411     -0.127000
     24 C19         2.2750    1.8190    8.0770 ca        1 411     -0.145500
     25 N5          2.6360   -0.5200   10.9220 ns        1 411     -0.451100
     26 C20         1.5060   -1.2900   11.0180 c         1 411      0.755700
     27 O2          0.7460   -1.3940    9.9990 o         1 411     -0.827100
     28 C21         1.2110   -1.9820   12.2900 ca        1 411     -0.188600
     29 C22         0.7560   -3.3070   12.2510 ca        1 411     -0.079000
     30 C23         0.4880   -3.9770   13.4420 ca        1 411     -0.122000
     31 C24         0.6590   -3.3310   14.6680 ca        1 411     -0.044000
     32 C25         1.1040   -2.0040   14.7080 ca        1 411     -0.031900
     33 C26         1.3880   -1.3300   13.5160 ca        1 411     -0.070000
     34 Br          1.3280   -1.1330   16.3430 br        1 411     -0.006100
     35 H1         -0.9570   -1.2200   -0.4230 ha        1 411      0.163000
     36 H2          1.2470   -2.1490    0.2950 ha        1 411      0.159000
     37 H3          2.4930   -1.0990    2.1760 ha        1 411      0.137500
     38 H5         -0.6860    1.8120    2.6470 ha        1 411      0.137500
     39 H6         -1.9190    0.7620    0.7530 ha        1 411      0.159000
     40 H8          2.4170    2.9590    2.7560 ha        1 411      0.200000
     41 H9          3.5580    3.3580    5.1880 ha        1 411      0.192000
     42 H11         2.6740   -1.3210    5.6600 h1        1 411      0.147200
     43 H11A        1.4670   -1.4590    4.2570 h1        1 411      0.147200
     44 HN2         0.8790   -0.5710    8.1940 hn        1 411      0.514300
     45 HN3        -1.9310    1.2900    6.9450 hn        1 411      0.517400
     46 HN4        -1.2650   -2.4730    7.9800 hn        1 411      0.512133
     47 HN4A       -1.1130   -1.6150    9.4360 hn        1 411      0.512133
     48 H15         4.5000   -0.3900    6.7110 ha        1 411      0.173000
     49 H16         4.4610   -1.2670    9.0430 ha        1 411      0.175000
     50 H18         1.7070    1.9060   10.1630 ha        1 411      0.175000
     51 H19         1.7700    2.7650    7.8190 ha        1 411      0.173000
     52 HN5         3.2920   -0.4670   11.6720 hn        1 411      0.370500
     53 H22         0.6320   -3.8190   11.2850 ha        1 411      0.136000
     54 H23         0.1450   -5.0240   13.4210 ha        1 411      0.168000
     55 H24         0.4440   -3.8750   15.6060 ha        1 411      0.181000
     56 H26         1.7360   -0.2840   13.5490 ha        1 411      0.156000
     57 H221        0.5240    0.6300    7.0860 hn        1 411      0.514300
     58 H43        -2.5930   -1.6500    8.6160 hn        1 411      0.512133
@<TRIPOS>BOND
     1    1    2 ar  
     2    1    6 ar  
     3    1   35 1   
     4    2    3 ar  
     5    2   36 1   
     6    3    4 ar  
     7    3   37 1   
     8    4    5 ar  
     9    4    7 1   
    10    5    6 ar  
    11    5   38 1   
    12    6   39 1   
    13    7    8 2   
    14    7   11 1   
    15    8    9 1   
    16    8   40 1   
    17    9   10 2   
    18    9   41 1   
    19   10   11 1   
    20   10   19 1   
    21   11   12 1   
    22   12   13 1   
    23   12   42 1   
    24   12   43 1   
    25   13   14 2   
    26   13   15 1   
    27   15   16 1   
    28   15   44 1   
    29   15   57 1   
    30   16   17 2   
    31   16   18 1   
    32   17   45 1   
    33   18   46 1   
    34   18   47 1   
    35   18   58 1   
    36   19   20 ar  
    37   19   24 ar  
    38   20   21 ar  
    39   20   48 1   
    40   21   22 ar  
    41   21   49 1   
    42   22   23 ar  
    43   22   25 1   
    44   23   24 ar  
    45   23   50 1   
    46   24   51 1   
    47   25   26 1   
    48   25   52 1   
    49   26   27 2   
    50   26   28 1   
    51   28   29 ar  
    52   28   33 ar  
    53   29   30 ar  
    54   29   53 1   
    55   30   31 ar  
    56   30   54 1   
    57   31   32 ar  
    58   31   55 1   
    59   32   33 ar  
    60   32   34 1   
    61   33   56 1   
@<TRIPOS>SUBSTRUCTURE
     1 411         1 TEMP              0 ****  ****    0 ROOT
