@<TRIPOS>MOLECULE
413
   71    74     1     0     0
SMALL
bcc


@<TRIPOS>ATOM
      1 O31         0.6020   -1.4020   -1.8620 o         1 413     -0.435100
      2 C31         1.7550   -1.1340   -1.5580 c         1 413      0.490100
      3 N4          2.0020   -0.5080   -0.2180 n4        1 413     -0.666800
      4 C23         0.8920    0.4080    0.2640 c3        1 413      0.078800
      5 C24         0.7700    0.3090    1.7510 ca        1 413     -0.159300
      6 C25         1.7100    0.9340    2.5800 ca        1 413     -0.101000
      7 C26         1.5780    0.8530    3.9640 ca        1 413     -0.128000
      8 C27         0.5070    0.1540    4.5250 ca        1 413     -0.090000
      9 C28        -0.4340   -0.4630    3.7000 ca        1 413     -0.128000
     10 C29        -0.3050   -0.3890    2.3130 ca        1 413     -0.101000
     11 C30         1.1980    1.8650   -0.1780 c         1 413      0.916600
     12 O30         2.4130    2.2340   -0.2490 o         1 413     -0.818300
     13 O40         0.2350    2.6110   -0.4860 o         1 413     -0.818300
     14 C8          3.0040   -1.3930   -2.4610 c3        1 413      0.235800
     15 N3          2.8400   -0.8080   -3.7710 nh        1 413     -0.700600
     16 C5          2.7240    0.6040   -3.7840 ca        1 413      0.121600
     17 C4          3.7850    1.3930   -3.2830 ca        1 413     -0.151000
     18 C3          3.6070    2.7570   -3.0960 ca        1 413     -0.054500
     19 C6          1.5660    1.2460   -4.2740 ca        1 413     -0.151000
     20 C7          1.3960    2.6150   -4.0860 ca        1 413     -0.054500
     21 C2          2.3840    3.3520   -3.4260 ca        1 413     -0.250900
     22 C1          2.0970    4.7220   -2.9410 ce        1 413      0.592800
     23 N2          2.1110    5.8500   -3.5440 n2        1 413     -0.721100
     24 N1          1.7370    4.6890   -1.4920 n4        1 413     -0.845600
     25 C9          3.2140   -2.8810   -2.4930 ca        1 413     -0.164300
     26 C14         2.2000   -3.7320   -2.9620 ca        1 413     -0.174000
     27 C13         2.4180   -5.1050   -3.0090 ca        1 413      0.113100
     28 O3          1.4990   -6.0370   -3.4300 os        1 413     -0.291900
     29 C15         0.2780   -5.5280   -3.9610 c3        1 413      0.105700
     30 C12         3.6740   -5.6410   -2.5870 ca        1 413      0.154100
     31 C11         4.6710   -4.7780   -2.1340 ca        1 413     -0.184000
     32 C10         4.4420   -3.4010   -2.0910 ca        1 413     -0.088000
     33 O4          3.7790   -7.0050   -2.6750 os        1 413     -0.290900
     34 C16         4.9590   -7.6140   -2.1320 c3        1 413      0.169700
     35 C17         6.1620   -7.4430   -2.9950 ca        1 413     -0.143300
     36 C22         6.0680   -7.6090   -4.3810 ca        1 413     -0.113500
     37 C21         7.2070   -7.4980   -5.1780 ca        1 413     -0.128000
     38 C20         8.4450   -7.2280   -4.5940 ca        1 413     -0.114000
     39 C19         8.5430   -7.0650   -3.2120 ca        1 413     -0.128000
     40 C18         7.4050   -7.1690   -2.4130 ca        1 413     -0.113500
     41 H4          2.8590    0.0720   -0.2630 hn        1 413      0.465800
     42 H23        -0.0710    0.0820   -0.2320 hx        1 413      0.131700
     43 H25         2.5350    1.5120    2.1290 ha        1 413      0.148500
     44 H26         2.3140    1.3470    4.6160 ha        1 413      0.150500
     45 H27         0.4010    0.0950    5.6200 ha        1 413      0.151000
     46 H28        -1.2850   -1.0040    4.1420 ha        1 413      0.150500
     47 H29        -1.0590   -0.8650    1.6670 ha        1 413      0.148500
     48 H8          3.9050   -0.8970   -1.9840 h1        1 413      0.090700
     49 H3          2.1690   -1.2840   -4.3440 hn        1 413      0.423800
     50 HA          4.7500    0.9300   -3.0180 ha        1 413      0.159000
     51 HB          4.4180    3.3560   -2.6530 ha        1 413      0.154500
     52 H6          0.7720    0.6690   -4.7760 ha        1 413      0.159000
     53 H7          0.4640    3.0980   -4.4200 ha        1 413      0.154500
     54 HN2         2.3530    5.8470   -4.5130 hn        1 413      0.465400
     55 H1N1        1.7440    5.6150   -1.0650 hn        1 413      0.486800
     56 H1N2        0.7930    4.2550   -1.3850 hn        1 413      0.486800
     57 H14         1.2350   -3.3090   -3.2800 ha        1 413      0.149000
     58 H151        0.4730   -4.8670   -4.8390 h1        1 413      0.052033
     59 H152       -0.2670   -6.4550   -4.2750 h1        1 413      0.052033
     60 H153       -0.2950   -4.9810   -3.1730 h1        1 413      0.052033
     61 H11         5.6550   -5.1770   -1.8370 ha        1 413      0.166000
     62 H10         5.2520   -2.7370   -1.7530 ha        1 413      0.137000
     63 H161        4.6570   -8.7010   -2.0990 h1        1 413      0.073700
     64 H162        5.1390   -7.2400   -1.0900 h1        1 413      0.073700
     65 H22         5.0880   -7.8270   -4.8350 ha        1 413      0.138000
     66 H21         7.1290   -7.6300   -6.2670 ha        1 413      0.140000
     67 H20         9.3450   -7.1480   -5.2220 ha        1 413      0.140000
     68 H19         9.5200   -6.8590   -2.7490 ha        1 413      0.140000
     69 H18         7.4870   -7.0460   -1.3230 ha        1 413      0.138000
     70 H42         2.1420   -1.2540    0.4710 hn        1 413      0.465800
     71 H13         2.3950    4.0470   -0.9940 hn        1 413      0.486800
@<TRIPOS>BOND
     1    1    2 2   
     2    2    3 1   
     3    2   14 1   
     4    3    4 1   
     5    3   41 1   
     6    3   70 1   
     7    4    5 1   
     8    4   11 1   
     9    4   42 1   
    10    5    6 ar  
    11    5   10 ar  
    12    6    7 ar  
    13    6   43 1   
    14    7    8 ar  
    15    7   44 1   
    16    8    9 ar  
    17    8   45 1   
    18    9   10 ar  
    19    9   46 1   
    20   10   47 1   
    21   11   12 1   
    22   11   13 1   
    23   14   15 1   
    24   14   25 1   
    25   14   48 1   
    26   15   16 1   
    27   15   49 1   
    28   16   17 ar  
    29   16   19 ar  
    30   17   18 ar  
    31   17   50 1   
    32   18   21 ar  
    33   18   51 1   
    34   19   20 ar  
    35   19   52 1   
    36   20   21 ar  
    37   20   53 1   
    38   21   22 1   
    39   22   23 2   
    40   22   24 1   
    41   23   54 1   
    42   24   55 1   
    43   24   56 1   
    44   24   71 1   
    45   25   26 ar  
    46   25   32 ar  
    47   26   27 ar  
    48   26   57 1   
    49   27   28 1   
    50   27   30 ar  
    51   28   29 1   
    52   29   58 1   
    53   29   59 1   
    54   29   60 1   
    55   30   31 ar  
    56   30   33 1   
    57   31   32 ar  
    58   31   61 1   
    59   32   62 1   
    60   33   34 1   
    61   34   35 1   
    62   34   63 1   
    63   34   64 1   
    64   35   36 ar  
    65   35   40 ar  
    66   36   37 ar  
    67   36   65 1   
    68   37   38 ar  
    69   37   66 1   
    70   38   39 ar  
    71   38   67 1   
    72   39   40 ar  
    73   39   68 1   
    74   40   69 1   
@<TRIPOS>SUBSTRUCTURE
     1 413         1 TEMP              0 ****  ****    0 ROOT
