@<TRIPOS>MOLECULE
413
   69    72     1     0     0
SMALL
bcc


@<TRIPOS>ATOM
      1 O31        10.0270   39.9050   34.8560 o         1 413     -0.669100
      2 C31         9.3060   40.0810   33.8440 c         1 413      0.656100
      3 N4          7.9850   40.3780   33.8820 n         1 413     -0.501900
      4 C23         7.2020   40.4880   35.0960 c3        1 413     -0.007000
      5 C24         7.3230   41.8490   35.7350 ca        1 413     -0.059300
      6 C25         6.3880   42.8560   35.4700 ca        1 413     -0.111500
      7 C26         6.5050   44.0990   36.0900 ca        1 413     -0.153000
      8 C27         7.5550   44.3490   36.9730 ca        1 413     -0.148000
      9 C28         8.4940   43.3510   37.2340 ca        1 413     -0.153000
     10 C29         8.3810   42.1070   36.6150 ca        1 413     -0.111500
     11 C30         5.6850   40.1600   34.7860 c         1 413      0.920600
     12 O30         5.2220   40.5380   33.6730 o         1 413     -0.818300
     13 O40         5.0590   39.5340   35.6750 o         1 413     -0.818300
     14 C8          9.9550   39.9890   32.4220 c3        1 413      0.180800
     15 N3         10.9410   38.9300   32.4140 nh        1 413     -0.728600
     16 C5         11.6950   38.6380   31.2840 ca        1 413      0.199600
     17 C4         11.2810   38.9950   29.9760 ca        1 413     -0.204500
     18 C3         12.0180   38.6000   28.8680 ca        1 413     -0.061000
     19 C6         12.8830   37.8690   31.4160 ca        1 413     -0.204500
     20 C7         13.6040   37.4770   30.2980 ca        1 413     -0.061000
     21 C2         13.1860   37.8460   29.0160 ca        1 413     -0.204900
     22 C1         13.9760   37.4350   27.8180 ce        1 413      0.663800
     23 N2         14.3400   36.1930   27.6950 n2        1 413     -0.837100
     24 N1         14.3200   38.5010   26.9520 nh        1 413     -0.958800
     25 C9         10.4770   41.3690   32.0960 ca        1 413     -0.102300
     26 C14        11.4160   41.9710   32.9420 ca        1 413     -0.156000
     27 C13        11.8850   43.2560   32.6630 ca        1 413      0.107100
     28 O3         12.8190   43.9290   33.4260 os        1 413     -0.314900
     29 C15        13.0770   43.3700   34.7110 c3        1 413      0.108700
     30 C12        11.4150   43.9400   31.5140 ca        1 413      0.087100
     31 C11        10.4780   43.3310   30.6780 ca        1 413     -0.163000
     32 C10        10.0080   42.0510   30.9720 ca        1 413     -0.118000
     33 O4         11.9700   45.1850   31.2680 os        1 413     -0.312900
     34 C16        11.0990   46.1310   30.6430 c3        1 413      0.168700
     35 C17        11.2140   46.1200   29.1530 ca        1 413     -0.118300
     36 C22        12.4330   45.8250   28.5330 ca        1 413     -0.114500
     37 C21        12.5380   45.8600   27.1440 ca        1 413     -0.134500
     38 C20        11.4300   46.1950   26.3660 ca        1 413     -0.132000
     39 C19        10.2120   46.4890   26.9800 ca        1 413     -0.134500
     40 C18        10.1020   46.4500   28.3690 ca        1 413     -0.114500
     41 H4          7.4610   40.4920   33.0400 hn        1 413      0.338500
     42 H23         7.5770   39.7170   35.8330 h1        1 413      0.074700
     43 H25         5.5560   42.6450   34.7740 ha        1 413      0.158500
     44 H26         5.7630   44.8840   35.8830 ha        1 413      0.111500
     45 H27         7.6430   45.3290   37.4620 ha        1 413      0.107000
     46 H28         9.3230   43.5450   37.9280 ha        1 413      0.111500
     47 H29         9.1270   41.3180   36.8030 ha        1 413      0.158500
     48 H8          9.1660   39.7060   31.6600 h1        1 413      0.077700
     49 H3         11.4150   38.8190   33.2900 hn        1 413      0.431800
     50 HA         10.3720   39.5980   29.8300 ha        1 413      0.136500
     51 HB         11.6590   38.8800   27.8660 ha        1 413      0.130000
     52 H6         13.2340   37.5690   32.4150 ha        1 413      0.136500
     53 H7         14.5140   36.8700   30.4220 ha        1 413      0.130000
     54 HN2        14.8700   35.9680   26.8790 hn        1 413      0.370400
     55 H1N1       14.4590   38.2710   25.9960 hn        1 413      0.392300
     56 H1N2       13.8150   39.3450   27.0970 hn        1 413      0.392300
     57 H14        11.7410   41.4300   33.8460 ha        1 413      0.165000
     58 H151       13.7280   44.1370   35.2010 h1        1 413      0.045700
     59 H152       13.6220   42.4000   34.6090 h1        1 413      0.045700
     60 H153       12.1300   43.2280   35.2860 h1        1 413      0.045700
     61 H11        10.1100   43.8660   29.7890 ha        1 413      0.143000
     62 H10         9.2580   41.5870   30.3140 ha        1 413      0.135000
     63 H161       11.4720   47.1180   31.0390 h1        1 413      0.066200
     64 H162       10.0360   45.9730   30.9670 h1        1 413      0.066200
     65 H22        13.3000   45.5530   29.1560 ha        1 413      0.142000
     66 H21        13.4980   45.6230   26.6620 ha        1 413      0.128500
     67 H20        11.5140   46.2240   25.2700 ha        1 413      0.125000
     68 H19         9.3360   46.7490   26.3690 ha        1 413      0.128500
     69 H18         9.1390   46.6750   28.8510 ha        1 413      0.142000
@<TRIPOS>BOND
     1    1    2 2   
     2    2    3 1   
     3    2   14 1   
     4    3    4 1   
     5    3   41 1   
     6    4    5 1   
     7    4   11 1   
     8    4   42 1   
     9    5    6 ar  
    10    5   10 ar  
    11    6    7 ar  
    12    6   43 1   
    13    7    8 ar  
    14    7   44 1   
    15    8    9 ar  
    16    8   45 1   
    17    9   10 ar  
    18    9   46 1   
    19   10   47 1   
    20   11   12 1   
    21   11   13 1   
    22   14   15 1   
    23   14   25 1   
    24   14   48 1   
    25   15   16 1   
    26   15   49 1   
    27   16   17 ar  
    28   16   19 ar  
    29   17   18 ar  
    30   17   50 1   
    31   18   21 ar  
    32   18   51 1   
    33   19   20 ar  
    34   19   52 1   
    35   20   21 ar  
    36   20   53 1   
    37   21   22 1   
    38   22   23 2   
    39   22   24 1   
    40   23   54 1   
    41   24   55 1   
    42   24   56 1   
    43   25   26 ar  
    44   25   32 ar  
    45   26   27 ar  
    46   26   57 1   
    47   27   28 1   
    48   27   30 ar  
    49   28   29 1   
    50   29   58 1   
    51   29   59 1   
    52   29   60 1   
    53   30   31 ar  
    54   30   33 1   
    55   31   32 ar  
    56   31   61 1   
    57   32   62 1   
    58   33   34 1   
    59   34   35 1   
    60   34   63 1   
    61   34   64 1   
    62   35   36 ar  
    63   35   40 ar  
    64   36   37 ar  
    65   36   65 1   
    66   37   38 ar  
    67   37   66 1   
    68   38   39 ar  
    69   38   67 1   
    70   39   40 ar  
    71   39   68 1   
    72   40   69 1   
@<TRIPOS>SUBSTRUCTURE
     1 413         1 TEMP              0 ****  ****    0 ROOT
