@<TRIPOS>MOLECULE
413
   71    74     1     0     0
SMALL
bcc


@<TRIPOS>ATOM
      1 O31         0.6060   -1.3550   -1.8290 o         1 413     -0.435100
      2 C31         1.7680   -1.1150   -1.5360 c         1 413      0.490100
      3 N4          2.0440   -0.5130   -0.1910 ny        1 413     -0.666800
      4 C23         0.9590    0.4170    0.3190 c3        1 413      0.078800
      5 C24         0.8540    0.3000    1.8060 ca        1 413     -0.159300
      6 C25         1.8170    0.8940    2.6310 ca        1 413     -0.101000
      7 C26         1.7010    0.7950    4.0160 ca        1 413     -0.128000
      8 C27         0.6230    0.1100    4.5810 ca        1 413     -0.090000
      9 C28        -0.3410   -0.4750    3.7590 ca        1 413     -0.128000
     10 C29        -0.2280   -0.3840    2.3720 ca        1 413     -0.101000
     11 C30         1.2890    1.8740   -0.1060 c         1 413      0.916600
     12 O30         2.5100    2.2200   -0.1890 o         1 413     -0.818300
     13 O40         0.3370    2.6440   -0.3910 o         1 413     -0.818300
     14 C8          3.0000   -1.3840   -2.4590 c3        1 413      0.235800
     15 N3          2.8310   -0.7790   -3.7580 nu        1 413     -0.700600
     16 C5          2.7430    0.6360   -3.7500 ca        1 413      0.121600
     17 C4          3.8260    1.3960   -3.2530 ca        1 413     -0.151000
     18 C3          3.6770    2.7610   -3.0430 ca        1 413     -0.054500
     19 C6          1.5910    1.3080   -4.2150 ca        1 413     -0.151000
     20 C7          1.4510    2.6760   -4.0050 ca        1 413     -0.054500
     21 C2          2.4620    3.3840   -3.3490 ca        1 413     -0.250900
     22 C1          2.2090    4.7520   -2.8400 ce        1 413      0.592800
     23 N2          2.2380    5.8890   -3.4270 n2        1 413     -0.721100
     24 N1          1.8680    4.7050   -1.3870 nz        1 413     -0.845600
     25 C9          3.1810   -2.8760   -2.5140 ca        1 413     -0.164300
     26 C14         2.1450   -3.7010   -2.9810 ca        1 413     -0.174000
     27 C13         2.3340   -5.0770   -3.0500 ca        1 413      0.113100
     28 O3          1.3920   -5.9850   -3.4730 os        1 413     -0.291900
     29 C15         0.1750   -5.4450   -3.9800 c3        1 413      0.105700
     30 C12         3.5850   -5.6430   -2.6520 ca        1 413      0.154100
     31 C11         4.6050   -4.8060   -2.2000 ca        1 413     -0.184000
     32 C10         4.4030   -3.4250   -2.1350 ca        1 413     -0.088000
     33 O4          3.6630   -7.0070   -2.7610 os        1 413     -0.290900
     34 C16         4.8370   -7.6470   -2.2420 c3        1 413      0.169700
     35 C17         6.0330   -7.4860   -3.1170 ca        1 413     -0.143300
     36 C22         5.9180   -7.6300   -4.5040 ca        1 413     -0.113500
     37 C21         7.0490   -7.5280   -5.3130 ca        1 413     -0.128000
     38 C20         8.3000   -7.2920   -4.7410 ca        1 413     -0.114000
     39 C19         8.4180   -7.1520   -3.3580 ca        1 413     -0.128000
     40 C18         7.2880   -7.2450   -2.5470 ca        1 413     -0.113500
     41 H4          2.1770   -1.2720    0.4870 hn        1 413      0.465800
     42 H23        -0.0170    0.1180   -0.1690 hx        1 413      0.131700
     43 H25         2.6480    1.4610    2.1780 ha        1 413      0.148500
     44 H26         2.4560    1.2660    4.6650 ha        1 413      0.150500
     45 H27         0.5300    0.0380    5.6760 ha        1 413      0.151000
     46 H28        -1.1970   -1.0060    4.2050 ha        1 413      0.150500
     47 H29        -0.9990   -0.8350    1.7290 ha        1 413      0.148500
     48 H8          3.9160   -0.9130   -1.9860 h1        1 413      0.090700
     49 H3          2.1430   -1.2320   -4.3290 hn        1 413      0.423800
     50 HA          4.7850    0.9110   -3.0070 ha        1 413      0.159000
     51 HB          4.5060    3.3380   -2.6040 ha        1 413      0.154500
     52 H6          0.7790    0.7530   -4.7130 ha        1 413      0.159000
     53 H7          0.5240    3.1830   -4.3190 ha        1 413      0.154500
     54 HN2         2.4670    5.8950   -4.3990 hn        1 413      0.465400
     55 H1N1        0.9170    4.2900   -1.2740 hn        1 413      0.486800
     56 H1N2        1.8980    5.6250   -0.9480 hn        1 413      0.486800
     57 H14         1.1840   -3.2550   -3.2810 ha        1 413      0.149000
     58 H151       -0.3770   -4.8980   -3.1770 h1        1 413      0.052033
     59 H152       -0.3920   -6.3560   -4.3000 h1        1 413      0.052033
     60 H153        0.3710   -4.7740   -4.8510 h1        1 413      0.052033
     61 H11         5.5840   -5.2280   -1.9210 ha        1 413      0.166000
     62 H10         5.2300   -2.7810   -1.7980 ha        1 413      0.137000
     63 H161        5.0370   -7.2910   -1.1970 h1        1 413      0.073700
     64 H162        4.5140   -8.7280   -2.2200 h1        1 413      0.073700
     65 H22         4.9290   -7.8210   -4.9480 ha        1 413      0.138000
     66 H21         6.9550   -7.6430   -6.4030 ha        1 413      0.140000
     67 H20         9.1930   -7.2200   -5.3800 ha        1 413      0.140000
     68 H19         9.4040   -6.9720   -2.9050 ha        1 413      0.140000
     69 H18         7.3860   -7.1410   -1.4560 ha        1 413      0.138000
     70 H42         2.9120    0.0500   -0.2380 hn        1 413      0.465800
     71 H13         2.5190    4.0430   -0.9070 hn        1 413      0.486800
@<TRIPOS>BOND
     1    1    2 2   
     2    2    3 1   
     3    2   14 1   
     4    3    4 1   
     5    3   41 1   
     6    3   70 1   
     7    4    5 1   
     8    4   11 1   
     9    4   42 1   
    10    5    6 ar  
    11    5   10 ar  
    12    6    7 ar  
    13    6   43 1   
    14    7    8 ar  
    15    7   44 1   
    16    8    9 ar  
    17    8   45 1   
    18    9   10 ar  
    19    9   46 1   
    20   10   47 1   
    21   11   12 1   
    22   11   13 1   
    23   14   15 1   
    24   14   25 1   
    25   14   48 1   
    26   15   16 1   
    27   15   49 1   
    28   16   17 ar  
    29   16   19 ar  
    30   17   18 ar  
    31   17   50 1   
    32   18   21 ar  
    33   18   51 1   
    34   19   20 ar  
    35   19   52 1   
    36   20   21 ar  
    37   20   53 1   
    38   21   22 1   
    39   22   23 2   
    40   22   24 1   
    41   23   54 1   
    42   24   55 1   
    43   24   56 1   
    44   24   71 1   
    45   25   26 ar  
    46   25   32 ar  
    47   26   27 ar  
    48   26   57 1   
    49   27   28 1   
    50   27   30 ar  
    51   28   29 1   
    52   29   58 1   
    53   29   59 1   
    54   29   60 1   
    55   30   31 ar  
    56   30   33 1   
    57   31   32 ar  
    58   31   61 1   
    59   32   62 1   
    60   33   34 1   
    61   34   35 1   
    62   34   63 1   
    63   34   64 1   
    64   35   36 ar  
    65   35   40 ar  
    66   36   37 ar  
    67   36   65 1   
    68   37   38 ar  
    69   37   66 1   
    70   38   39 ar  
    71   38   67 1   
    72   39   40 ar  
    73   39   68 1   
    74   40   69 1   
@<TRIPOS>SUBSTRUCTURE
     1 413         1 TEMP              0 ****  ****    0 ROOT
