@<TRIPOS>MOLECULE
413
   72    74     1     0     0
SMALL
bcc


@<TRIPOS>ATOM
      1 O31         0.3770    0.2650   -1.5480 o         1 413     -0.301000
      2 C31         1.4660   -0.1020   -1.1060 c2        1 413      0.045000
      3 N4          1.7370   -0.2080    0.4970 n4        1 413      0.103000
      4 C23         0.6340   -0.1120    1.3000 c2        1 413     -0.331000
      5 C24        -0.1900   -1.2280    1.7000 ca        1 413     -0.030000
      6 C25         0.2750   -2.5530    1.7240 ca        1 413     -0.136000
      7 C26        -0.5440   -3.5780    2.1930 ca        1 413     -0.117500
      8 C27        -1.8340   -3.3000    2.6440 ca        1 413     -0.112000
      9 C28        -2.3060   -1.9860    2.6220 ca        1 413     -0.117500
     10 C29        -1.4960   -0.9580    2.1510 ca        1 413     -0.136000
     11 C30         4.8340    0.3410    2.9090 c1        1 413      0.439000
     12 O30         4.2470    0.2830    1.8670 o         1 413     -0.219000
     13 O40         5.4230    0.3990    3.9320 o         1 413     -0.219000
     14 C8          2.5830   -0.5540   -2.0610 c3        1 413     -0.066000
     15 N3          2.1060   -0.6710   -3.5220 n4        1 413     -0.007000
     16 C5          2.1730    0.5700   -4.2880 ca        1 413     -0.064000
     17 C4          3.2930    0.8410   -5.0960 ca        1 413     -0.095000
     18 C3          3.3220    2.0010   -5.8690 ca        1 413     -0.078000
     19 C6          1.1000    1.4810   -4.2380 ca        1 413     -0.095000
     20 C7          1.1400    2.6360   -5.0170 ca        1 413     -0.078000
     21 C2          2.2430    2.8920   -5.8380 ca        1 413     -0.138000
     22 C1          2.2410    4.0620   -6.7500 c2        1 413      0.046000
     23 N2          2.1440    4.1290   -8.0200 n2        1 413     -0.142000
     24 N1          2.3740    5.3700   -6.0200 n4        1 413     -0.054000
     25 C9          3.1600   -1.8690   -1.6640 ca        1 413     -0.222000
     26 C14         2.3030   -2.9520   -1.3840 ca        1 413     -0.197000
     27 C13         2.8370   -4.1910   -1.0570 ca        1 413      0.073000
     28 O3          2.1140   -5.3230   -0.7850 os        1 413     -0.165000
     29 C15         0.6930   -5.2130   -0.8640 c3        1 413     -0.094000
     30 C12         4.2620   -4.3590   -0.9850 ca        1 413      0.141000
     31 C11         5.0930   -3.2700   -1.2570 ca        1 413     -0.199000
     32 C10         4.5430   -2.0350   -1.6020 ca        1 413     -0.077000
     33 O4          4.6730   -5.6110   -0.6440 os        1 413     -0.162000
     34 C16         6.0800   -5.8260   -0.4280 c3        1 413      0.011000
     35 C17         6.8660   -5.8750   -1.6920 ca        1 413     -0.147000
     36 C22         6.4260   -6.6560   -2.7650 ca        1 413     -0.113500
     37 C21         7.1990   -6.7520   -3.9220 ca        1 413     -0.128000
     38 C20         8.4160   -6.0750   -4.0080 ca        1 413     -0.109000
     39 C19         8.8590   -5.2980   -2.9370 ca        1 413     -0.128000
     40 C18         8.0860   -5.1940   -1.7820 ca        1 413     -0.113500
     41 H4          2.3780    0.5720    0.6450 hn        1 413      0.245000
     42 H23         0.2120    0.9000    1.4260 hx        1 413      0.163000
     43 H25         1.2960   -2.8010    1.3990 ha        1 413      0.123500
     44 H26        -0.1630   -4.6100    2.2260 ha        1 413      0.146000
     45 H27        -2.4740   -4.1110    3.0240 ha        1 413      0.151000
     46 H28        -3.3230   -1.7620    2.9820 ha        1 413      0.146000
     47 H29        -1.8740    0.0760    2.1410 ha        1 413      0.123500
     48 H8          3.3770    0.2500   -2.0470 hx        1 413      0.143000
     49 H3          2.6620   -1.3980   -3.9930 hn        1 413      0.258000
     50 HA          4.1490    0.1440   -5.1450 ha        1 413      0.194500
     51 HB          4.1980    2.1960   -6.5120 ha        1 413      0.173000
     52 H6          0.2210    1.2900   -3.5870 ha        1 413      0.194500
     53 H7          0.2760    3.3230   -4.9930 ha        1 413      0.173000
     54 HN2         2.0460    3.2920   -8.5600 hn        1 413      0.257000
     55 H1N1        2.2800    6.1750   -6.6600 hn        1 413      0.273333
     56 H1N2        3.2960    5.4060   -5.5720 hn        1 413      0.273333
     57 H14         1.2120   -2.8070   -1.4120 ha        1 413      0.149000
     58 H151        0.3130   -4.4860   -0.1020 h1        1 413      0.099333
     59 H152        0.3490   -6.2530   -0.6270 h1        1 413      0.099333
     60 H153        0.3770   -4.9170   -1.8930 h1        1 413      0.099333
     61 H11         6.1890   -3.3930   -1.2220 ha        1 413      0.176000
     62 H10         5.2190   -1.1920   -1.8130 ha        1 413      0.136000
     63 H161        6.4760   -5.0560    0.2850 h1        1 413      0.123000
     64 H162        6.0720   -6.8400    0.0700 h1        1 413      0.123000
     65 H22         5.4730   -7.2010   -2.6850 ha        1 413      0.139500
     66 H21         6.8550   -7.3770   -4.7610 ha        1 413      0.145000
     67 H20         9.0340   -6.1660   -4.9150 ha        1 413      0.146000
     68 H19         9.8270   -4.7770   -2.9980 ha        1 413      0.145000
     69 H18         8.4480   -4.5940   -0.9330 ha        1 413      0.139500
     70 H42         2.2260   -1.1020    0.5750 hn        1 413      0.245000
     71 H32         1.1230   -0.9800   -3.4870 hn        1 413      0.258000
     72 H13         1.6430    5.4210   -5.3030 hn        1 413      0.273333
@<TRIPOS>BOND
     1    1    2 1   
     2    2    3 1   
     3    2   14 1   
     4    3    4 1   
     5    3   41 1   
     6    3   70 1   
     7    4    5 1   
     8    4   42 1   
     9    5    6 1   
    10    5   10 1   
    11    6    7 1   
    12    6   43 1   
    13    7    8 1   
    14    7   44 1   
    15    8    9 1   
    16    8   45 1   
    17    9   10 1   
    18    9   46 1   
    19   10   47 1   
    20   11   12 1   
    21   11   13 1   
    22   14   15 1   
    23   14   25 1   
    24   14   48 1   
    25   15   16 1   
    26   15   49 1   
    27   15   71 1   
    28   16   17 1   
    29   16   19 1   
    30   17   18 1   
    31   17   50 1   
    32   18   21 1   
    33   18   51 1   
    34   19   20 1   
    35   19   52 1   
    36   20   21 1   
    37   20   53 1   
    38   21   22 1   
    39   22   23 1   
    40   22   24 1   
    41   23   54 1   
    42   24   55 1   
    43   24   56 1   
    44   24   72 1   
    45   25   26 1   
    46   25   32 1   
    47   26   27 1   
    48   26   57 1   
    49   27   28 1   
    50   27   30 1   
    51   28   29 1   
    52   29   58 1   
    53   29   59 1   
    54   29   60 1   
    55   30   31 1   
    56   30   33 1   
    57   31   32 1   
    58   31   61 1   
    59   32   62 1   
    60   33   34 1   
    61   34   35 1   
    62   34   63 1   
    63   34   64 1   
    64   35   36 1   
    65   35   40 1   
    66   36   37 1   
    67   36   65 1   
    68   37   38 1   
    69   37   66 1   
    70   38   39 1   
    71   38   67 1   
    72   39   40 1   
    73   39   68 1   
    74   40   69 1   
@<TRIPOS>SUBSTRUCTURE
     1 413         1 TEMP              0 ****  ****    0 ROOT
