@<TRIPOS>MOLECULE
413
   69    62     1     0     0
SMALL
bcc


@<TRIPOS>ATOM
      1 O31        -2.2210    1.0900    1.8310 o         1 413     -0.399000
      2 C31        -2.1840    0.0790    1.1130 c1        1 413      0.298000
      3 N4         -2.9880   -1.0930    1.4620 n2        1 413     -0.321000
      4 C23        -3.6650   -1.1350    2.6830 c3        1 413     -0.044000
      5 C24        -3.7340   -2.5630    3.1720 c2        1 413     -0.047000
      6 C25        -4.4400   -3.5260    2.4310 c1        1 413     -0.126000
      7 C26        -4.4600   -4.8450    2.8540 c1        1 413     -0.143250
      8 C27        -3.7780   -5.2170    4.0180 c1        1 413     -0.143250
      9 C28        -3.0740   -4.2560    4.7570 c1        1 413     -0.151000
     10 C29        -3.0530   -2.9360    4.3340 c2        1 413     -0.100000
     11 C30        -2.9180   -0.2850    3.7030 c2        1 413      0.335000
     12 O30        -1.8160    0.2200    3.4060 o         1 413     -0.554500
     13 O40        -3.4390   -0.0240    4.7790 o         1 413     -0.554500
     14 C8         -1.4470    0.1210   -0.2110 c3        1 413      0.021000
     15 N3         -1.1260   -1.2250   -0.6300 n3        1 413     -0.294000
     16 C5         -1.4110   -1.6510   -1.9970 c2        1 413      0.121000
     17 C4         -2.5490   -1.1820   -2.6470 c2        1 413     -0.204000
     18 C3         -2.8720   -1.6590   -3.9120 c1        1 413     -0.055000
     19 C6         -0.5940   -2.6040   -2.6170 c1        1 413     -0.208000
     20 C7         -0.9190   -3.0810   -3.8840 c1        1 413     -0.071000
     21 C2         -2.0520   -2.6130   -4.5320 c1        1 413     -0.184000
     22 C1         -2.4360   -3.1750   -5.8500 c2        1 413      0.130000
     23 N2         -3.0740   -4.3470   -5.9170 n1        1 413     -0.326000
     24 N1         -2.1230   -2.4710   -7.0370 n3        1 413     -0.336000
     25 C9         -0.1800    0.9150   -0.0560 c2        1 413     -0.084000
     26 C14        -0.2410    2.2970    0.1020 c2        1 413     -0.176000
     27 C13         0.9270    3.0340    0.2170 c1        1 413      0.052000
     28 O3          0.8620    4.4100    0.5220 o         1 413     -0.210000
     29 C15         0.6890    5.2510   -0.6230 c3        1 413     -0.079000
     30 C12         2.1510    2.3970    0.1750 c2        1 413      0.025000
     31 C11         2.2100    1.0220    0.0180 c1        1 413     -0.096000
     32 C10         1.0380    0.2820   -0.0970 c1        1 413     -0.127000
     33 O4          3.3430    3.1550    0.2260 os        1 413     -0.219000
     34 C16         4.1810    2.8450    1.3450 c3        1 413      0.011000
     35 C17         5.5890    3.3000    1.0590 c2        1 413     -0.071000
     36 C22         6.2830    2.7800   -0.0360 c2        1 413     -0.104000
     37 C21         7.5710    3.2130   -0.3100 c1        1 413     -0.138000
     38 C20         8.1700    4.1630    0.5020 c1        1 413     -0.143250
     39 C19         7.4780    4.6810    1.5950 c1        1 413     -0.143250
     40 C18         6.1860    4.2470    1.8700 c1        1 413     -0.125000
     41 H4         -3.0840   -1.7650    0.8730 hn        1 413      0.245000
     42 H23        -4.5910   -0.7770    2.5650 h1        1 413      0.113000
     43 H25        -4.9170   -3.2610    1.5920 ha        1 413      0.147000
     44 H26        -4.9590   -5.5260    2.3320 ha        1 413      0.117000
     45 H27        -3.7930   -6.1230    4.3090 ha        1 413      0.117000
     46 H28        -2.5960   -4.5170    5.5740 ha        1 413      0.115000
     47 H29        -2.5510   -2.2490    4.8620 ha        1 413      0.168000
     48 H8         -2.0070    0.5390   -0.8750 h1        1 413      0.130000
     49 H3         -0.7850   -1.8340   -0.0160 hn        1 413      0.223000
     50 HA         -3.0890   -0.4510   -2.2380 ha        1 413      0.141000
     51 HB         -3.6700   -1.2830   -4.4030 ha        1 413      0.139000
     52 H6          0.2340   -2.9190   -2.1650 ha        1 413      0.138000
     53 H7         -0.3210   -3.6830   -4.3390 ha        1 413      0.129000
     54 HN2        -3.2840   -4.8220   -5.1190 DU        1 413      0.147000
     55 H1N1       -2.3820   -2.8070   -7.8500 hn        1 413      0.189000
     56 H1N2       -1.6050   -1.7380   -7.0000 hn        1 413      0.189000
     57 H14        -1.0900    2.7440    0.0830 ha        1 413      0.144000
     58 H151        1.2070    4.8960   -1.3670 h1        1 413      0.083333
     59 H152        0.9970    6.1520   -0.4140 h1        1 413      0.083333
     60 H153       -0.2630    5.2790   -0.8690 h1        1 413      0.083333
     61 H11         3.0400    0.5900   -0.0100 ha        1 413      0.154000
     62 H10         1.0840   -0.7100   -0.2750 ha        1 413      0.146000
     63 H161        3.8380    3.3160    2.1610 h1        1 413      0.098500
     64 H162        4.1760    1.8590    1.5020 h1        1 413      0.098500
     65 H22         5.8510    2.0970   -0.6220 ha        1 413      0.151000
     66 H21         8.0740    2.8400   -1.1120 ha        1 413      0.125000
     67 H20         9.0420    4.5150    0.2710 ha        1 413      0.117000
     68 H19         7.8940    5.3410    2.1590 ha        1 413      0.117000
     69 H18         5.6660    4.6850    2.5690 ha        1 413      0.136000
@<TRIPOS>BOND
     1    1    2 1   
     2    2   14 1   
     3    3    4 1   
     4    3   41 1   
     5    4    5 1   
     6    4   11 1   
     7    4   42 1   
     8    5    6 1   
     9    5   10 1   
    10    6   43 1   
    11    7    8 1   
    12    7   44 1   
    13    8   45 1   
    14    9   10 1   
    15    9   46 1   
    16   10   47 1   
    17   11   12 1   
    18   11   13 1   
    19   14   15 1   
    20   14   25 1   
    21   14   48 1   
    22   15   16 1   
    23   15   49 1   
    24   16   17 1   
    25   16   19 1   
    26   17   18 1   
    27   17   50 1   
    28   18   51 1   
    29   19   52 1   
    30   20   21 1   
    31   20   53 1   
    32   21   22 1   
    33   22   23 1   
    34   22   24 1   
    35   24   55 1   
    36   24   56 1   
    37   25   26 1   
    38   25   32 1   
    39   26   27 1   
    40   26   57 1   
    41   27   30 1   
    42   28   29 1   
    43   29   58 1   
    44   29   59 1   
    45   29   60 1   
    46   30   31 1   
    47   30   33 1   
    48   31   61 1   
    49   32   62 1   
    50   33   34 1   
    51   34   35 1   
    52   34   63 1   
    53   34   64 1   
    54   35   36 1   
    55   35   40 1   
    56   36   37 1   
    57   36   65 1   
    58   37   66 1   
    59   38   39 1   
    60   38   67 1   
    61   39   68 1   
    62   40   69 1   
@<TRIPOS>SUBSTRUCTURE
     1 413         1 TEMP              0 ****  ****    0 ROOT
