@<TRIPOS>MOLECULE
414
   67    69     1     0     0
SMALL
bcc


@<TRIPOS>ATOM
      1 C37        -5.1090    0.3440   -0.1420 ca        1 414     -0.094000
      2 C38        -5.1320    0.7350   -1.4800 ca        1 414     -0.139500
      3 C39        -3.9530    1.1250   -2.1160 ca        1 414     -0.107000
      4 C40        -2.7470    1.1240   -1.4150 ca        1 414     -0.139500
      5 C41        -2.7170    0.7330   -0.0770 ca        1 414     -0.094000
      6 C36        -3.9000    0.3480    0.5630 ca        1 414     -0.123300
      7 C33        -3.8910   -0.0310    2.0010 c3        1 414      0.201700
      8 O32        -3.7520   -1.4900    2.0240 os        1 414     -0.398900
      9 C30        -3.8460   -2.0460    3.2520 c         1 414      0.623100
     10 O31        -3.6980   -1.4250    4.3000 o         1 414     -0.454000
     11 N29        -4.0730   -3.5120    3.2050 ny        1 414     -0.594800
     12 C25        -5.3190   -3.8970    2.5050 c3        1 414     -0.097700
     13 C50        -5.1870   -4.9890    1.4520 c3        1 414     -0.080700
     14 C51        -4.0190   -5.9570    1.6240 c3        1 414     -0.080400
     15 C52        -4.1140   -7.0660    0.5930 c3        1 414     -0.076400
     16 C53        -4.0860   -6.5020   -0.8130 c3        1 414     -0.079400
     17 C54        -5.1720   -5.4650   -1.0090 c3        1 414     -0.076400
     18 C55        -5.1180   -4.3840    0.0520 c3        1 414     -0.080400
     19 P24        -6.5060   -4.4460    3.7260 p5        1 414      1.313600
     20 O34        -5.6330   -4.9670    4.8020 o         1 414     -0.790000
     21 O35        -7.6630   -5.0520    3.0590 o         1 414     -0.790000
     22 O23        -6.9570   -2.9350    4.2280 os        1 414     -0.567200
     23 C1         -8.2010   -2.4430    3.8410 c3        1 414      0.156400
     24 C2         -7.9770   -1.2660    2.8920 c         1 414      0.624100
     25 O14        -9.0040   -0.4420    2.5510 oh        1 414     -0.581100
     26 O13        -6.9160   -0.9830    2.3240 o         1 414     -0.556000
     27 C3         -8.9970   -2.0100    5.0420 ca        1 414     -0.113300
     28 C8        -10.3920   -2.0280    4.9720 ca        1 414     -0.150000
     29 C4         -8.3570   -1.6160    6.2200 ca        1 414     -0.086000
     30 C5         -9.1190   -1.2210    7.3190 ca        1 414     -0.128000
     31 C6        -10.5080   -1.1960    7.2510 ca        1 414     -0.119000
     32 C7        -11.1650   -1.5930    6.0660 ca        1 414      0.098600
     33 N9        -12.5820   -1.5390    6.0240 nu        1 414     -0.743600
     34 C10       -13.2500   -1.1740    4.7990 c2        1 414      0.757100
     35 N12       -14.4300   -1.6080    4.4300 n2        1 414     -0.873100
     36 N11       -12.5560   -0.2400    3.9640 nv        1 414     -0.885800
     37 H37        -6.0370    0.0330    0.3700 ha        1 414      0.150500
     38 H38        -6.0830    0.7350   -2.0330 ha        1 414      0.138000
     39 H39        -3.9740    1.4330   -3.1720 ha        1 414      0.135000
     40 H40        -1.8180    1.4310   -1.9170 ha        1 414      0.138000
     41 H41        -1.7660    0.7310    0.4750 ha        1 414      0.150500
     42 H331       -3.0180    0.3970    2.5590 h1        1 414      0.082700
     43 H332       -4.8590    0.2240    2.5110 h1        1 414      0.082700
     44 HN29       -3.2580   -3.9320    2.7460 hn        1 414      0.481800
     45 H25        -5.7440   -2.9740    2.0070 hx        1 414      0.142700
     46 H50        -6.1490   -5.5910    1.5130 hc        1 414      0.118700
     47 H511       -3.0410   -5.4270    1.4690 hc        1 414      0.041950
     48 H512       -4.0130   -6.4060    2.6510 hc        1 414      0.041950
     49 H521       -3.2570   -7.7750    0.7330 hc        1 414      0.048950
     50 H522       -5.0620   -7.6440    0.7500 hc        1 414      0.048950
     51 H531       -4.2230   -7.3320   -1.5530 hc        1 414      0.040700
     52 H532       -3.0840   -6.0370   -1.0100 hc        1 414      0.040700
     53 H541       -6.1760   -5.9650   -0.9750 hc        1 414      0.048950
     54 H542       -5.0640   -4.9950   -2.0210 hc        1 414      0.048950
     55 H551       -5.9790   -3.6810   -0.0970 hc        1 414      0.041950
     56 H552       -4.1740   -3.7890   -0.0530 hc        1 414      0.041950
     57 H1         -8.7740   -3.2390    3.2620 h1        1 414      0.120700
     58 H8        -10.8870   -2.3910    4.0550 ha        1 414      0.150000
     59 H4         -7.2570   -1.6380    6.2720 ha        1 414      0.165000
     60 H5         -8.6160   -0.9210    8.2510 ha        1 414      0.140000
     61 H6        -11.0930   -0.8690    8.1250 ha        1 414      0.143000
     62 HN9       -13.0090   -2.3030    6.5090 hn        1 414      0.415800
     63 HN12      -14.8250   -2.3330    4.9860 hn        1 414      0.394400
     64 H111      -12.0690    0.4590    4.4860 hn        1 414      0.399800
     65 H112      -13.1490    0.1630    3.2660 hn        1 414      0.399800
     66 H292       -4.1460   -3.8810    4.1970 hn        1 414      0.481800
     67 H113       -9.8070   -0.6840    3.0390 ho        1 414      0.447000
@<TRIPOS>BOND
     1    1    2 ar  
     2    1    6 ar  
     3    1   37 1   
     4    2    3 ar  
     5    2   38 1   
     6    3    4 ar  
     7    3   39 1   
     8    4    5 ar  
     9    4   40 1   
    10    5    6 ar  
    11    5   41 1   
    12    6    7 1   
    13    7    8 1   
    14    7   42 1   
    15    7   43 1   
    16    8    9 1   
    17    9   10 2   
    18    9   11 1   
    19   11   12 1   
    20   11   44 1   
    21   11   66 1   
    22   12   13 1   
    23   12   19 1   
    24   12   45 1   
    25   13   14 1   
    26   13   18 1   
    27   13   46 1   
    28   14   15 1   
    29   14   47 1   
    30   14   48 1   
    31   15   16 1   
    32   15   49 1   
    33   15   50 1   
    34   16   17 1   
    35   16   51 1   
    36   16   52 1   
    37   17   18 1   
    38   17   53 1   
    39   17   54 1   
    40   18   55 1   
    41   18   56 1   
    42   19   20 1   
    43   19   21 1   
    44   19   22 1   
    45   22   23 1   
    46   23   24 1   
    47   23   27 1   
    48   23   57 1   
    49   24   25 1   
    50   24   26 2   
    51   25   67 1   
    52   27   28 ar  
    53   27   29 ar  
    54   28   32 ar  
    55   28   58 1   
    56   29   30 ar  
    57   29   59 1   
    58   30   31 ar  
    59   30   60 1   
    60   31   32 ar  
    61   31   61 1   
    62   32   33 1   
    63   33   34 1   
    64   33   62 1   
    65   34   35 2   
    66   34   36 1   
    67   35   63 1   
    68   36   64 1   
    69   36   65 1   
@<TRIPOS>SUBSTRUCTURE
     1 414         1 TEMP              0 ****  ****    0 ROOT
