@<TRIPOS>MOLECULE
414
   65    67     1     0     0
SMALL
bcc


@<TRIPOS>ATOM
      1 C37        -7.6310   -1.5600   -0.9720 ca        1 414     -0.118000
      2 C38        -8.1240   -2.7840   -0.5230 ca        1 414     -0.135500
      3 C39        -7.3690   -3.5620    0.3540 ca        1 414     -0.148000
      4 C40        -6.1200   -3.1130    0.7810 ca        1 414     -0.135500
      5 C41        -5.6230   -1.8890    0.3340 ca        1 414     -0.118000
      6 C36        -6.3760   -1.1060   -0.5470 ca        1 414     -0.095300
      7 C33        -5.8720    0.2030   -1.0660 c3        1 414      0.187700
      8 O32        -4.8320    0.7340   -0.2590 os        1 414     -0.466900
      9 C30        -3.5120    0.5200   -0.6930 c         1 414      0.715100
     10 O31        -3.3670    0.2570   -1.9010 o         1 414     -0.617000
     11 N29        -2.6150    0.5620    0.3420 n         1 414     -0.438900
     12 C25        -1.2100    0.7680    0.1210 c3        1 414     -0.111500
     13 C50        -0.7720    2.1510   -0.3540 c3        1 414     -0.070700
     14 C51        -1.7290    3.2810    0.0160 c3        1 414     -0.078900
     15 C52        -1.1850    4.6170   -0.4490 c3        1 414     -0.073400
     16 C53        -0.9540    4.6250   -1.9460 c3        1 414     -0.070400
     17 C54        -0.0400    3.4880   -2.3550 c3        1 414     -0.073400
     18 C55        -0.5590    2.1520   -1.8650 c3        1 414     -0.078900
     19 P24        -0.4440    0.3890    1.6920 p5        1 414      1.323600
     20 O34        -0.4180   -1.0820    1.8400 o         1 414     -0.845000
     21 O35        -1.1420    1.2760    2.6530 o         1 414     -0.845000
     22 O23         1.0880    0.8920    1.3790 os        1 414     -0.577200
     23 C1          2.1530    0.0940    1.8100 c3        1 414      0.099400
     24 C2          3.1440    0.8690    2.7480 c         1 414      0.914600
     25 O14         3.7640    0.1440    3.5860 o         1 414     -0.839800
     26 O13         3.3230    2.1050    2.6230 o         1 414     -0.839800
     27 C3          2.9560   -0.4300    0.6490 ca        1 414      0.005700
     28 C8          4.0220   -1.2960    0.9310 ca        1 414     -0.154000
     29 C4          2.7090   -0.0580   -0.6780 ca        1 414     -0.132000
     30 C5          3.5000   -0.5650   -1.7060 ca        1 414     -0.135000
     31 C6          4.5520   -1.4350   -1.4380 ca        1 414     -0.203000
     32 C7          4.8240   -1.8080   -0.1040 ca        1 414      0.055600
     33 N9          5.8580   -2.7500    0.1770 nh        1 414     -0.702600
     34 C10         7.1560   -2.4850   -0.4330 c2        1 414      0.757100
     35 N12         7.9520   -3.4460   -0.8400 n2        1 414     -0.897100
     36 N11         7.5790   -1.1360   -0.5500 nh        1 414     -0.910800
     37 H37        -8.2270   -0.9480   -1.6630 ha        1 414      0.146000
     38 H38        -9.1090   -3.1350   -0.8620 ha        1 414      0.123500
     39 H39        -7.7580   -4.5270    0.7070 ha        1 414      0.114000
     40 H40        -5.5180   -3.7230    1.4710 ha        1 414      0.123500
     41 H41        -4.6330   -1.5320    0.6710 ha        1 414      0.146000
     42 H331       -5.5380    0.0850   -2.1340 h1        1 414      0.063200
     43 H332       -6.6850    0.9800   -1.0080 h1        1 414      0.063200
     44 HN29       -2.9410    0.9710    1.2040 hn        1 414      0.337500
     45 H25        -0.8640    0.0050   -0.6300 h1        1 414      0.085700
     46 H50         0.2220    2.3720    0.1390 hc        1 414      0.106700
     47 H511       -2.7290    3.1100   -0.4630 hc        1 414      0.045200
     48 H512       -1.8760    3.3070    1.1290 hc        1 414      0.045200
     49 H521       -1.9060    5.4310   -0.1770 hc        1 414      0.030450
     50 H522       -0.2190    4.8280    0.0810 hc        1 414      0.030450
     51 H531       -1.9370    4.5220   -2.4770 hc        1 414      0.015200
     52 H532       -0.5040    5.6030   -2.2570 hc        1 414      0.015200
     53 H541        0.0580    3.4690   -3.4710 hc        1 414      0.030450
     54 H542        0.9830    3.6650   -1.9280 hc        1 414      0.030450
     55 H551        0.1800    1.3530   -2.1360 hc        1 414      0.045200
     56 H552       -1.5270    1.9010   -2.3740 hc        1 414      0.045200
     57 H1          1.7490   -0.7930    2.3860 h1        1 414      0.077700
     58 H8          4.2240   -1.5240    1.9950 ha        1 414      0.177000
     59 H4          1.8920    0.6490   -0.8930 ha        1 414      0.150000
     60 H5          3.2940   -0.2740   -2.7460 ha        1 414      0.102000
     61 H6          5.1570   -1.8350   -2.2620 ha        1 414      0.105000
     62 HN9         5.9590   -2.8970    1.1660 hn        1 414      0.399800
     63 HN12        7.6190   -4.3670   -0.6520 hn        1 414      0.386400
     64 H111        6.8410   -0.4630   -0.5370 hn        1 414      0.405800
     65 H112        8.2570   -0.9680   -1.2590 hn        1 414      0.405800
@<TRIPOS>BOND
     1    1    2 ar  
     2    1    6 ar  
     3    1   37 1   
     4    2    3 ar  
     5    2   38 1   
     6    3    4 ar  
     7    3   39 1   
     8    4    5 ar  
     9    4   40 1   
    10    5    6 ar  
    11    5   41 1   
    12    6    7 1   
    13    7    8 1   
    14    7   42 1   
    15    7   43 1   
    16    8    9 1   
    17    9   10 2   
    18    9   11 1   
    19   11   12 1   
    20   11   44 1   
    21   12   13 1   
    22   12   19 1   
    23   12   45 1   
    24   13   14 1   
    25   13   18 1   
    26   13   46 1   
    27   14   15 1   
    28   14   47 1   
    29   14   48 1   
    30   15   16 1   
    31   15   49 1   
    32   15   50 1   
    33   16   17 1   
    34   16   51 1   
    35   16   52 1   
    36   17   18 1   
    37   17   53 1   
    38   17   54 1   
    39   18   55 1   
    40   18   56 1   
    41   19   20 1   
    42   19   21 1   
    43   19   22 1   
    44   22   23 1   
    45   23   24 1   
    46   23   27 1   
    47   23   57 1   
    48   24   25 1   
    49   24   26 1   
    50   27   28 ar  
    51   27   29 ar  
    52   28   32 ar  
    53   28   58 1   
    54   29   30 ar  
    55   29   59 1   
    56   30   31 ar  
    57   30   60 1   
    58   31   32 ar  
    59   31   61 1   
    60   32   33 1   
    61   33   34 1   
    62   33   62 1   
    63   34   35 2   
    64   34   36 1   
    65   35   63 1   
    66   36   64 1   
    67   36   65 1   
@<TRIPOS>SUBSTRUCTURE
     1 414         1 TEMP              0 ****  ****    0 ROOT
