@<TRIPOS>MOLECULE
414
   67    69     1     0     0
SMALL
bcc


@<TRIPOS>ATOM
      1 C37        -2.7710    0.9960    2.1260 ca        1 414     -0.097000
      2 C38        -1.7110    1.4370    2.9160 ca        1 414     -0.134500
      3 C39        -1.8250    1.4310    4.3070 ca        1 414     -0.103000
      4 C40        -3.0010    0.9840    4.9090 ca        1 414     -0.134500
      5 C41        -4.0660    0.5440    4.1240 ca        1 414     -0.097000
      6 C36        -3.9550    0.5540    2.7290 ca        1 414     -0.125300
      7 C33        -5.1040    0.1280    1.8880 c3        1 414      0.204700
      8 O32        -5.1210   -1.3320    1.9480 os        1 414     -0.417900
      9 C30        -6.0950   -1.9300    1.2160 c         1 414      0.607100
     10 O31        -6.8350   -1.3140    0.4580 o         1 414     -0.443000
     11 N29        -6.0950   -3.3880    1.4580 n4        1 414     -0.596800
     12 C25        -7.1290   -4.1390    0.7190 c3        1 414     -0.094700
     13 C50        -6.6360   -5.1060   -0.3470 c3        1 414     -0.089700
     14 C51        -5.2230   -5.6490   -0.1670 c3        1 414     -0.077900
     15 C52        -4.9390   -6.7080   -1.2170 c3        1 414     -0.076900
     16 C53        -5.0800   -6.1380   -2.6130 c3        1 414     -0.079400
     17 C54        -6.4420   -5.5070   -2.8120 c3        1 414     -0.076900
     18 C55        -6.7510   -4.4850   -1.7370 c3        1 414     -0.077900
     19 P24        -8.1480   -5.0230    1.8940 p5        1 414      1.311600
     20 O34        -7.3850   -4.8930    3.1680 o         1 414     -0.793000
     21 O35        -8.7000   -6.2430    1.3110 o         1 414     -0.793000
     22 O23        -9.3130   -3.8590    2.0160 os        1 414     -0.570200
     23 C1         -9.9340   -3.7080    3.2590 c3        1 414      0.217400
     24 C2        -11.4380   -3.8160    3.0480 c         1 414      0.631100
     25 O14       -11.9980   -4.8100    3.7930 oh        1 414     -0.607100
     26 O13       -12.1990   -3.1650    2.3300 o         1 414     -0.540000
     27 C3         -9.5710   -2.3800    3.8820 ca        1 414     -0.085300
     28 C8         -8.5090   -2.3600    4.7890 ca        1 414     -0.160000
     29 C4        -10.2430   -1.2010    3.5560 ca        1 414     -0.124000
     30 C5         -9.8630   -0.0030    4.1600 ca        1 414     -0.115000
     31 C6         -8.8110    0.0350    5.0700 ca        1 414     -0.174000
     32 C7         -8.1080   -1.1470    5.3890 ca        1 414      0.089600
     33 N9         -6.9520   -1.1100    6.2060 nh        1 414     -0.719600
     34 C10        -6.9620   -0.1640    7.3230 c2        1 414      0.742100
     35 N12        -5.9610    0.6360    7.5710 n2        1 414     -0.834100
     36 N11        -8.0890   -0.2010    8.1900 nh        1 414     -0.905800
     37 H37        -2.6790    1.0000    1.0290 ha        1 414      0.143500
     38 H38        -0.7830    1.7890    2.4410 ha        1 414      0.141000
     39 H39        -0.9870    1.7810    4.9280 ha        1 414      0.140000
     40 H40        -3.0910    0.9800    6.0060 ha        1 414      0.141000
     41 H41        -4.9940    0.1860    4.5980 ha        1 414      0.143500
     42 H331       -4.9910    0.4270    0.8130 h1        1 414      0.075700
     43 H332       -6.0860    0.4940    2.2900 h1        1 414      0.075700
     44 HN29       -6.2630   -3.5640    2.5010 hn        1 414      0.489800
     45 H25        -7.8200   -3.3930    0.2180 hx        1 414      0.149700
     46 H50        -7.3490   -5.9940   -0.3130 hc        1 414      0.138700
     47 H511       -4.4650   -4.8290   -0.2900 hc        1 414      0.037200
     48 H512       -5.0880   -6.1010    0.8500 hc        1 414      0.037200
     49 H521       -3.9000   -7.1030   -1.0730 hc        1 414      0.051450
     50 H522       -5.6500   -7.5650   -1.0840 hc        1 414      0.051450
     51 H531       -4.9300   -6.9540   -3.3680 hc        1 414      0.041200
     52 H532       -4.2810   -5.3690   -2.7870 hc        1 414      0.041200
     53 H541       -7.2290   -6.3070   -2.7980 hc        1 414      0.051450
     54 H542       -6.4830   -5.0110   -3.8170 hc        1 414      0.051450
     55 H551       -6.0460   -3.6180   -1.8210 hc        1 414      0.037200
     56 H552       -7.7900   -4.0940   -1.8910 hc        1 414      0.037200
     57 H1         -9.6110   -4.5450    3.9540 h1        1 414      0.089700
     58 H8         -7.9750   -3.3040    5.0080 ha        1 414      0.172000
     59 H4        -11.0680   -1.2190    2.8230 ha        1 414      0.170000
     60 H5        -10.3980    0.9260    3.9120 ha        1 414      0.137000
     61 H6         -8.5230    0.9940    5.5270 ha        1 414      0.135000
     62 HN9        -6.6720   -2.0240    6.5140 hn        1 414      0.410800
     63 HN12       -5.1660    0.5330    6.9760 hn        1 414      0.401400
     64 H111      -12.9480   -4.8700    3.6020 ho        1 414      0.443000
     65 H112       -8.1170    0.5340    8.8630 hn        1 414      0.406300
     66 H292       -5.1500   -3.7270    1.2360 hn        1 414      0.489800
     67 H113       -8.9590   -0.3380    7.7210 hn        1 414      0.406300
@<TRIPOS>BOND
     1    1    2 ar  
     2    1    6 ar  
     3    1   37 1   
     4    2    3 ar  
     5    2   38 1   
     6    3    4 ar  
     7    3   39 1   
     8    4    5 ar  
     9    4   40 1   
    10    5    6 ar  
    11    5   41 1   
    12    6    7 1   
    13    7    8 1   
    14    7   42 1   
    15    7   43 1   
    16    8    9 1   
    17    9   10 2   
    18    9   11 1   
    19   11   12 1   
    20   11   44 1   
    21   11   66 1   
    22   12   13 1   
    23   12   19 1   
    24   12   45 1   
    25   13   14 1   
    26   13   18 1   
    27   13   46 1   
    28   14   15 1   
    29   14   47 1   
    30   14   48 1   
    31   15   16 1   
    32   15   49 1   
    33   15   50 1   
    34   16   17 1   
    35   16   51 1   
    36   16   52 1   
    37   17   18 1   
    38   17   53 1   
    39   17   54 1   
    40   18   55 1   
    41   18   56 1   
    42   19   20 1   
    43   19   21 1   
    44   19   22 1   
    45   22   23 1   
    46   23   24 1   
    47   23   27 1   
    48   23   57 1   
    49   24   25 1   
    50   24   26 2   
    51   25   64 1   
    52   27   28 ar  
    53   27   29 ar  
    54   28   32 ar  
    55   28   58 1   
    56   29   30 ar  
    57   29   59 1   
    58   30   31 ar  
    59   30   60 1   
    60   31   32 ar  
    61   31   61 1   
    62   32   33 1   
    63   33   34 1   
    64   33   62 1   
    65   34   35 2   
    66   34   36 1   
    67   35   63 1   
    68   36   65 1   
    69   36   67 1   
@<TRIPOS>SUBSTRUCTURE
     1 414         1 TEMP              0 ****  ****    0 ROOT
