@<TRIPOS>MOLECULE
414
   65    67     1     0     0
SMALL
bcc


@<TRIPOS>ATOM
      1 C37         0.1290    0.0140   -0.0380 ca        1 414     -0.118000
      2 C38         1.1080    0.4350    0.8590 ca        1 414     -0.135500
      3 C39         0.9970    0.1200    2.2140 ca        1 414     -0.148000
      4 C40        -0.0980   -0.6150    2.6680 ca        1 414     -0.135500
      5 C41        -1.0810   -1.0370    1.7730 ca        1 414     -0.118000
      6 C36        -0.9730   -0.7240    0.4140 ca        1 414     -0.095300
      7 C33        -2.0140   -1.1390   -0.5770 c3        1 414      0.187700
      8 O32        -2.8180   -2.2050   -0.0920 os        1 414     -0.466900
      9 C30        -4.0660   -1.8650    0.4580 c         1 414      0.715100
     10 O31        -4.5340   -0.7620    0.1190 o         1 414     -0.616000
     11 N29        -4.5090   -2.8040    1.3530 n         1 414     -0.438900
     12 C25        -5.8900   -2.8940    1.7380 c3        1 414     -0.112500
     13 C50        -6.8780   -3.3870    0.6850 c3        1 414     -0.068700
     14 C51        -6.2640   -4.2680   -0.4000 c3        1 414     -0.080400
     15 C52        -7.3300   -4.7540   -1.3620 c3        1 414     -0.072900
     16 C53        -8.0590   -3.5930   -2.0080 c3        1 414     -0.071400
     17 C54        -8.6430   -2.6710   -0.9570 c3        1 414     -0.072900
     18 C55        -7.5880   -2.2070    0.0260 c3        1 414     -0.080400
     19 P24        -5.8950   -3.9990    3.1470 p5        1 414      1.324600
     20 O34        -5.3880   -3.2430    4.3110 o         1 414     -0.844000
     21 O35        -5.2260   -5.2190    2.6340 o         1 414     -0.844000
     22 O23        -7.5120   -4.2150    3.3430 os        1 414     -0.572200
     23 C1         -8.0670   -3.9820    4.6050 c3        1 414      0.100400
     24 C2         -8.8510   -5.2210    5.1630 c         1 414      0.915600
     25 O14        -9.4180   -5.0560    6.2940 o         1 414     -0.845300
     26 O13        -8.8900   -6.3010    4.5300 o         1 414     -0.845300
     27 C3         -9.0350   -2.8310    4.5720 ca        1 414     -0.020300
     28 C8         -9.5320   -2.3890    5.8050 ca        1 414     -0.138000
     29 C4         -9.5430   -2.2740    3.3950 ca        1 414     -0.121000
     30 C5        -10.5550   -1.3170    3.4560 ca        1 414     -0.154000
     31 C6        -11.1150   -0.9400    4.6750 ca        1 414     -0.143000
     32 C7        -10.6200   -1.5000    5.8670 ca        1 414      0.026600
     33 N9        -11.2440   -1.1800    7.1200 nh        1 414     -0.698600
     34 C10       -12.1950   -2.2300    7.5430 c2        1 414      0.749100
     35 N12       -13.4570   -1.9510    7.7760 n2        1 414     -0.898100
     36 N11       -11.6890   -3.5250    7.7860 nh        1 414     -0.922800
     37 H37         0.2180    0.2630   -1.1050 ha        1 414      0.146000
     38 H38         1.9690    1.0150    0.4990 ha        1 414      0.123500
     39 H39         1.7690    0.4530    2.9210 ha        1 414      0.114000
     40 H40        -0.1940   -0.8650    3.7350 ha        1 414      0.123500
     41 H41        -1.9480   -1.6200    2.1310 ha        1 414      0.146000
     42 H331       -2.6430   -0.2510   -0.8620 h1        1 414      0.063200
     43 H332       -1.5230   -1.5660   -1.4960 h1        1 414      0.063200
     44 HN29       -4.0480   -3.7000    1.3290 hn        1 414      0.337500
     45 H25        -6.2170   -1.8760    2.0870 h1        1 414      0.086700
     46 H50        -7.6540   -4.0060    1.2260 hc        1 414      0.099700
     47 H511       -5.4940   -3.6880   -0.9750 hc        1 414      0.047200
     48 H512       -5.7560   -5.1520    0.0690 hc        1 414      0.047200
     49 H521       -6.8580   -5.3880   -2.1560 hc        1 414      0.029450
     50 H522       -8.0650   -5.3960   -0.8080 hc        1 414      0.029450
     51 H531       -8.8760   -3.9780   -2.6710 hc        1 414      0.015700
     52 H532       -7.3450   -3.0170   -2.6540 hc        1 414      0.015700
     53 H541       -9.1100   -1.7820   -1.4570 hc        1 414      0.029450
     54 H542       -9.4540   -3.2110   -0.4000 hc        1 414      0.029450
     55 H551       -8.0760   -1.5770    0.8150 hc        1 414      0.047200
     56 H552       -6.8280   -1.5650   -0.4930 hc        1 414      0.047200
     57 H1         -7.2430   -3.7490    5.3450 h1        1 414      0.079700
     58 H8         -9.0930   -2.8260    6.7200 ha        1 414      0.164000
     59 H4         -9.1490   -2.6190    2.4260 ha        1 414      0.147000
     60 H5        -10.9370   -0.8700    2.5270 ha        1 414      0.102000
     61 H6        -11.9470   -0.2230    4.7000 ha        1 414      0.110000
     62 HN9       -10.5360   -1.0840    7.8290 hn        1 414      0.368800
     63 HN12      -13.6940   -0.9900    7.6590 hn        1 414      0.377400
     64 H111      -10.8860   -3.8090    7.2440 hn        1 414      0.433800
     65 H112      -12.3810   -4.2390    7.8420 hn        1 414      0.433800
@<TRIPOS>BOND
     1    1    2 ar  
     2    1    6 ar  
     3    1   37 1   
     4    2    3 ar  
     5    2   38 1   
     6    3    4 ar  
     7    3   39 1   
     8    4    5 ar  
     9    4   40 1   
    10    5    6 ar  
    11    5   41 1   
    12    6    7 1   
    13    7    8 1   
    14    7   42 1   
    15    7   43 1   
    16    8    9 1   
    17    9   10 2   
    18    9   11 1   
    19   11   12 1   
    20   11   44 1   
    21   12   13 1   
    22   12   19 1   
    23   12   45 1   
    24   13   14 1   
    25   13   18 1   
    26   13   46 1   
    27   14   15 1   
    28   14   47 1   
    29   14   48 1   
    30   15   16 1   
    31   15   49 1   
    32   15   50 1   
    33   16   17 1   
    34   16   51 1   
    35   16   52 1   
    36   17   18 1   
    37   17   53 1   
    38   17   54 1   
    39   18   55 1   
    40   18   56 1   
    41   19   20 1   
    42   19   21 1   
    43   19   22 1   
    44   22   23 1   
    45   23   24 1   
    46   23   27 1   
    47   23   57 1   
    48   24   25 1   
    49   24   26 1   
    50   27   28 ar  
    51   27   29 ar  
    52   28   32 ar  
    53   28   58 1   
    54   29   30 ar  
    55   29   59 1   
    56   30   31 ar  
    57   30   60 1   
    58   31   32 ar  
    59   31   61 1   
    60   32   33 1   
    61   33   34 1   
    62   33   62 1   
    63   34   35 2   
    64   34   36 1   
    65   35   63 1   
    66   36   64 1   
    67   36   65 1   
@<TRIPOS>SUBSTRUCTURE
     1 414         1 TEMP              0 ****  ****    0 ROOT
