@<TRIPOS>MOLECULE
414
   65    61     1     0     0
SMALL
bcc


@<TRIPOS>ATOM
      1 C37         5.5410    1.2510    0.0150 c1        1 414     -0.090000
      2 C38         6.9220    1.3730    0.0480 c1        1 414     -0.150333
      3 C39         7.5870    2.0050   -0.9910 c1        1 414     -0.150333
      4 C40         6.8720    2.5140   -2.0630 c1        1 414     -0.150333
      5 C41         5.4920    2.3920   -2.0970 c1        1 414     -0.150333
      6 C36         4.8260    1.7600   -1.0580 c1        1 414     -0.091000
      7 C33         3.3130    1.7190   -1.0440 c3        1 414      0.031000
      8 O32         2.8760    0.4140   -1.3440 os        1 414     -0.302000
      9 C30         1.4800    0.2570   -1.3000 c2        1 414      0.377000
     10 O31         0.7660    1.2220   -1.1130 o         1 414     -0.438000
     11 N29         0.9070   -1.0320   -1.4390 n         1 414     -0.260000
     12 C25        -0.5590   -1.1780   -1.5840 c3        1 414     -0.601000
     13 C50        -0.8330   -2.1360   -2.5390 c3        1 414     -0.116000
     14 C51         0.4840   -2.8040   -3.0990 c3        1 414     -0.157000
     15 C52         0.2150   -3.8440   -4.1730 c3        1 414     -0.144500
     16 C53        -1.0090   -3.6930   -4.7100 c3        1 414     -0.152000
     17 C54        -1.5970   -2.5100   -4.9870 c3        1 414     -0.144500
     18 C55        -1.3130   -1.4860   -3.9170 c3        1 414     -0.157000
     19 P24        -1.2940   -1.7010    0.0480 p5        1 414      1.969000
     20 O34        -0.1870   -1.9330    1.0480 o         1 414     -0.841000
     21 O35        -2.0780   -2.9790   -0.1390 o         1 414     -0.841000
     22 O23        -2.2570   -0.5660    0.5810 os        1 414     -0.726000
     23 C1         -2.6620   -0.6070    1.9280 c3        1 414      0.028000
     24 C2         -3.9840   -1.3300    2.0360 c2        1 414      0.338000
     25 O14        -4.0250   -2.5010    2.4930 o         1 414     -0.580000
     26 O13        -5.0490   -0.7470    1.7020 o         1 414     -0.580000
     27 C3         -2.8140    0.8040    2.4520 c2        1 414     -0.007000
     28 C8         -2.4930    1.0930    3.7700 c2        1 414     -0.132000
     29 C4         -3.2530    1.8120    1.6090 c1        1 414     -0.125000
     30 C5         -3.3710    3.1090    2.0830 c1        1 414     -0.150333
     31 C6         -3.0500    3.3980    3.3990 c1        1 414     -0.150333
     32 C7         -2.6110    2.3900    4.2430 c1        1 414     -0.013000
     33 N9         -2.1950    2.7030    5.5640 n3        1 414     -0.281000
     34 C10        -2.5490    1.8490    6.6410 c2        1 414      0.177000
     35 N12        -2.2020    2.1600    7.8620 n1        1 414     -0.393000
     36 N11        -3.2800    0.6600    6.3920 n3        1 414     -0.329000
     37 H37         5.0710    0.8230    0.7560 ha        1 414      0.174000
     38 H38         7.4250    1.0150    0.8040 ha        1 414      0.115333
     39 H39         8.5590    2.0910   -0.9670 ha        1 414      0.115333
     40 H40         7.3400    2.9610   -2.7930 ha        1 414      0.115333
     41 H41         4.9880    2.7510   -2.8520 ha        1 414      0.115333
     42 H331        2.9640    2.3420   -1.7140 h1        1 414      0.099500
     43 H332        2.9880    1.9770   -0.1570 h1        1 414      0.099500
     44 HN29        1.4360   -1.7720   -1.3980 hn        1 414      0.263000
     45 H25        -0.9470   -0.3240   -1.8580 h1        1 414      0.121000
     46 H50        -1.4670   -2.8060   -2.2160 hc        1 414      0.149000
     47 H511        1.0540   -2.1040   -3.4760 hc        1 414      0.085250
     48 H512        0.9580   -3.2320   -2.3590 hc        1 414      0.085250
     49 H521        0.8870   -3.7560   -4.8800 hc        1 414      0.058500
     50 H522        0.2820   -4.7380   -3.7770 hc        1 414      0.058500
     51 H531       -0.9950   -4.1920   -5.5560 hc        1 414      0.065500
     52 H532       -1.6260   -4.1670   -4.1120 hc        1 414      0.065500
     53 H541       -2.5650   -2.6420   -5.0550 hc        1 414      0.058500
     54 H542       -1.2590   -2.1780   -5.8450 hc        1 414      0.058500
     55 H551       -2.1280   -0.9690   -3.7530 hc        1 414      0.085250
     56 H552       -0.6150   -0.8800   -4.2380 hc        1 414      0.085250
     57 H1         -1.9890   -1.0800    2.4560 h1        1 414      0.113000
     58 H8         -2.2220    0.3760    4.3740 ha        1 414      0.168000
     59 H4         -3.4790    1.6090    0.6810 ha        1 414      0.153000
     60 H5         -3.6800    3.8190    1.4890 ha        1 414      0.115333
     61 H6         -3.1340    4.3120    3.7330 ha        1 414      0.115333
     62 HN9        -1.6940    3.4490    5.7190 hn        1 414      0.171000
     63 HN12       -1.7310    2.9260    8.0220 DU        1 414      0.120000
     64 H111       -2.8510   -0.1470    6.3870 hn        1 414      0.229500
     65 H112       -4.1850    0.6970    6.2650 hn        1 414      0.229500
@<TRIPOS>BOND
     1    1    6 1   
     2    1   37 1   
     3    2    3 1   
     4    2   38 1   
     5    3   39 1   
     6    4    5 1   
     7    4   40 1   
     8    5   41 1   
     9    6    7 1   
    10    7    8 1   
    11    7   42 1   
    12    7   43 1   
    13    8    9 1   
    14    9   10 1   
    15    9   11 1   
    16   11   12 1   
    17   11   44 1   
    18   12   13 1   
    19   12   19 1   
    20   12   45 1   
    21   13   14 1   
    22   13   18 1   
    23   13   46 1   
    24   14   15 1   
    25   14   47 1   
    26   14   48 1   
    27   15   16 1   
    28   15   49 1   
    29   15   50 1   
    30   16   17 1   
    31   16   51 1   
    32   16   52 1   
    33   17   18 1   
    34   17   53 1   
    35   17   54 1   
    36   18   55 1   
    37   18   56 1   
    38   19   20 1   
    39   19   21 1   
    40   19   22 1   
    41   22   23 1   
    42   23   24 1   
    43   23   27 1   
    44   23   57 1   
    45   24   25 1   
    46   24   26 1   
    47   27   28 1   
    48   27   29 1   
    49   28   32 1   
    50   28   58 1   
    51   29   59 1   
    52   30   31 1   
    53   30   60 1   
    54   31   61 1   
    55   32   33 1   
    56   33   34 1   
    57   33   62 1   
    58   34   35 1   
    59   34   36 1   
    60   36   64 1   
    61   36   65 1   
@<TRIPOS>SUBSTRUCTURE
     1 414         1 TEMP              0 ****  ****    0 ROOT
