@<TRIPOS>MOLECULE
415
   49    50     1     0     0
SMALL
bcc


@<TRIPOS>ATOM
      1 CAA         1.7950    1.4450   -0.9510 c3        1 415      0.102700
      2 OAS         2.9900    1.1320   -0.2260 os        1 415     -0.313900
      3 CAX         2.8560    0.3290    0.8740 ca        1 415      0.169100
      4 CAK         4.0330    0.1660    1.6310 ca        1 415     -0.158000
      5 CAJ         1.6670   -0.3160    1.2550 ca        1 415     -0.141000
      6 CAU         1.6640   -1.1280    2.3930 ca        1 415      0.059400
      7 CLC         0.2440   -1.9070    2.8640 cl        1 415     -0.002400
      8 CAI         2.8290   -1.3040    3.1520 ca        1 415     -0.140000
      9 CAV         4.0030   -0.6470    2.7670 ca        1 415     -0.173300
     10 CAO         5.2210   -0.7660    3.6050 c3        1 415      0.194100
     11 NAP         6.1370   -1.8350    3.0170 n4        1 415     -0.777000
     12 CAM         7.3950   -1.9710    3.7920 c3        1 415      0.102800
     13 CAL         8.3520   -3.0390    3.2440 c3        1 415     -0.135400
     14 CAN         9.5850   -3.0670    4.1470 c3        1 415      0.113800
     15 NAQ        10.5950   -4.1120    3.7310 n4        1 415     -0.640800
     16 CAT        11.7180   -4.2020    4.7260 c         1 415      0.477100
     17 OAB        11.6030   -3.7030    5.8320 o         1 415     -0.282100
     18 NAR        12.9690   -4.9240    4.3240 n4        1 415     -0.480200
     19 CAW        12.9050   -5.6190    3.0410 ca        1 415     -0.178400
     20 CAG        13.2710   -4.9300    1.8620 ca        1 415     -0.104500
     21 CAE        13.3730   -5.6400    0.6720 ca        1 415     -0.088500
     22 CAD        13.1270   -7.0200    0.6410 ca        1 415     -0.010000
     23 CAF        12.7580   -7.6930    1.8110 ca        1 415     -0.088500
     24 CAH        12.6480   -7.0070    3.0180 ca        1 415     -0.104500
     25 H1          2.1630    2.1530   -1.7390 h1        1 415      0.072033
     26 H2          1.0510    1.9440   -0.2840 h1        1 415      0.072033
     27 H3          1.3710    0.5210   -1.4130 h1        1 415      0.072033
     28 H4          4.9370    0.7150    1.3310 ha        1 415      0.152000
     29 H5          0.7400   -0.1770    0.6720 ha        1 415      0.192000
     30 H6          2.8010   -1.9250    4.0600 ha        1 415      0.153000
     31 H7          4.9720   -1.0770    4.6600 hx        1 415      0.114700
     32 H8          5.8030    0.2000    3.6210 hx        1 415      0.114700
     33 H9          5.6220   -2.7250    3.0040 hn        1 415      0.459300
     34 H11         7.9080   -0.9630    3.7910 hx        1 415      0.122700
     35 H12         7.1140   -2.2210    4.8580 hx        1 415      0.122700
     36 H13         8.6420   -2.7890    2.1870 hc        1 415      0.096700
     37 H14         7.8430   -4.0420    3.2390 hc        1 415      0.096700
     38 H15        10.1100   -2.0660    4.1290 hx        1 415      0.141700
     39 H16         9.2790   -3.2940    5.2140 hx        1 415      0.141700
     40 H17        10.1340   -5.0370    3.6750 hn        1 415      0.496300
     41 H18        13.1870   -5.6090    5.0820 hn        1 415      0.525800
     42 H19        13.5330   -3.8570    1.8720 ha        1 415      0.170500
     43 H20        13.6820   -5.1160   -0.2540 ha        1 415      0.209500
     44 H21        13.2430   -7.5820   -0.3080 ha        1 415      0.214000
     45 H22        12.5780   -8.7860    1.7880 ha        1 415      0.209500
     46 H23        12.4010   -7.5730    3.9350 ha        1 415      0.170500
     47 HAP2        6.3370   -1.5770    2.0410 hn        1 415      0.459300
     48 HAQ2       10.9730   -3.8910    2.7930 hn        1 415      0.496300
     49 HAR2       13.7410   -4.2230    4.3000 hn        1 415      0.525800
@<TRIPOS>BOND
     1    1    2 1   
     2    1   25 1   
     3    1   26 1   
     4    1   27 1   
     5    2    3 1   
     6    3    4 ar  
     7    3    5 ar  
     8    4    9 ar  
     9    4   28 1   
    10    5    6 ar  
    11    5   29 1   
    12    6    7 1   
    13    6    8 ar  
    14    8    9 ar  
    15    8   30 1   
    16    9   10 1   
    17   10   11 1   
    18   10   31 1   
    19   10   32 1   
    20   11   12 1   
    21   11   33 1   
    22   11   47 1   
    23   12   13 1   
    24   12   34 1   
    25   12   35 1   
    26   13   14 1   
    27   13   36 1   
    28   13   37 1   
    29   14   15 1   
    30   14   38 1   
    31   14   39 1   
    32   15   16 1   
    33   15   40 1   
    34   15   48 1   
    35   16   17 2   
    36   16   18 1   
    37   18   19 1   
    38   18   41 1   
    39   18   49 1   
    40   19   20 ar  
    41   19   24 ar  
    42   20   21 ar  
    43   20   42 1   
    44   21   22 ar  
    45   21   43 1   
    46   22   23 ar  
    47   22   44 1   
    48   23   24 ar  
    49   23   45 1   
    50   24   46 1   
@<TRIPOS>SUBSTRUCTURE
     1 415         1 TEMP              0 ****  ****    0 ROOT
