@<TRIPOS>MOLECULE
415
   48    49     1     0     0
SMALL
bcc


@<TRIPOS>ATOM
      1 CAA         0.0910    0.3360   -0.1850 c3        1 415      0.103700
      2 OAS         1.4800    0.0410   -0.0120 os        1 415     -0.314900
      3 CAX         1.9800    0.1400    1.2600 ca        1 415      0.165100
      4 CAK         3.3720   -0.0510    1.3610 ca        1 415     -0.157000
      5 CAJ         1.2090    0.3960    2.4040 ca        1 415     -0.152000
      6 CAU         1.8390    0.4570    3.6510 ca        1 415      0.059400
      7 CLC         0.9250    0.7670    5.0370 cl        1 415     -0.016400
      8 CAI         3.2210    0.2640    3.7680 ca        1 415     -0.140000
      9 CAV         3.9760    0.0160    2.6170 ca        1 415     -0.161300
     10 CAO         5.4520   -0.1350    2.7220 c3        1 415      0.184100
     11 NAP         5.8190   -1.6050    2.7230 n4        1 415     -0.771000
     12 CAM         7.2910   -1.8080    2.7840 c3        1 415      0.102800
     13 CAL         7.7000   -3.2810    2.7890 c3        1 415     -0.134400
     14 CAN         9.2250   -3.3420    2.8560 c3        1 415      0.111800
     15 NAQ         9.7640   -4.7280    2.8640 n4        1 415     -0.690800
     16 CAT        11.3480   -4.7060    2.9290 c         1 415      0.645100
     17 OAB        11.8060   -3.5650    2.8970 o         1 415     -0.472100
     18 NAR        11.9450   -5.9140    3.1130 n         1 415     -0.378100
     19 CAW        13.3620   -6.0690    2.9790 ca        1 415     -0.034400
     20 CAG        14.2550   -5.0920    3.4540 ca        1 415     -0.118000
     21 CAE        15.6270   -5.3240    3.3660 ca        1 415     -0.098500
     22 CAD        16.1140   -6.5060    2.8110 ca        1 415     -0.083000
     23 CAF        15.2240   -7.4700    2.3330 ca        1 415     -0.098500
     24 CAH        13.8500   -7.2630    2.4040 ca        1 415     -0.118000
     25 H1         -0.1350    1.3750    0.1540 h1        1 415      0.067700
     26 H2         -0.5350   -0.4110    0.3600 h1        1 415      0.067700
     27 H3         -0.0470    0.2400   -1.2940 h1        1 415      0.067700
     28 H4          3.9540   -0.2150    0.4420 ha        1 415      0.153000
     29 H5          0.1200    0.5560    2.3260 ha        1 415      0.185000
     30 H6          3.7030    0.3370    4.7550 ha        1 415      0.155000
     31 H7          5.8460    0.3160    3.6780 hx        1 415      0.114200
     32 H8          5.9720    0.3430    1.8430 hx        1 415      0.114200
     33 H9          5.4360   -2.0340    1.8710 hn        1 415      0.456300
     34 H11         7.7490   -1.2860    1.8920 hx        1 415      0.119700
     35 H12         7.6700   -1.3010    3.7200 hx        1 415      0.119700
     36 H13         7.3290   -3.7900    1.8590 hc        1 415      0.084700
     37 H14         7.2480   -3.8060    3.6740 hc        1 415      0.084700
     38 H15         9.6780   -2.8030    1.9700 hx        1 415      0.130700
     39 H16         9.5970   -2.8260    3.7920 hx        1 415      0.130700
     40 H17         9.3930   -5.2370    3.6700 hn        1 415      0.450800
     41 H18        11.4180   -6.7620    3.0590 hn        1 415      0.348500
     42 H19        13.8910   -4.1480    3.8890 ha        1 415      0.150000
     43 H20        16.3280   -4.5600    3.7430 ha        1 415      0.168500
     44 H21        17.2010   -6.6810    2.7470 ha        1 415      0.171000
     45 H22        15.6080   -8.4060    1.8930 ha        1 415      0.168500
     46 H23        13.1670   -8.0380    2.0230 ha        1 415      0.150000
     47 HAP2        5.3660   -2.0550    3.5270 hn        1 415      0.456300
     48 HAQ2        9.4800   -5.2140    2.0100 hn        1 415      0.450800
@<TRIPOS>BOND
     1    1    2 1   
     2    1   25 1   
     3    1   26 1   
     4    1   27 1   
     5    2    3 1   
     6    3    4 ar  
     7    3    5 ar  
     8    4    9 ar  
     9    4   28 1   
    10    5    6 ar  
    11    5   29 1   
    12    6    7 1   
    13    6    8 ar  
    14    8    9 ar  
    15    8   30 1   
    16    9   10 1   
    17   10   11 1   
    18   10   31 1   
    19   10   32 1   
    20   11   12 1   
    21   11   33 1   
    22   11   47 1   
    23   12   13 1   
    24   12   34 1   
    25   12   35 1   
    26   13   14 1   
    27   13   36 1   
    28   13   37 1   
    29   14   15 1   
    30   14   38 1   
    31   14   39 1   
    32   15   16 1   
    33   15   40 1   
    34   15   48 1   
    35   16   17 2   
    36   16   18 1   
    37   18   19 1   
    38   18   41 1   
    39   19   20 ar  
    40   19   24 ar  
    41   20   21 ar  
    42   20   42 1   
    43   21   22 ar  
    44   21   43 1   
    45   22   23 ar  
    46   22   44 1   
    47   23   24 ar  
    48   23   45 1   
    49   24   46 1   
@<TRIPOS>SUBSTRUCTURE
     1 415         1 TEMP              0 ****  ****    0 ROOT
