@<TRIPOS>MOLECULE
415
   46    39     1     0     0
SMALL
bcc


@<TRIPOS>ATOM
      1 CAA         3.8470   -2.7420    6.3150 c3        1 415     -0.078000
      2 OAS         3.0110   -1.7220    5.8790 os        1 415     -0.209000
      3 CAX         1.7550   -2.1630    5.4330 c1        1 415      0.087000
      4 CAK         1.3340   -1.8510    4.1490 c1        1 415     -0.153000
      5 CAJ         0.8720   -2.7690    6.3310 c1        1 415     -0.200000
      6 CAU        -0.4370   -3.0610    5.9330 c1        1 415     -0.030000
      7 CLC        -1.5740   -3.8510    7.0800 cl        1 415     -0.014000
      8 CAI        -0.8570   -2.7470    4.6460 c1        1 415     -0.139000
      9 CAV         0.0280   -2.1410    3.7500 c1        1 415     -0.049000
     10 CAO        -0.4130   -1.8590    2.2980 c3        1 415     -0.035000
     11 NAP        -0.8360   -0.4880    2.1720 n3        1 415     -0.304000
     12 CAM        -1.7410   -0.3660    1.0100 c3        1 415     -0.071000
     13 CAL        -1.3550    0.8260    0.1990 c3        1 415     -0.201000
     14 CAN        -2.0220    0.7560   -1.1540 c3        1 415     -0.041000
     15 NAQ        -1.0400    0.5880   -2.1570 n3        1 415     -0.346000
     16 CAT        -0.9960    1.5290   -3.3240 c1        1 415      0.371000
     17 OAB        -1.6160    2.6090   -3.2730 o         1 415     -0.377000
     18 NAR        -0.1520    1.2340   -4.4610 n2        1 415     -0.312000
     19 CAW        -0.0260    2.2070   -5.5490 c1        1 415      0.067000
     20 CAG        -1.0260    2.2910   -6.5330 c1        1 415     -0.137250
     21 CAE        -0.8990    3.2090   -7.5800 c1        1 415     -0.137250
     22 CAD         0.2270    4.0460   -7.6480 c1        1 415     -0.137250
     23 CAF         1.2320    3.9610   -6.6580 c1        1 415     -0.137250
     24 CAH         1.1070    3.0500   -5.6180 c1        1 415     -0.136000
     25 H1          3.6490   -2.9460    7.2590 h1        1 415      0.086000
     26 H2          4.8110   -2.4480    6.2290 h1        1 415      0.086000
     27 H3          3.6930   -3.5780    5.7460 h1        1 415      0.086000
     28 H4          1.9710   -1.4170    3.5070 ha        1 415      0.152000
     29 H5          1.1420   -2.9130    7.2610 ha        1 415      0.152000
     30 H6         -1.7880   -2.9540    4.3600 ha        1 415      0.164000
     31 H7         -1.1700   -2.4620    2.0580 h1        1 415      0.080000
     32 H8          0.3770   -2.0320    1.6630 h1        1 415      0.080000
     33 H9         -0.0820    0.0590    2.0410 hn        1 415      0.162000
     34 H11        -1.6740   -1.1720    0.4570 h1        1 415      0.063000
     35 H12        -2.6860   -0.2640    1.3340 h1        1 415      0.063000
     36 H13        -1.6460    1.6580    0.6700 hc        1 415      0.103500
     37 H14        -0.3880    0.8400    0.0820 hc        1 415      0.103500
     38 H15        -2.6740   -0.0380   -1.1750 h1        1 415      0.112500
     39 H16        -2.5170    1.5920   -1.3170 h1        1 415      0.112500
     40 H17        -0.4550   -0.1260   -2.1170 hn        1 415      0.200000
     41 H18         0.2070    0.4230   -4.5480 hn        1 415      0.218000
     42 H19        -1.8180    1.7040   -6.4860 ha        1 415      0.131500
     43 H20        -1.5970    3.2690   -8.2680 ha        1 415      0.131500
     44 H21         0.3160    4.7000   -8.3960 ha        1 415      0.131500
     45 H22         2.0560    4.5720   -6.7080 ha        1 415      0.131500
     46 H23         1.8460    2.9870   -4.8910 ha        1 415      0.169000
@<TRIPOS>BOND
     1    1    2 1   
     2    1   25 1   
     3    1   26 1   
     4    1   27 1   
     5    2    3 1   
     6    3    5 1   
     7    4    9 1   
     8    4   28 1   
     9    5   29 1   
    10    6    8 1   
    11    8   30 1   
    12    9   10 1   
    13   10   11 1   
    14   10   31 1   
    15   10   32 1   
    16   11   12 1   
    17   11   33 1   
    18   12   13 1   
    19   12   34 1   
    20   12   35 1   
    21   13   14 1   
    22   13   36 1   
    23   13   37 1   
    24   14   15 1   
    25   14   38 1   
    26   14   39 1   
    27   15   16 1   
    28   15   40 1   
    29   16   17 1   
    30   18   19 1   
    31   18   41 1   
    32   19   24 1   
    33   20   21 1   
    34   20   42 1   
    35   21   43 1   
    36   22   23 1   
    37   22   44 1   
    38   23   45 1   
    39   24   46 1   
@<TRIPOS>SUBSTRUCTURE
     1 415         1 TEMP              0 ****  ****    0 ROOT
