@<TRIPOS>MOLECULE
415
   48    49     1     0     0
SMALL
bcc


@<TRIPOS>ATOM
      1 CAA         0.1080    0.3580   -0.1950 c3        1 415      0.103700
      2 OAS         1.4960    0.0610   -0.0160 os        1 415     -0.314900
      3 CAX         1.9880    0.1510    1.2590 ca        1 415      0.165100
      4 CAK         3.3800   -0.0410    1.3670 ca        1 415     -0.157000
      5 CAJ         1.2110    0.4000    2.4010 ca        1 415     -0.152000
      6 CAU         1.8330    0.4520    3.6520 ca        1 415      0.059400
      7 ClC         0.9110    0.7530    5.0340 cl        1 415     -0.016400
      8 CAI         3.2150    0.2580    3.7750 ca        1 415     -0.140000
      9 CAV         3.9760    0.0180    2.6280 ca        1 415     -0.161300
     10 CAO         5.4520   -0.1360    2.7400 c3        1 415      0.184100
     11 NAP         5.8190   -1.6050    2.7290 ny        1 415     -0.771000
     12 CAM         7.2900   -1.8090    2.7940 c3        1 415      0.102800
     13 CAL         7.6990   -3.2830    2.7880 c3        1 415     -0.134400
     14 CAN         9.2230   -3.3450    2.8600 c3        1 415      0.111800
     15 NAQ         9.7620   -4.7310    2.8580 ny        1 415     -0.690800
     16 CAT        11.3450   -4.7100    2.9280 c         1 415      0.645100
     17 OAB        11.8040   -3.5690    2.9050 o         1 415     -0.472100
     18 NAR        11.9410   -5.9200    3.1030 ns        1 415     -0.378100
     19 CAW        13.3580   -6.0750    2.9710 ca        1 415     -0.034400
     20 CAG        14.2510   -5.1020    3.4550 ca        1 415     -0.118000
     21 CAE        15.6230   -5.3330    3.3690 ca        1 415     -0.098500
     22 CAD        16.1100   -6.5120    2.8070 ca        1 415     -0.083000
     23 CAF        15.2210   -7.4730    2.3200 ca        1 415     -0.098500
     24 CAH        13.8470   -7.2650    2.3900 ca        1 415     -0.118000
     25 H1         -0.0240    0.2700   -1.3050 h1        1 415      0.067700
     26 H2         -0.5210   -0.3930    0.3410 h1        1 415      0.067700
     27 H3         -0.1190    1.3950    0.1500 h1        1 415      0.067700
     28 H4          3.9670   -0.1990    0.4510 ha        1 415      0.153000
     29 H5          0.1220    0.5610    2.3180 ha        1 415      0.185000
     30 H6          3.6910    0.3240    4.7660 ha        1 415      0.155000
     31 H7          5.9770    0.3510    1.8680 hx        1 415      0.114200
     32 H8          5.8400    0.3060    3.7030 hx        1 415      0.114200
     33 H9          5.3620   -2.0630    3.5270 hn        1 415      0.456300
     34 H11         7.7520   -1.2800    1.9090 hx        1 415      0.119700
     35 H12         7.6660   -1.3110    3.7360 hx        1 415      0.119700
     36 H13         7.3300   -3.7840    1.8530 hc        1 415      0.084700
     37 H14         7.2440   -3.8150    3.6670 hc        1 415      0.084700
     38 H15         9.5930   -2.8360    3.8000 hx        1 415      0.130200
     39 H16         9.6790   -2.7990    1.9790 hx        1 415      0.130200
     40 H17         9.4800   -5.2100    1.9990 hn        1 415      0.450800
     41 H18        11.4130   -6.7680    3.0420 hn        1 415      0.348500
     42 H19        13.8860   -4.1600    3.8960 ha        1 415      0.150000
     43 H20        16.3240   -4.5730    3.7530 ha        1 415      0.168500
     44 H21        17.1980   -6.6870    2.7440 ha        1 415      0.171000
     45 H22        15.6050   -8.4060    1.8750 ha        1 415      0.168500
     46 H23        13.1650   -8.0370    2.0010 ha        1 415      0.150000
     47 HAP2        5.4380   -2.0260    1.8710 hn        1 415      0.456300
     48 HAQ2        9.3880   -5.2460    3.6590 hn        1 415      0.450800
@<TRIPOS>BOND
     1    1    2 1   
     2    1   25 1   
     3    1   26 1   
     4    1   27 1   
     5    2    3 1   
     6    3    4 ar  
     7    3    5 ar  
     8    4    9 ar  
     9    4   28 1   
    10    5    6 ar  
    11    5   29 1   
    12    6    7 1   
    13    6    8 ar  
    14    8    9 ar  
    15    8   30 1   
    16    9   10 1   
    17   10   11 1   
    18   10   31 1   
    19   10   32 1   
    20   11   12 1   
    21   11   33 1   
    22   11   47 1   
    23   12   13 1   
    24   12   34 1   
    25   12   35 1   
    26   13   14 1   
    27   13   36 1   
    28   13   37 1   
    29   14   15 1   
    30   14   38 1   
    31   14   39 1   
    32   15   16 1   
    33   15   40 1   
    34   15   48 1   
    35   16   17 2   
    36   16   18 1   
    37   18   19 1   
    38   18   41 1   
    39   19   20 ar  
    40   19   24 ar  
    41   20   21 ar  
    42   20   42 1   
    43   21   22 ar  
    44   21   43 1   
    45   22   23 ar  
    46   22   44 1   
    47   23   24 ar  
    48   23   45 1   
    49   24   46 1   
@<TRIPOS>SUBSTRUCTURE
     1 415         1 TEMP              0 ****  ****    0 ROOT
