@<TRIPOS>MOLECULE
415
   46    47     1     0     0
SMALL
bcc


@<TRIPOS>ATOM
      1 CAA         8.1510    2.6700   -0.3230 c3        1 415      0.111700
      2 OAS         6.8530    2.4540   -0.8670 os        1 415     -0.324900
      3 CAX         6.1580    1.3670   -0.3730 ca        1 415      0.132100
      4 CAK         4.8810    1.1820   -0.9380 ca        1 415     -0.153000
      5 CAJ         6.6460    0.4990    0.6090 ca        1 415     -0.200000
      6 CAU         5.8350   -0.5640    1.0200 ca        1 415      0.048400
      7 CLC         6.4130   -1.6290    2.2140 cl        1 415     -0.093400
      8 CAI         4.5700   -0.7680    0.4690 ca        1 415     -0.140000
      9 CAV         4.0970    0.1130   -0.5130 ca        1 415     -0.056300
     10 CAO         2.7520   -0.1130   -1.1420 c3        1 415      0.207100
     11 NAP         1.6880   -0.3010   -0.1720 n3        1 415     -0.825200
     12 CAM         0.3690   -0.2620   -0.7740 c3        1 415      0.165800
     13 CAL        -0.7520   -0.3240    0.2630 c3        1 415     -0.094400
     14 CAN        -2.0930   -0.3420   -0.4710 c3        1 415      0.083000
     15 NAQ        -3.2170   -0.3870    0.4360 n         1 415     -0.550900
     16 CAT        -4.5020   -0.1980   -0.1170 c         1 415      0.753100
     17 OAB        -4.6250    0.2490   -1.2800 o         1 415     -0.619100
     18 NAR        -5.6130   -0.5220    0.6930 n         1 415     -0.458100
     19 CAW        -6.9300   -0.1170    0.3920 ca        1 415      0.060600
     20 CAG        -7.4060   -0.0090   -0.9320 ca        1 415     -0.159000
     21 CAE        -8.7360    0.3260   -1.1670 ca        1 415     -0.108500
     22 CAD        -9.6160    0.5520   -0.1100 ca        1 415     -0.152000
     23 CAF        -9.1550    0.4460    1.2010 ca        1 415     -0.108500
     24 CAH        -7.8280    0.1200    1.4600 ca        1 415     -0.159000
     25 H1          8.0910    2.8640    0.7750 h1        1 415      0.046700
     26 H2          8.8170    1.7980   -0.5330 h1        1 415      0.046700
     27 H3          8.5100    3.5800   -0.8670 h1        1 415      0.046700
     28 H4          4.5280    1.8840   -1.7070 ha        1 415      0.153000
     29 H5          7.6400    0.6410    1.0540 ha        1 415      0.152000
     30 H6          3.9430   -1.6110    0.7990 ha        1 415      0.163000
     31 H7          2.5320    0.7400   -1.8530 h1        1 415      0.043200
     32 H8          2.8050   -1.0550   -1.7630 h1        1 415      0.043200
     33 H9          1.7600    0.3670    0.5720 hn        1 415      0.363800
     34 H11         0.2160    0.6610   -1.4090 h1        1 415      0.034200
     35 H12         0.2870   -1.1530   -1.4600 h1        1 415      0.034200
     36 H13        -0.6390   -1.2440    0.8930 hc        1 415      0.053700
     37 H14        -0.6980    0.5640    0.9450 hc        1 415      0.053700
     38 H15        -2.1950    0.5900   -1.0990 h1        1 415      0.056200
     39 H16        -2.1150   -1.2250   -1.1750 h1        1 415      0.056200
     40 H17        -3.1220   -1.0240    1.1950 hn        1 415      0.293500
     41 H18        -5.4410   -0.6510    1.6670 hn        1 415      0.305500
     42 H19        -6.7270   -0.1750   -1.7840 ha        1 415      0.148500
     43 H20        -9.0920    0.4110   -2.2050 ha        1 415      0.133000
     44 H21       -10.6650    0.8140   -0.3080 ha        1 415      0.133000
     45 H22        -9.8420    0.6250    2.0420 ha        1 415      0.133000
     46 H23        -7.4890    0.0460    2.5040 ha        1 415      0.148500
@<TRIPOS>BOND
     1    1    2 1   
     2    1   25 1   
     3    1   26 1   
     4    1   27 1   
     5    2    3 1   
     6    3    4 ar  
     7    3    5 ar  
     8    4    9 ar  
     9    4   28 1   
    10    5    6 ar  
    11    5   29 1   
    12    6    7 1   
    13    6    8 ar  
    14    8    9 ar  
    15    8   30 1   
    16    9   10 1   
    17   10   11 1   
    18   10   31 1   
    19   10   32 1   
    20   11   12 1   
    21   11   33 1   
    22   12   13 1   
    23   12   34 1   
    24   12   35 1   
    25   13   14 1   
    26   13   36 1   
    27   13   37 1   
    28   14   15 1   
    29   14   38 1   
    30   14   39 1   
    31   15   16 1   
    32   15   40 1   
    33   16   17 2   
    34   16   18 1   
    35   18   19 1   
    36   18   41 1   
    37   19   20 ar  
    38   19   24 ar  
    39   20   21 ar  
    40   20   42 1   
    41   21   22 ar  
    42   21   43 1   
    43   22   23 ar  
    44   22   44 1   
    45   23   24 ar  
    46   23   45 1   
    47   24   46 1   
@<TRIPOS>SUBSTRUCTURE
     1 415         1 TEMP              0 ****  ****    0 ROOT
