@<TRIPOS>MOLECULE
416
   35    32     1     0     0
SMALL
bcc


@<TRIPOS>ATOM
      1 C1         -1.3730    0.0710   -1.5160 c1        1 416     -0.097000
      2 F1          4.2810    1.2270   -2.5450 f         1 416     -0.174000
      3 O1          2.2240    0.1770   -0.3690 os        1 416     -0.205000
      4 CL1        -3.7950    0.2170   -0.2830 cl        1 416     -0.054000
      5 C2          0.0510    0.2070    0.8800 c1        1 416     -0.153000
      6 F2          4.8070    0.7150   -0.4760 f         1 416     -0.174000
      7 O2          3.1680   -0.0420   -4.9460 o         1 416     -0.545000
      8 C3          0.0310    0.0540   -1.5340 c1        1 416     -0.067000
      9 F3          5.2540   -0.6880   -2.1100 f         1 416     -0.174000
     10 O3          3.2500   -2.1040   -4.2240 o         1 416     -0.545000
     11 C4         -2.0520    0.1560   -0.3030 c1        1 416     -0.083000
     12 C5         -1.3380    0.2240    0.8970 c1        1 416     -0.036000
     13 C6          0.7400    0.1210   -0.3450 c1        1 416      0.080000
     14 C7          0.7450   -0.2610   -2.8110 c2        1 416     -0.123000
     15 C8         -2.0820    0.2320    2.2260 c3        1 416     -0.006000
     16 C9         -1.1100    0.6230    3.3550 c3        1 416     -0.207333
     17 C10        -3.2380    1.2560    2.1640 c3        1 416     -0.207333
     18 C11        -2.6530   -1.1720    2.5030 c3        1 416     -0.207333
     19 C12         2.1950   -0.4970   -2.7970 c1        1 416     -0.158000
     20 C13         2.9010   -0.9070   -4.0590 c1        1 416      0.368000
     21 C14         2.9640   -0.4470   -1.4690 c3        1 416      0.051000
     22 C15         4.3790    0.2270   -1.6580 c3        1 416      0.389000
     23 H1         -1.8750   -0.0080   -2.3550 ha        1 416      0.149000
     24 H2          0.5430    0.2540    1.7070 ha        1 416      0.150000
     25 H7          0.2350   -0.4100   -3.6310 ha        1 416      0.164000
     26 H9         -0.6520    1.4610    3.1170 hc        1 416      0.075556
     27 H9A        -1.6090    0.7490    4.1860 hc        1 416      0.075556
     28 H9B        -0.4410   -0.0950    3.4770 hc        1 416      0.075556
     29 H10        -4.0320    0.8320    1.7560 hc        1 416      0.075556
     30 H10A       -3.4580    1.5570    3.0740 hc        1 416      0.075556
     31 H10B       -2.9620    2.0290    1.6210 hc        1 416      0.075556
     32 H11        -3.1230   -1.1710    3.3620 hc        1 416      0.075556
     33 H11A       -1.9200   -1.8250    2.5320 hc        1 416      0.075556
     34 H11B       -3.2810   -1.4180    1.7860 hc        1 416      0.075556
     35 H14         3.2280   -1.3470   -1.2130 h1        1 416      0.186000
@<TRIPOS>BOND
     1    1    8 1   
     2    1   23 1   
     3    2   22 1   
     4    3   13 1   
     5    3   21 1   
     6    4   11 1   
     7    5   13 1   
     8    5   24 1   
     9    6   22 1   
    10    7   20 1   
    11    8   14 1   
    12    9   22 1   
    13   10   20 1   
    14   11   12 1   
    15   12   15 1   
    16   14   19 1   
    17   14   25 1   
    18   15   16 1   
    19   15   17 1   
    20   15   18 1   
    21   16   26 1   
    22   16   27 1   
    23   16   28 1   
    24   17   29 1   
    25   17   30 1   
    26   17   31 1   
    27   18   32 1   
    28   18   33 1   
    29   18   34 1   
    30   19   21 1   
    31   21   22 1   
    32   21   35 1   
@<TRIPOS>SUBSTRUCTURE
     1 416         1 TEMP              0 ****  ****    0 ROOT
