@<TRIPOS>MOLECULE
416
   35    36     1     0     0
SMALL
bcc


@<TRIPOS>ATOM
      1 C1         -0.0840   -0.0310   -0.0440 ca        1 416     -0.097000
      2 F1          4.8170    2.5920    1.4820 f         1 416     -0.245300
      3 O1          3.3580    0.3150    1.2370 os        1 416     -0.321900
      4 CL1        -2.4710   -0.2570    1.0340 cl        1 416     -0.132400
      5 C2          1.2940    0.1570    2.3740 ca        1 416     -0.153000
      6 F2          3.2240    3.1050    0.1170 f         1 416     -0.245300
      7 O2          3.8030    0.3440   -3.5910 o         1 416     -0.810300
      8 C3          1.3020    0.1100   -0.0750 ca        1 416     -0.078800
      9 F3          5.2410    2.8150   -0.6240 f         1 416     -0.245300
     10 O3          5.5370    0.0290   -2.2030 o         1 416     -0.810300
     11 C4         -0.7710   -0.0810    1.1740 ca        1 416     -0.004600
     12 C5         -0.1000    0.0070    2.4090 ca        1 416     -0.043300
     13 C6          1.9810    0.2120    1.1560 ca        1 416      0.125100
     14 C7          2.0850    0.1270   -1.2930 ce        1 416     -0.111200
     15 C8         -0.8030   -0.0470    3.7450 c3        1 416      0.001300
     16 C9          0.1750    0.0690    4.9160 c3        1 416     -0.089433
     17 C10        -1.7870    1.1120    3.8760 c3        1 416     -0.089433
     18 C11        -1.5300   -1.3790    3.9100 c3        1 416     -0.089433
     19 C12         3.3990    0.4050   -1.2360 cf        1 416     -0.181400
     20 C13         4.3210    0.2600   -2.4480 c         1 416      0.917800
     21 C14         4.0510    0.7390    0.0590 c3        1 416      0.166300
     22 C15         4.3180    2.2870    0.2350 c3        1 416      0.602900
     23 H1         -0.6350   -0.1050   -0.9950 ha        1 416      0.149000
     24 H2          1.8960    0.2360    3.2910 ha        1 416      0.150000
     25 H7          1.5990   -0.1150   -2.2500 ha        1 416      0.164000
     26 H9          0.9110   -0.7690    4.9030 hc        1 416      0.036256
     27 H9A         0.7200    1.0430    4.8810 hc        1 416      0.036256
     28 H9B        -0.3900    0.0210    5.8790 hc        1 416      0.036256
     29 H10        -2.2260    1.1190    4.9040 hc        1 416      0.036256
     30 H10A       -1.2600    2.0810    3.7050 hc        1 416      0.036256
     31 H10B       -2.6200    1.0230    3.1410 hc        1 416      0.036256
     32 H11        -2.3590   -1.4840    3.1730 hc        1 416      0.036256
     33 H11A       -0.8160   -2.2250    3.7690 hc        1 416      0.036256
     34 H11B       -1.9650   -1.4460    4.9370 hc        1 416      0.036256
     35 H14         5.0610    0.2310    0.1230 h1        1 416      0.146700
@<TRIPOS>BOND
     1    1    8 ar  
     2    1   11 ar  
     3    1   23 1   
     4    2   22 1   
     5    3   13 1   
     6    3   21 1   
     7    4   11 1   
     8    5   12 ar  
     9    5   13 ar  
    10    5   24 1   
    11    6   22 1   
    12    7   20 1   
    13    8   13 ar  
    14    8   14 1   
    15    9   22 1   
    16   10   20 1   
    17   11   12 ar  
    18   12   15 1   
    19   14   19 2   
    20   14   25 1   
    21   15   16 1   
    22   15   17 1   
    23   15   18 1   
    24   16   26 1   
    25   16   27 1   
    26   16   28 1   
    27   17   29 1   
    28   17   30 1   
    29   17   31 1   
    30   18   32 1   
    31   18   33 1   
    32   18   34 1   
    33   19   20 1   
    34   19   21 1   
    35   21   22 1   
    36   21   35 1   
@<TRIPOS>SUBSTRUCTURE
     1 416         1 TEMP              0 ****  ****    0 ROOT
