@<TRIPOS>MOLECULE
416
   35    36     1     0     0
SMALL
bcc


@<TRIPOS>ATOM
      1 C1         -0.0860   -0.0380   -0.0430 ca        1 416     -0.097000
      2 F1          4.8170    2.5870    1.4740 f         1 416     -0.245300
      3 O1          3.3570    0.3090    1.2360 os        1 416     -0.321900
      4 Cl1        -2.4720   -0.2610    1.0370 cl        1 416     -0.132400
      5 C2          1.2930    0.1550    2.3740 ca        1 416     -0.153000
      6 F2          3.2230    3.0970    0.1090 f         1 416     -0.245300
      7 O2          3.7990    0.3270   -3.5920 o         1 416     -0.810300
      8 C3          1.3000    0.1020   -0.0750 ca        1 416     -0.078800
      9 F3          5.2400    2.8050   -0.6330 f         1 416     -0.245300
     10 O3          5.5340    0.0140   -2.2040 o         1 416     -0.810300
     11 C4         -0.7720   -0.0850    1.1760 ca        1 416     -0.004600
     12 C5         -0.1010    0.0060    2.4100 ca        1 416     -0.043300
     13 C6          1.9800    0.2070    1.1550 ca        1 416      0.125100
     14 C7          2.0830    0.1160   -1.2940 ce        1 416     -0.111200
     15 C8         -0.8020   -0.0450    3.7460 c3        1 416      0.001300
     16 C9          0.1760    0.0740    4.9170 c3        1 416     -0.089433
     17 C10        -1.7860    1.1150    3.8750 c3        1 416     -0.089433
     18 C11        -1.5300   -1.3760    3.9150 c3        1 416     -0.089433
     19 C12         3.3970    0.3940   -1.2380 cf        1 416     -0.181400
     20 C13         4.3180    0.2450   -2.4500 c         1 416      0.917800
     21 C14         4.0500    0.7310    0.0560 c3        1 416      0.166300
     22 C15         4.3180    2.2790    0.2290 c3        1 416      0.602900
     23 H1         -0.6370   -0.1140   -0.9940 ha        1 416      0.149000
     24 H2          1.8960    0.2370    3.2900 ha        1 416      0.150000
     25 H7          1.5960   -0.1280   -2.2500 ha        1 416      0.164000
     26 H9         -0.3890    0.0290    5.8800 hc        1 416      0.036256
     27 H9A         0.9110   -0.7650    4.9050 hc        1 416      0.036256
     28 H9B         0.7210    1.0470    4.8790 hc        1 416      0.036256
     29 H10        -1.2600    2.0830    3.7010 hc        1 416      0.036256
     30 H10A       -2.2250    1.1250    4.9030 hc        1 416      0.036256
     31 H10B       -2.6200    1.0240    3.1410 hc        1 416      0.036256
     32 H11        -0.8160   -2.2230    3.7760 hc        1 416      0.036256
     33 H11A       -1.9650   -1.4400    4.9420 hc        1 416      0.036256
     34 H11B       -2.3600   -1.4830    3.1780 hc        1 416      0.036256
     35 H14         5.0600    0.2220    0.1210 h1        1 416      0.146700
@<TRIPOS>BOND
     1    1    8 ar  
     2    1   11 ar  
     3    1   23 1   
     4    2   22 1   
     5    3   13 1   
     6    3   21 1   
     7    4   11 1   
     8    5   12 ar  
     9    5   13 ar  
    10    5   24 1   
    11    6   22 1   
    12    7   20 1   
    13    8   13 ar  
    14    8   14 1   
    15    9   22 1   
    16   10   20 1   
    17   11   12 ar  
    18   12   15 1   
    19   14   19 2   
    20   14   25 1   
    21   15   16 1   
    22   15   17 1   
    23   15   18 1   
    24   16   26 1   
    25   16   27 1   
    26   16   28 1   
    27   17   29 1   
    28   17   30 1   
    29   17   31 1   
    30   18   32 1   
    31   18   33 1   
    32   18   34 1   
    33   19   20 1   
    34   19   21 1   
    35   21   22 1   
    36   21   35 1   
@<TRIPOS>SUBSTRUCTURE
     1 416         1 TEMP              0 ****  ****    0 ROOT
