@<TRIPOS>MOLECULE
416
   35    36     1     0     0
SMALL
bcc


@<TRIPOS>ATOM
      1 C1          1.0500   -1.7510    0.2840 ca        1 416     -0.097000
      2 F1         -2.4180    2.8520    0.4200 f         1 416     -0.245300
      3 O1         -1.0020    1.0280   -1.0100 os        1 416     -0.321900
      4 CL1         3.6140   -2.1440    0.7140 cl        1 416     -0.132400
      5 C2          1.3270    0.8620   -0.6540 ca        1 416     -0.153000
      6 F2         -2.0340    1.2430    1.8090 f         1 416     -0.245300
      7 O2         -4.1650   -2.4970    0.0260 o         1 416     -0.810300
      8 C3         -0.0940   -1.0560   -0.1020 ca        1 416     -0.078800
      9 F3         -4.0180    1.5100    0.9740 f         1 416     -0.245300
     10 O3         -4.6820   -0.7220   -1.2450 o         1 416     -0.810300
     11 C4          2.3130   -1.1520    0.2000 ca        1 416     -0.004600
     12 C5          2.4820    0.1630   -0.2740 ca        1 416     -0.043300
     13 C6          0.0640    0.2660   -0.5660 ca        1 416      0.125100
     14 C7         -1.4270   -1.6210   -0.0840 ce        1 416     -0.111200
     15 C8          3.8260    0.8430   -0.3840 c3        1 416      0.001300
     16 C9          3.7080    2.2670   -0.9320 c3        1 416     -0.089433
     17 C10         4.4810    0.9530    0.9900 c3        1 416     -0.089433
     18 C11         4.7330    0.0760   -1.3430 c3        1 416     -0.089433
     19 C12        -2.4870   -0.8360   -0.3420 cf        1 416     -0.181400
     20 C13        -3.8980   -1.3970   -0.5220 c         1 416      0.917800
     21 C14        -2.3120    0.6180   -0.6030 c3        1 416      0.166300
     22 C15        -2.6930    1.5200    0.6380 c3        1 416      0.602900
     23 H1          0.9490   -2.7830    0.6560 ha        1 416      0.149000
     24 H2          1.3670    1.8940   -1.0320 ha        1 416      0.150000
     25 H7         -1.5540   -2.6960    0.1150 ha        1 416      0.164000
     26 H9          3.0840    2.9000   -0.2570 hc        1 416      0.036256
     27 H9A         4.7250    2.7250   -0.9980 hc        1 416      0.036256
     28 H9B         3.2630    2.2620   -1.9550 hc        1 416      0.036256
     29 H10         4.7330   -0.0520    1.4020 hc        1 416      0.036256
     30 H10A        5.4260    1.5440    0.9100 hc        1 416      0.036256
     31 H10B        3.7940    1.4700    1.7010 hc        1 416      0.036256
     32 H11         4.2310   -0.0410   -2.3330 hc        1 416      0.036256
     33 H11A        5.6870    0.6390   -1.4900 hc        1 416      0.036256
     34 H11B        4.9820   -0.9350   -0.9460 hc        1 416      0.036256
     35 H14        -2.9880    0.9410   -1.4520 h1        1 416      0.146700
@<TRIPOS>BOND
     1    1    8 ar  
     2    1   11 ar  
     3    1   23 1   
     4    2   22 1   
     5    3   13 1   
     6    3   21 1   
     7    4   11 1   
     8    5   12 ar  
     9    5   13 ar  
    10    5   24 1   
    11    6   22 1   
    12    7   20 1   
    13    8   13 ar  
    14    8   14 1   
    15    9   22 1   
    16   10   20 1   
    17   11   12 ar  
    18   12   15 1   
    19   14   19 2   
    20   14   25 1   
    21   15   16 1   
    22   15   17 1   
    23   15   18 1   
    24   16   26 1   
    25   16   27 1   
    26   16   28 1   
    27   17   29 1   
    28   17   30 1   
    29   17   31 1   
    30   18   32 1   
    31   18   33 1   
    32   18   34 1   
    33   19   20 1   
    34   19   21 1   
    35   21   22 1   
    36   21   35 1   
@<TRIPOS>SUBSTRUCTURE
     1 416         1 TEMP              0 ****  ****    0 ROOT
