@<TRIPOS>MOLECULE
417
   48    47     1     0     0
SMALL
bcc


@<TRIPOS>ATOM
      1 C1         -5.3380    0.2730   -2.3980 c1        1 417     -0.182000
      2 C2         -3.9650    0.3350   -2.5570 c1        1 417      0.105000
      3 C3         -3.1300    0.2470   -1.4460 c1        1 417     -0.068000
      4 C4         -3.6720    0.0970   -0.1860 c2        1 417     -0.112000
      5 C5         -5.0510    0.0340   -0.0260 c1        1 417      0.049000
      6 C6         -5.8830    0.1220   -1.1320 c1        1 417      0.083000
      7 C9         -1.6170    0.3960   -1.6150 c2        1 417     -0.067000
      8 C10        -1.1480    1.6360   -0.8390 c3        1 417     -0.155000
      9 C11         0.3740    1.7630   -0.8080 c3        1 417     -0.154000
     10 C12         1.0490    0.4980   -0.3370 c3        1 417     -0.009000
     11 C13         0.5790   -0.7410   -1.1110 c3        1 417     -0.210000
     12 C14        -0.9440   -0.8690   -1.1420 c3        1 417     -0.019000
     13 N21         2.4870    0.6430   -0.5090 n3        1 417     -0.258000
     14 C22         2.8270    1.2250    0.1430 c3        1 417     -0.077000
     15 C23         2.6450    0.8500    1.5920 c3        1 417     -0.068000
     16 N24         2.4620   -0.6460    1.8360 n3        1 417     -0.132000
     17 C25         2.9250   -1.4840    1.0410 c2        1 417     -0.101000
     18 C26         3.3980   -1.0630   -0.0100 c3        1 417      0.006000
     19 C33         2.8900   -1.2480    3.1640 c2        1 417     -0.191000
     20 N34         3.5370   -2.3450    2.9580 n1        1 417     -0.014000
     21 N35         3.6040   -2.5570    1.7710 n1        1 417     -0.075000
     22 F36        -5.5780   -0.0810    1.1980 f         1 417     -0.089000
     23 F37        -3.4400    0.5600   -3.7750 f         1 417     -0.101000
     24 N38        -1.3030   -1.9470   -2.0280 n3        1 417     -0.336000
     25 C39         3.2820   -0.3470    4.3090 c3        1 417      0.526000
     26 F40         3.6740   -1.0940    5.3530 f         1 417     -0.150333
     27 F41         2.2340    0.4010    4.6660 f         1 417     -0.150333
     28 F42         4.2880    0.4490    3.9260 f         1 417     -0.150333
     29 F43        -7.2090    0.2100   -0.9630 f         1 417     -0.085000
     30 H1         -5.9270    0.3350   -3.1820 ha        1 417      0.170000
     31 H4         -3.0860    0.0350    0.5950 ha        1 417      0.156000
     32 H9         -1.4180    0.5240   -2.5630 ha        1 417      0.110000
     33 H101       -1.4810    1.5790    0.0850 hc        1 417      0.090000
     34 H102       -1.5240    2.4360   -1.2630 hc        1 417      0.090000
     35 H111        0.6190    2.4970   -0.2050 hc        1 417      0.093000
     36 H112        0.6910    1.9730   -1.7050 hc        1 417      0.093000
     37 H12         0.8550    0.3700    0.6140 h1        1 417      0.071000
     38 H131        0.9090   -0.6840   -2.0300 hc        1 417      0.094000
     39 H132        0.9550   -1.5410   -0.6890 hc        1 417      0.094000
     40 H14        -1.2630   -1.0790   -0.2390 h1        1 417      0.100000
     41 H221        3.8010    1.2820   -0.0120 h1        1 417      0.114000
     42 H222        2.3670    2.0840    0.0170 h1        1 417      0.114000
     43 H231        1.8400    1.2950    1.9070 h1        1 417      0.117000
     44 H232        3.4620    1.1260    2.0710 h1        1 417      0.117000
     45 H261        3.3240   -1.7210   -0.7340 h1        1 417      0.130500
     46 H262        4.3590   -0.9030    0.1110 h1        1 417      0.130500
     47 H381       -1.9070   -2.5080   -1.6030 hn        1 417      0.150500
     48 H382       -0.5570   -2.4170   -2.2510 hn        1 417      0.150500
@<TRIPOS>BOND
     1    1    6 1   
     2    1   30 1   
     3    2    3 1   
     4    2   23 1   
     5    3    4 1   
     6    4    5 1   
     7    4   31 1   
     8    5   22 1   
     9    6   29 1   
    10    7    8 1   
    11    7   12 1   
    12    7   32 1   
    13    8    9 1   
    14    8   33 1   
    15    8   34 1   
    16    9   10 1   
    17    9   35 1   
    18    9   36 1   
    19   10   11 1   
    20   10   13 1   
    21   10   37 1   
    22   11   12 1   
    23   11   38 1   
    24   11   39 1   
    25   12   24 1   
    26   12   40 1   
    27   13   14 1   
    28   13   18 1   
    29   14   15 1   
    30   14   41 1   
    31   14   42 1   
    32   15   16 1   
    33   15   43 1   
    34   15   44 1   
    35   16   17 1   
    36   16   19 1   
    37   17   18 1   
    38   17   21 1   
    39   18   45 1   
    40   18   46 1   
    41   19   20 1   
    42   19   25 1   
    43   24   47 1   
    44   24   48 1   
    45   25   26 1   
    46   25   27 1   
    47   25   28 1   
@<TRIPOS>SUBSTRUCTURE
     1 417         1 TEMP              0 ****  ****    0 ROOT
