@<TRIPOS>MOLECULE
417
   49    52     1     0     0
SMALL
bcc


@<TRIPOS>ATOM
      1 C1         -0.0080    0.3480    0.2170 ca        1 417     -0.164000
      2 C2          1.3910    0.3570    0.2960 ca        1 417      0.096900
      3 C3          2.0660    0.0880    1.5120 ca        1 417     -0.168300
      4 C4          1.3060   -0.2190    2.6390 ca        1 417     -0.112000
      5 C5         -0.0970   -0.2500    2.5830 ca        1 417      0.106900
      6 C6         -0.7640    0.0460    1.3600 ca        1 417      0.153900
      7 C9          3.5540    0.2120    1.5690 c3        1 417     -0.028400
      8 C10         4.0680    0.6550    2.9350 c3        1 417     -0.071400
      9 C11         5.5680    0.8530    2.9140 c3        1 417     -0.128400
     10 C12         6.2720   -0.4630    2.5470 c3        1 417      0.208500
     11 C13         5.7780   -0.9060    1.1530 c3        1 417     -0.111400
     12 C14         4.2610   -1.1120    1.2020 c3        1 417      0.126500
     13 N21         7.7280   -0.4670    2.6060 n3        1 417     -0.748600
     14 C22         8.2500   -0.4410    3.9670 c3        1 417      0.160800
     15 C23         9.7740   -0.7150    4.0350 c3        1 417      0.033300
     16 N24        10.4840    0.0260    3.0330 na        1 417     -0.286700
     17 C25         9.8470    0.5790    1.9130 cc        1 417      0.355800
     18 C26         8.3690    0.4850    1.7030 c3        1 417      0.149500
     19 C33        11.8360    0.3480    2.8640 cc        1 417      0.272800
     20 N34        11.9690    1.0530    1.6940 nd        1 417     -0.266000
     21 N35        10.7950    1.1920    1.1290 nd        1 417     -0.324000
     22 F36        -0.8110   -0.5540    3.6850 f         1 417     -0.092900
     23 F37         2.1100    0.6270   -0.8260 f         1 417     -0.151900
     24 N38         3.7610   -1.6410   -0.1170 nz        1 417     -0.842600
     25 C39        12.9480   -0.0510    3.8240 c3        1 417      0.645600
     26 F40        14.1030    0.6600    3.6720 f         1 417     -0.214967
     27 F41        12.5990    0.1000    5.1440 f         1 417     -0.214967
     28 F42        13.3040   -1.3700    3.7090 f         1 417     -0.214967
     29 F43        -2.1080    0.0330    1.3010 f         1 417     -0.084900
     30 H1         -0.5160    0.5890   -0.7330 ha        1 417      0.194000
     31 H4          1.7880   -0.4300    3.6080 ha        1 417      0.173000
     32 H9          3.8680    1.0000    0.8190 hc        1 417      0.091700
     33 H101        3.5620    1.6180    3.2130 hc        1 417      0.074200
     34 H102        3.8050   -0.1060    3.7170 hc        1 417      0.074200
     35 H111        5.8360    1.6590    2.1820 hc        1 417      0.074200
     36 H112        5.9070    1.1930    3.9280 hc        1 417      0.074200
     37 H12         5.9320   -1.2500    3.2890 h1        1 417      0.067700
     38 H131        6.2940   -1.8590    0.8610 hc        1 417      0.078700
     39 H132        6.0330   -0.1180    0.3940 hc        1 417      0.078700
     40 H14         4.0060   -1.8980    1.9760 hx        1 417      0.111700
     41 H221        8.0400    0.5440    4.4760 h1        1 417      0.058700
     42 H222        7.7480   -1.2570    4.5590 h1        1 417      0.058700
     43 H231        9.9700   -1.8150    3.8810 h1        1 417      0.090200
     44 H232       10.1490   -0.4210    5.0580 h1        1 417      0.090200
     45 H261        7.9460    1.5290    1.8040 h1        1 417      0.067700
     46 H262        8.1860    0.1280    0.6470 h1        1 417      0.067700
     47 H381        2.7550   -1.8270   -0.0480 hn        1 417      0.462467
     48 H382        4.2600   -2.4980   -0.3650 hn        1 417      0.462467
     49 H383        3.9070   -0.9360   -0.8500 hn        1 417      0.462467
@<TRIPOS>BOND
     1    1    2 ar  
     2    1    6 ar  
     3    1   30 1   
     4    2    3 ar  
     5    2   23 1   
     6    3    4 ar  
     7    3    7 1   
     8    4    5 ar  
     9    4   31 1   
    10    5    6 ar  
    11    5   22 1   
    12    6   29 1   
    13    7    8 1   
    14    7   12 1   
    15    7   32 1   
    16    8    9 1   
    17    8   33 1   
    18    8   34 1   
    19    9   10 1   
    20    9   35 1   
    21    9   36 1   
    22   10   11 1   
    23   10   13 1   
    24   10   37 1   
    25   11   12 1   
    26   11   38 1   
    27   11   39 1   
    28   12   24 1   
    29   12   40 1   
    30   13   14 1   
    31   13   18 1   
    32   14   15 1   
    33   14   41 1   
    34   14   42 1   
    35   15   16 1   
    36   15   43 1   
    37   15   44 1   
    38   16   17 1   
    39   16   19 1   
    40   17   18 1   
    41   17   21 2   
    42   18   45 1   
    43   18   46 1   
    44   19   20 2   
    45   19   25 1   
    46   20   21 1   
    47   24   47 1   
    48   24   48 1   
    49   24   49 1   
    50   25   26 1   
    51   25   27 1   
    52   25   28 1   
@<TRIPOS>SUBSTRUCTURE
     1 417         1 TEMP              0 ****  ****    0 ROOT
