@<TRIPOS>MOLECULE
417
   49    52     1     0     0
SMALL
bcc


@<TRIPOS>ATOM
      1 C1         -0.0030    0.3050    0.1850 ca        1 417     -0.164000
      2 C2          1.3960    0.3170    0.2700 ca        1 417      0.096900
      3 C3          2.0670    0.0720    1.4930 ca        1 417     -0.168300
      4 C4          1.3020   -0.2150    2.6230 ca        1 417     -0.112000
      5 C5         -0.1000   -0.2490    2.5620 ca        1 417      0.106900
      6 C6         -0.7620    0.0230    1.3310 ca        1 417      0.153900
      7 C9          3.5550    0.1990    1.5540 c3        1 417     -0.028400
      8 C10         4.0620    0.6680    2.9140 c3        1 417     -0.071400
      9 C11         5.5620    0.8680    2.8940 c3        1 417     -0.128400
     10 C12         6.2690   -0.4540    2.5550 c3        1 417      0.208500
     11 C13         5.7810   -0.9230    1.1670 c3        1 417     -0.111400
     12 C14         4.2650   -1.1310    1.2150 c3        1 417      0.126500
     13 N21         7.7250   -0.4550    2.6200 n3        1 417     -0.748600
     14 C22         8.2420   -0.4020    3.9820 c3        1 417      0.160800
     15 C23         9.7650   -0.6720    4.0620 c3        1 417      0.033300
     16 N24        10.4790    0.0510    3.0490 na        1 417     -0.286700
     17 C25         9.8450    0.5810    1.9150 cc        1 417      0.355800
     18 C26         8.3680    0.4810    1.7010 c3        1 417      0.149500
     19 C33        11.8310    0.3710    2.8790 cc        1 417      0.272800
     20 N34        11.9670    1.0550    1.6960 nd        1 417     -0.266000
     21 N35        10.7950    1.1810    1.1240 nd        1 417     -0.324000
     22 F36        -0.8190   -0.5330    3.6670 f         1 417     -0.092900
     23 F37         2.1190    0.5660   -0.8540 f         1 417     -0.151900
     24 N38         3.7700   -1.6850   -0.0950 n4        1 417     -0.842600
     25 C39        12.9390   -0.0070    3.8500 c3        1 417      0.645600
     26 F40        14.0940    0.7030    3.6900 f         1 417     -0.214967
     27 F41        12.5850    0.1690    5.1660 f         1 417     -0.214967
     28 F42        13.2980   -1.3270    3.7630 f         1 417     -0.214967
     29 F43        -2.1060    0.0070    1.2670 f         1 417     -0.084900
     30 H1         -0.5070    0.5270   -0.7700 ha        1 417      0.194000
     31 H4          1.7810   -0.4070    3.5980 ha        1 417      0.173000
     32 H9          3.8700    0.9730    0.7910 hc        1 417      0.091700
     33 H101        3.5540    1.6350    3.1710 hc        1 417      0.074200
     34 H102        3.7970   -0.0790    3.7090 hc        1 417      0.074200
     35 H111        5.8960    1.2270    3.9030 hc        1 417      0.074200
     36 H112        5.8320    1.6600    2.1480 hc        1 417      0.074200
     37 H12         5.9270   -1.2280    3.3110 h1        1 417      0.067700
     38 H131        6.0380   -0.1500    0.3960 hc        1 417      0.078700
     39 H132        6.3000   -1.8810    0.8960 hc        1 417      0.078700
     40 H14         4.0080   -1.9030    2.0020 hx        1 417      0.111700
     41 H221        8.0280    0.5920    4.4720 h1        1 417      0.058700
     42 H222        7.7380   -1.2070    4.5880 h1        1 417      0.058700
     43 H231        9.9640   -1.7750    3.9290 h1        1 417      0.090200
     44 H232       10.1370   -0.3580    5.0800 h1        1 417      0.090200
     45 H261        7.9430    1.5260    1.7810 h1        1 417      0.067700
     46 H262        8.1900    0.1040    0.6520 h1        1 417      0.067700
     47 H381        2.7640   -1.8720   -0.0280 hn        1 417      0.462467
     48 H382        3.9180   -0.9940   -0.8410 hn        1 417      0.462467
     49 H383        4.2720   -2.5470   -0.3250 hn        1 417      0.462467
@<TRIPOS>BOND
     1    1    2 ar  
     2    1    6 ar  
     3    1   30 1   
     4    2    3 ar  
     5    2   23 1   
     6    3    4 ar  
     7    3    7 1   
     8    4    5 ar  
     9    4   31 1   
    10    5    6 ar  
    11    5   22 1   
    12    6   29 1   
    13    7    8 1   
    14    7   12 1   
    15    7   32 1   
    16    8    9 1   
    17    8   33 1   
    18    8   34 1   
    19    9   10 1   
    20    9   35 1   
    21    9   36 1   
    22   10   11 1   
    23   10   13 1   
    24   10   37 1   
    25   11   12 1   
    26   11   38 1   
    27   11   39 1   
    28   12   24 1   
    29   12   40 1   
    30   13   14 1   
    31   13   18 1   
    32   14   15 1   
    33   14   41 1   
    34   14   42 1   
    35   15   16 1   
    36   15   43 1   
    37   15   44 1   
    38   16   17 1   
    39   16   19 1   
    40   17   18 1   
    41   17   21 2   
    42   18   45 1   
    43   18   46 1   
    44   19   20 2   
    45   19   25 1   
    46   20   21 1   
    47   24   47 1   
    48   24   48 1   
    49   24   49 1   
    50   25   26 1   
    51   25   27 1   
    52   25   28 1   
@<TRIPOS>SUBSTRUCTURE
     1 417         1 TEMP              0 ****  ****    0 ROOT
