@<TRIPOS>MOLECULE
417
   48    51     1     0     0
SMALL
bcc


@<TRIPOS>ATOM
      1 C1         -7.4130   -0.0620    2.3650 ca        1 417     -0.182000
      2 C2         -6.0940    0.0170    1.8910 ca        1 417      0.136900
      3 C3         -5.0910   -0.8540    2.3760 ca        1 417     -0.105300
      4 C4         -5.4370   -1.8010    3.3410 ca        1 417     -0.122000
      5 C5         -6.7480   -1.8970    3.8290 ca        1 417      0.083900
      6 C6         -7.7480   -1.0160    3.3340 ca        1 417      0.121900
      7 C9         -3.6850   -0.7550    1.8800 c3        1 417     -0.066400
      8 C10        -2.7460   -0.3530    3.0080 c3        1 417     -0.067400
      9 C11        -1.3200   -0.2070    2.5190 c3        1 417     -0.087400
     10 C12        -0.8270   -1.5230    1.8980 c3        1 417      0.196500
     11 C13        -1.7700   -1.8890    0.7360 c3        1 417     -0.075400
     12 C14        -3.2010   -2.0920    1.2580 c3        1 417      0.175500
     13 N21         0.5640   -1.4830    1.4250 n3        1 417     -0.747600
     14 C22         1.1530   -2.8120    1.3370 c3        1 417      0.157800
     15 C23         2.5080   -2.8230    0.5860 c3        1 417      0.030300
     16 N24         3.3540   -1.7510    1.0310 na        1 417     -0.282700
     17 C25         2.8580   -0.6470    1.7370 cc        1 417      0.379800
     18 C26         1.4130   -0.5250    2.1220 c3        1 417      0.149500
     19 C33         4.7240   -1.4990    0.8950 cc        1 417      0.251800
     20 N34         5.0040   -0.2960    1.4960 nd        1 417     -0.277000
     21 N35         3.9040    0.2090    1.9960 nd        1 417     -0.341000
     22 F36        -7.0620   -2.8210    4.7640 f         1 417     -0.118900
     23 F37        -5.7990    0.9480    0.9520 f         1 417     -0.129900
     24 N38        -4.0650   -2.6400    0.2330 n3        1 417     -0.902800
     25 C39         5.7050   -2.4100    0.1810 c3        1 417      0.646600
     26 F40         7.0180   -2.1690    0.4740 f         1 417     -0.222300
     27 F41         5.5180   -3.7430    0.4610 f         1 417     -0.222300
     28 F42         5.6210   -2.3340   -1.1870 f         1 417     -0.222300
     29 F43        -9.0140   -1.0990    3.7980 f         1 417     -0.115900
     30 H1         -8.1820    0.6240    1.9780 ha        1 417      0.174000
     31 H4         -4.6730   -2.4900    3.7360 ha        1 417      0.162000
     32 H9         -3.6360    0.0390    1.0800 hc        1 417      0.073700
     33 H101       -2.7910   -1.1190    3.8260 hc        1 417      0.050700
     34 H102       -3.0850    0.6240    3.4420 hc        1 417      0.050700
     35 H111       -1.2610    0.6170    1.7610 hc        1 417      0.055200
     36 H112       -0.6800    0.0810    3.3940 hc        1 417      0.055200
     37 H12        -0.9310   -2.3260    2.6950 h1        1 417      0.029700
     38 H131       -1.7530   -1.0730   -0.0330 hc        1 417      0.060200
     39 H132       -1.4280   -2.8320    0.2360 hc        1 417      0.060200
     40 H14        -3.1700   -2.8610    2.0880 h1        1 417      0.057700
     41 H221        0.4550   -3.4780    0.7560 h1        1 417      0.055200
     42 H222        1.3050   -3.2730    2.3570 h1        1 417      0.055200
     43 H231        3.0230   -3.8080    0.7710 h1        1 417      0.082200
     44 H232        2.3310   -2.7070   -0.5220 h1        1 417      0.082200
     45 H261        1.3630   -0.6340    3.2480 h1        1 417      0.073200
     46 H262        1.0610    0.5110    1.8450 h1        1 417      0.073200
     47 H381       -4.0620   -2.0650   -0.5860 hn        1 417      0.353800
     48 H382       -5.0030   -2.7190    0.5760 hn        1 417      0.353800
@<TRIPOS>BOND
     1    1    2 ar  
     2    1    6 ar  
     3    1   30 1   
     4    2    3 ar  
     5    2   23 1   
     6    3    4 ar  
     7    3    7 1   
     8    4    5 ar  
     9    4   31 1   
    10    5    6 ar  
    11    5   22 1   
    12    6   29 1   
    13    7    8 1   
    14    7   12 1   
    15    7   32 1   
    16    8    9 1   
    17    8   33 1   
    18    8   34 1   
    19    9   10 1   
    20    9   35 1   
    21    9   36 1   
    22   10   11 1   
    23   10   13 1   
    24   10   37 1   
    25   11   12 1   
    26   11   38 1   
    27   11   39 1   
    28   12   24 1   
    29   12   40 1   
    30   13   14 1   
    31   13   18 1   
    32   14   15 1   
    33   14   41 1   
    34   14   42 1   
    35   15   16 1   
    36   15   43 1   
    37   15   44 1   
    38   16   17 1   
    39   16   19 1   
    40   17   18 1   
    41   17   21 2   
    42   18   45 1   
    43   18   46 1   
    44   19   20 2   
    45   19   25 1   
    46   20   21 1   
    47   24   47 1   
    48   24   48 1   
    49   25   26 1   
    50   25   27 1   
    51   25   28 1   
@<TRIPOS>SUBSTRUCTURE
     1 417         1 TEMP              0 ****  ****    0 ROOT
