@<TRIPOS>MOLECULE
418
   85    85     1     0     0
SMALL
bcc


@<TRIPOS>ATOM
      1 O6         -2.1560    2.8660    0.7840 o         1 418     -0.210000
      2 C24        -1.0300    2.5210    0.6330 c1        1 418      0.420000
      3 O7          0.1010    2.1780    0.4780 o         1 418     -0.210000
      4 C8         -0.7010    0.4480   -3.2260 c1        1 418      0.218000
      5 O5         -0.0410    0.0970   -4.1290 o         1 418     -0.218000
      6 N4          6.6530    1.3190   -1.0650 nh        1 418     -0.253000
      7 C2          6.7240    1.5000   -2.4520 ca        1 418      0.098000
      8 C3          5.5700    1.5180   -3.2710 ca        1 418     -0.182000
      9 C4          5.6840    1.7000   -4.6420 ca        1 418     -0.084500
     10 C5          6.9360    1.8640   -5.2440 ca        1 418     -0.167000
     11 C6          8.0780    1.9040   -4.4360 ca        1 418     -0.084500
     12 C1          7.9840    1.7260   -3.0630 ca        1 418     -0.182000
     13 C7          7.0510    1.9510   -6.7220 c3        1 418     -0.114000
     14 C9          6.8130    0.5540   -7.3350 c3        1 418      0.009000
     15 N1          7.7270   -0.4510   -6.8410 n         1 418     -0.335000
     16 C10         7.2380   -1.7460   -6.6590 c2        1 418      0.389000
     17 O4          6.3450   -2.2820   -7.3490 o         1 418     -0.438000
     18 O23         7.8880   -2.4490   -5.6940 os        1 418     -0.247000
     19 C40         7.4000   -3.7990   -5.4560 c3        1 418      0.034000
     20 C41         8.3850   -4.4250   -4.5360 c2        1 418     -0.209000
     21 C42         8.1810   -4.5460   -3.2260 c2        1 418     -0.153000
     22 C11         6.9590    0.6590   -8.8660 c2        1 418      0.264000
     23 O8          7.5690    1.5120   -9.4910 o         1 418     -0.196000
     24 N2          6.2400   -0.4120   -9.6330 n4        1 418     -0.117000
     25 C12         6.9940   -0.9290  -10.8080 c3        1 418     -0.117000
     26 C13         6.6890   -0.1930  -12.1060 c3        1 418     -0.187000
     27 C15         5.2720   -0.4110  -12.5970 c3        1 418     -0.182000
     28 C14         4.4240    0.8480  -12.5760 c3        1 418     -0.027000
     29 O1          4.0090    1.0480  -11.2120 os        1 418     -0.252000
     30 C32         3.0890    2.0570  -11.0080 ca        1 418      0.165000
     31 C33         2.7550    2.9980  -11.9880 ca        1 418     -0.248000
     32 C34         1.8250    3.9980  -11.6990 ca        1 418     -0.009000
     33 C35         1.2310    4.0770  -10.4470 ca        1 418     -0.250000
     34 C36         1.5660    3.1310   -9.4620 ca        1 418      0.179000
     35 O13         1.0380    3.1790   -8.2020 oh        1 418     -0.223000
     36 C37         2.4930    2.0990   -9.7250 ca        1 418     -0.195000
     37 C38         2.8210    1.1070   -8.7010 c2        1 418      0.408000
     38 O11         3.9020    0.5140   -8.5280 o         1 418     -0.475000
     39 O12         1.8100    0.8210   -7.8390 os        1 418     -0.226000
     40 C39         2.0920   -0.1160   -6.7930 c3        1 418     -0.069000
     41 C26         5.5290    0.6660   -0.4970 ca        1 418      0.076000
     42 C27         4.3440    1.3990   -0.2670 ca        1 418     -0.136000
     43 C28         3.2470    0.7970    0.3420 ca        1 418     -0.091000
     44 C29         3.2960   -0.5420    0.7270 ca        1 418     -0.139000
     45 C30         4.4500   -1.2860    0.4980 ca        1 418     -0.068000
     46 C25         5.5650   -0.6950   -0.1100 ca        1 418     -0.136000
     47 C31         6.7330   -1.5590   -0.3420 c2        1 418      0.356000
     48 O9          6.7530   -2.7180   -0.7700 o         1 418     -0.362000
     49 O10         7.9470   -1.0150   -0.0340 oh        1 418     -0.324000
     50 H3          4.5740    1.3810   -2.8220 ha        1 418      0.148500
     51 H4          4.7740    1.7040   -5.2630 ha        1 418      0.133500
     52 H6          9.0660    2.0770   -4.8900 ha        1 418      0.133500
     53 H1          8.8990    1.7600   -2.4510 ha        1 418      0.148500
     54 H71         8.0570    2.3400   -7.0300 hc        1 418      0.119500
     55 H72         6.2740    2.6430   -7.1420 hc        1 418      0.119500
     56 H9          5.7320    0.2620   -7.1200 h1        1 418      0.162000
     57 HN1         8.3880   -0.1310   -6.1600 hn        1 418      0.260000
     58 H401        7.3430   -4.3390   -6.4370 h1        1 418      0.104500
     59 H402        6.3750   -3.7110   -5.0110 h1        1 418      0.104500
     60 H41         9.3030   -4.7940   -5.0200 ha        1 418      0.135000
     61 H421        7.2880   -4.1620   -2.7090 ha        1 418      0.133000
     62 H422        8.9080   -5.0510   -2.5730 ha        1 418      0.133000
     63 HN2         6.0180   -1.1920   -8.9870 hn        1 418      0.293500
     64 H121        8.0960   -0.8450  -10.5830 hx        1 418      0.138500
     65 H122        6.7330   -2.0220  -10.9190 hx        1 418      0.138500
     66 H131        6.9040    0.9020  -11.9800 hc        1 418      0.125000
     67 H132        7.4160   -0.5840  -12.8700 hc        1 418      0.125000
     68 H151        4.7590   -1.2140  -12.0040 hc        1 418      0.113000
     69 H152        5.3040   -0.7630  -13.6650 hc        1 418      0.113000
     70 H141        5.0090    1.7430  -12.9160 h1        1 418      0.103500
     71 H142        3.5140    0.7160  -13.2210 h1        1 418      0.103500
     72 H33         3.2120    2.9670  -12.9870 ha        1 418      0.154000
     73 H34         1.5640    4.7350  -12.4760 ha        1 418      0.156000
     74 H35         0.5020    4.8690  -10.2220 ha        1 418      0.157000
     75 H13         0.3850    3.8980   -8.1700 ho        1 418      0.238000
     76 H391        2.9690    0.2310   -6.1950 h1        1 418      0.098667
     77 H392        1.1530   -0.1130   -6.1840 h1        1 418      0.098667
     78 H393        2.2980   -1.1200   -7.2330 h1        1 418      0.098667
     79 H27         4.2930    2.4610   -0.5580 ha        1 418      0.156000
     80 H28         2.3320    1.3880    0.5220 ha        1 418      0.161000
     81 H29         2.4270   -1.0120    1.2130 ha        1 418      0.150000
     82 H30         4.4960   -2.3490    0.7880 ha        1 418      0.157000
     83 H411        7.5220    1.0610   -0.6350 hn        1 418      0.236000
     84 H12         8.6460   -1.6760   -0.1760 ho        1 418      0.252000
     85 H22         5.3320   -0.0070   -9.9450 hn        1 418      0.293500
@<TRIPOS>BOND
     1    1    2 1   
     2    2    3 1   
     3    4    5 1   
     4    6    7 1   
     5    6   41 1   
     6    6   83 1   
     7    7    8 1   
     8    7   12 1   
     9    8    9 1   
    10    8   50 1   
    11    9   10 1   
    12    9   51 1   
    13   10   11 1   
    14   10   13 1   
    15   11   12 1   
    16   11   52 1   
    17   12   53 1   
    18   13   14 1   
    19   13   54 1   
    20   13   55 1   
    21   14   15 1   
    22   14   22 1   
    23   14   56 1   
    24   15   16 1   
    25   15   57 1   
    26   16   17 1   
    27   16   18 1   
    28   18   19 1   
    29   19   20 1   
    30   19   58 1   
    31   19   59 1   
    32   20   21 1   
    33   20   60 1   
    34   21   61 1   
    35   21   62 1   
    36   22   23 1   
    37   22   24 1   
    38   24   25 1   
    39   24   63 1   
    40   24   85 1   
    41   25   26 1   
    42   25   64 1   
    43   25   65 1   
    44   26   27 1   
    45   26   66 1   
    46   26   67 1   
    47   27   28 1   
    48   27   68 1   
    49   27   69 1   
    50   28   29 1   
    51   28   70 1   
    52   28   71 1   
    53   29   30 1   
    54   30   31 1   
    55   30   36 1   
    56   31   32 1   
    57   31   72 1   
    58   32   33 1   
    59   32   73 1   
    60   33   34 1   
    61   33   74 1   
    62   34   35 1   
    63   34   36 1   
    64   35   75 1   
    65   36   37 1   
    66   37   38 1   
    67   37   39 1   
    68   39   40 1   
    69   40   76 1   
    70   40   77 1   
    71   40   78 1   
    72   41   42 1   
    73   41   46 1   
    74   42   43 1   
    75   42   79 1   
    76   43   44 1   
    77   43   80 1   
    78   44   45 1   
    79   44   81 1   
    80   45   46 1   
    81   45   82 1   
    82   46   47 1   
    83   47   48 1   
    84   47   49 1   
    85   49   84 1   
@<TRIPOS>SUBSTRUCTURE
     1 418         1 TEMP              0 ****  ****    0 ROOT
