@<TRIPOS>MOLECULE
418
   82    77     1     0     0
SMALL
bcc


@<TRIPOS>ATOM
      1 O6          3.9370   -2.8630    6.0960 o         1 418     -0.532500
      2 C24         3.9010   -1.9360    5.2730 c2        1 418      0.370000
      3 O7          4.8540   -1.1010    5.2150 o         1 418     -0.532500
      4 C8          2.7630   -1.8400    4.3070 c2        1 418      0.259000
      5 O5          2.8640   -2.3520    3.1630 o         1 418     -0.410000
      6 N4          1.4590   -1.1450    4.7280 n         1 418     -0.249000
      7 C2          0.3750   -1.0790    3.8360 c2        1 418      0.118000
      8 C3          0.5630   -0.6090    2.5550 c1        1 418     -0.117000
      9 C4         -0.5120   -0.5340    1.6780 c1        1 418     -0.121000
     10 C5         -1.7760   -0.9320    2.0910 c1        1 418     -0.146000
     11 C6         -1.9650   -1.4080    3.3910 c1        1 418     -0.094000
     12 C1         -0.9010   -1.4810    4.2550 c2        1 418     -0.137000
     13 C7         -2.9400   -1.0170    1.0500 c3        1 418     -0.104000
     14 C9         -3.0770    0.3280    0.3290 c3        1 418      0.029000
     15 N1         -4.1260    1.0750    0.9220 n         1 418     -0.375000
     16 C10        -3.8910    2.3950    1.3740 c2        1 418      0.397000
     17 O4         -2.8950    2.9350    1.1000 o         1 418     -0.445000
     18 O23        -4.8830    3.0780    2.1150 os        1 418     -0.262000
     19 C40        -4.3680    4.1420    2.9230 c3        1 418     -0.027000
     20 C41        -5.4410    5.1860    3.1320 c2        1 418     -0.233000
     21 C42        -5.1280    6.3610    3.6740 c1        1 418     -0.194000
     22 C11        -3.3960    0.0900   -1.1450 c2        1 418      0.297000
     23 O8         -4.5480   -0.1310   -1.4910 o         1 418     -0.388000
     24 N2         -2.3390    0.1610   -2.1410 n         1 418     -0.328000
     25 C12        -1.9860   -1.0150   -2.9040 c3        1 418     -0.035000
     26 C13        -0.4380   -1.0680   -3.0870 c3        1 418     -0.200000
     27 C15        -0.0990   -1.8150   -4.4090 c3        1 418     -0.157000
     28 C14         1.4000   -2.2680   -4.3860 c3        1 418     -0.022000
     29 O1          1.8760   -2.4680   -5.7730 os        1 418     -0.206000
     30 C32         3.1170   -1.8360   -6.0530 c2        1 418      0.175000
     31 C33         4.1740   -2.0080   -5.2020 c2        1 418     -0.245000
     32 C34         5.4010   -1.4220   -5.4920 c1        1 418     -0.035000
     33 C35         5.5550   -0.6650   -6.6430 c1        1 418     -0.268000
     34 C36         4.4850   -0.4930   -7.5040 c1        1 418      0.147000
     35 O13         4.6060    0.3540   -8.5880 o         1 418     -0.244000
     36 C37         3.2670   -1.0750   -7.2140 c2        1 418     -0.166000
     37 C38         2.1110   -0.9280   -8.1780 c2        1 418      0.383000
     38 O11         2.0450   -1.6230   -9.1170 o         1 418     -0.347000
     39 O12         1.2230    0.1590   -8.0470 os        1 418     -0.262000
     40 C39        -0.1120   -0.1490   -8.3830 c3        1 418     -0.063000
     41 C26         1.3460   -0.5430    6.0720 c2        1 418      0.091000
     42 C27         0.7890   -1.2670    7.1180 c2        1 418     -0.147000
     43 C28         0.6940   -0.6940    8.3870 c1        1 418     -0.150000
     44 C29         1.1590    0.6020    8.6020 c1        1 418     -0.146500
     45 C30         1.7160    1.3240    7.5520 c1        1 418     -0.146500
     46 C25         1.8100    0.7570    6.2920 c1        1 418     -0.082000
     47 C31         2.4510    1.5660    5.1200 c2        1 418      0.364000
     48 O9          1.9090    2.6440    4.7220 o         1 418     -0.584500
     49 O10         3.5380    1.1820    4.6090 o         1 418     -0.584500
     50 H3          1.4610   -0.3260    2.2610 ha        1 418      0.160000
     51 H4         -0.3770   -0.1990    0.7640 ha        1 418      0.109000
     52 H6         -2.8470   -1.7720    3.6620 ha        1 418      0.108000
     53 H1         -1.0370   -1.8240    5.1930 ha        1 418      0.134000
     54 H71        -2.7340   -1.7460    0.3700 hc        1 418      0.087500
     55 H72        -3.7830   -1.2300    1.5160 hc        1 418      0.087500
     56 H9         -2.2130    0.8380    0.4060 h1        1 418      0.106000
     57 HN1        -4.9460    0.7170    0.9940 hn        1 418      0.306000
     58 H401       -3.5850    4.5580    2.4660 h1        1 418      0.153500
     59 H402       -4.0910    3.7890    3.7810 h1        1 418      0.153500
     60 H41        -6.3760    4.9960    2.8680 ha        1 418      0.100000
     61 H421       -4.1830    6.5520    3.9410 DU        1 418      0.192000
     62 H422       -5.8100    7.0280    3.8080 ha        1 418      0.083000
     63 HN2        -1.8820    0.9510   -2.2720 hn        1 418      0.222000
     64 H121       -2.2920   -1.8320   -2.4170 h1        1 418      0.088500
     65 H122       -2.4360   -0.9770   -3.8180 h1        1 418      0.088500
     66 H131       -0.0280   -1.5510   -2.3170 hc        1 418      0.109000
     67 H132       -0.0870   -0.1630   -3.1270 hc        1 418      0.109000
     68 H151       -0.6780   -2.6030   -4.4950 hc        1 418      0.091500
     69 H152       -0.2470   -1.2200   -5.1650 hc        1 418      0.091500
     70 H141        1.4810   -3.1290   -3.8770 h1        1 418      0.090500
     71 H142        1.9560   -1.5660   -3.9420 h1        1 418      0.090500
     72 H33         4.0690   -2.5250   -4.4160 ha        1 418      0.158000
     73 H34         6.1550   -1.5450   -4.8840 ha        1 418      0.136000
     74 H35         6.3930   -0.1440   -6.7860 ha        1 418      0.133000
     75 H13         4.9190    1.1630   -8.3070 ho        1 418      0.219000
     76 H391       -0.6380    0.6830   -8.4290 h1        1 418      0.085333
     77 H392       -0.1350   -0.6130   -9.2840 h1        1 418      0.085333
     78 H393       -0.4910   -0.7370   -7.7030 h1        1 418      0.085333
     79 H27         0.4560   -2.1960    6.9620 ha        1 418      0.176000
     80 H28         0.2990   -1.2050    9.1300 ha        1 418      0.103000
     81 H29         1.0930    1.0020    9.4880 ha        1 418      0.108000
     82 H30         2.0460    2.2470    7.7060 ha        1 418      0.108000
@<TRIPOS>BOND
     1    1    2 1   
     2    2    3 1   
     3    2    4 1   
     4    4    5 1   
     5    4    6 1   
     6    6    7 1   
     7    6   41 1   
     8    7    8 1   
     9    7   12 1   
    10    8   50 1   
    11    9   10 1   
    12    9   51 1   
    13   10   13 1   
    14   11   12 1   
    15   11   52 1   
    16   12   53 1   
    17   13   14 1   
    18   13   54 1   
    19   13   55 1   
    20   14   15 1   
    21   14   22 1   
    22   14   56 1   
    23   15   16 1   
    24   15   57 1   
    25   16   17 1   
    26   16   18 1   
    27   18   19 1   
    28   19   20 1   
    29   19   58 1   
    30   19   59 1   
    31   20   21 1   
    32   20   60 1   
    33   21   62 1   
    34   22   23 1   
    35   22   24 1   
    36   24   25 1   
    37   24   63 1   
    38   25   26 1   
    39   25   64 1   
    40   25   65 1   
    41   26   27 1   
    42   26   66 1   
    43   26   67 1   
    44   27   28 1   
    45   27   68 1   
    46   27   69 1   
    47   28   29 1   
    48   28   70 1   
    49   28   71 1   
    50   29   30 1   
    51   30   31 1   
    52   30   36 1   
    53   31   32 1   
    54   31   72 1   
    55   32   73 1   
    56   33   34 1   
    57   33   74 1   
    58   34   36 1   
    59   35   75 1   
    60   36   37 1   
    61   37   38 1   
    62   37   39 1   
    63   39   40 1   
    64   40   76 1   
    65   40   77 1   
    66   40   78 1   
    67   41   42 1   
    68   41   46 1   
    69   42   43 1   
    70   42   79 1   
    71   43   80 1   
    72   44   45 1   
    73   44   81 1   
    74   45   82 1   
    75   46   47 1   
    76   47   48 1   
    77   47   49 1   
@<TRIPOS>SUBSTRUCTURE
     1 418         1 TEMP              0 ****  ****    0 ROOT
