@<TRIPOS>MOLECULE
418
   84    86     1     0     0
SMALL
bcc


@<TRIPOS>ATOM
      1 O6          0.0000    0.0000    0.0000 o         1 418     -0.712300
      2 C24         1.3410    0.0000    0.0000 c         1 418      0.922600
      3 O7          2.0870    0.0000    0.9580 o         1 418     -0.712300
      4 C8          1.8450   -0.0850   -1.4110 c         1 418      0.528100
      5 O5          0.9650   -0.1360   -2.2650 o         1 418     -0.555100
      6 N4          3.2550   -0.0450   -1.6440 n         1 418      0.108800
      7 C2          3.7600   -0.1230   -2.9420 ca        1 418      0.025600
      8 C3          3.0630   -0.8290   -3.9220 ca        1 418     -0.125500
      9 C4          3.5670   -0.9060   -5.2200 ca        1 418     -0.076000
     10 C5          4.7640   -0.2750   -5.5220 ca        1 418     -0.271300
     11 C6          5.4680    0.4300   -4.5590 ca        1 418     -0.076000
     12 C1          4.9630    0.5080   -3.2610 ca        1 418     -0.125500
     13 C7          5.3110   -0.3590   -6.9260 c3        1 418      0.042900
     14 C9          6.2320   -1.5660   -7.1320 c3        1 418     -0.090500
     15 N1          7.3660   -1.5450   -6.2430 ny        1 418      0.144200
     16 C10         7.6610   -2.5550   -5.3490 c         1 418      0.481100
     17 O4          7.0130   -3.5860   -5.1950 o         1 418     -0.427000
     18 O23         8.7930   -2.2400   -4.6520 os        1 418     -0.399900
     19 C40         9.2190   -3.2050   -3.6830 c3        1 418      0.287600
     20 C41        10.4590   -2.7050   -3.0200 c2        1 418     -0.238200
     21 C42        10.5650   -2.4790   -1.7060 c2        1 418     -0.051000
     22 C11         6.7760   -1.5800   -8.5560 c         1 418      0.081100
     23 O8          7.9750   -1.4840   -8.8150 o         1 418     -0.564100
     24 N2          5.7720   -1.7630   -9.4960 ny        1 418      0.237200
     25 C12         6.0210   -1.8640  -10.9150 c3        1 418     -0.027200
     26 C13         5.9820   -0.5070  -11.6130 c3        1 418     -0.034400
     27 C15         4.6360    0.1990  -11.4490 c3        1 418     -0.054400
     28 C14         4.6080    1.5310  -12.1870 c3        1 418      0.230400
     29 O1          3.3320    2.1280  -12.0080 os        1 418     -0.326900
     30 C32         3.2870    3.4990  -11.9980 ca        1 418      0.181100
     31 C33         3.7230    4.1900  -13.1240 ca        1 418     -0.191000
     32 C34         3.6850    5.5850  -13.1350 ca        1 418     -0.019000
     33 C35         3.2120    6.2790  -12.0220 ca        1 418     -0.198000
     34 C36         2.7770    5.5800  -10.8970 ca        1 418      0.212100
     35 O13         2.3190    6.2790   -9.8210 oh        1 418     -0.479100
     36 C37         2.8140    4.1850  -10.8850 ca        1 418     -0.188600
     37 C38         2.3590    3.4540   -9.7080 c         1 418      0.740700
     38 O11         1.1960    3.0760   -9.5290 o         1 418     -0.540000
     39 O12         3.3830    3.2380   -8.8280 os        1 418     -0.420900
     40 C39         3.0610    2.5260   -7.6290 c3        1 418      0.249700
     41 C26         4.1580    0.0750   -0.5040 ca        1 418     -0.047400
     42 C27         4.4900    1.3420   -0.1140 ca        1 418     -0.119000
     43 C28         5.3510    1.4810    0.9740 ca        1 418     -0.100000
     44 C29         5.8420    0.3500    1.6240 ca        1 418     -0.119000
     45 C30         5.4720   -0.9220    1.1870 ca        1 418     -0.039000
     46 C25         4.6110   -1.0610    0.0980 ca        1 418     -0.084600
     47 C31         4.2440   -2.4040   -0.3340 c         1 418      0.965200
     48 O9          3.1770   -2.7150   -0.8670 o         1 418     -0.791800
     49 O10         5.2250   -3.3130   -0.0860 o         1 418     -0.791800
     50 H3          2.1360   -1.3310   -3.6710 ha        1 418      0.152500
     51 H4          3.0290   -1.4530   -5.9840 ha        1 418      0.088500
     52 H6          6.4020    0.9180   -4.8120 ha        1 418      0.088500
     53 H1          5.4830    1.0930   -2.5120 ha        1 418      0.152500
     54 H71         5.8680    0.5450   -7.1380 hc        1 418      0.031700
     55 H72         4.4820   -0.4300   -7.6200 hc        1 418      0.031700
     56 H9          5.6660   -2.4740   -6.9620 hx        1 418      0.100700
     57 HN1         8.1750   -1.4390   -6.8220 hn        1 418      0.287800
     58 H401        9.4250   -4.1480   -4.1750 h1        1 418      0.035700
     59 H402        8.4410   -3.3440   -2.9420 h1        1 418      0.035700
     60 H41        11.3220   -2.5150   -3.6460 ha        1 418      0.105000
     61 H421        9.7180   -2.6610   -1.0550 ha        1 418      0.097500
     62 H422       11.4970   -2.1150   -1.2920 ha        1 418      0.097500
     63 HN2         5.1410   -0.9950   -9.3790 hn        1 418      0.224300
     64 H121        5.2700   -2.5060  -11.3580 hx        1 418      0.079700
     65 H122        6.9970   -2.3080  -11.0680 hx        1 418      0.079700
     66 H131        6.7600    0.1220  -11.1990 hc        1 418      0.048700
     67 H132        6.1750   -0.6520  -12.6700 hc        1 418      0.048700
     68 H151        4.4550    0.3750  -10.3960 hc        1 418      0.023200
     69 H152        3.8520   -0.4380  -11.8410 hc        1 418      0.023200
     70 H141        5.3750    2.1830  -11.7860 h1        1 418      0.007200
     71 H142        4.7870    1.3650  -13.2420 h1        1 418      0.007200
     72 H33         3.9840    3.6480  -14.0250 ha        1 418      0.121000
     73 H34         4.0230    6.1280  -14.0090 ha        1 418      0.108000
     74 H35         3.1890    7.3620  -12.0290 ha        1 418      0.122000
     75 H13         1.7670    6.9840  -10.1150 ho        1 418      0.418000
     76 H391        3.9430    2.4550   -7.0030 h1        1 418      0.002700
     77 H392        2.7170    1.5300   -7.8810 h1        1 418      0.002700
     78 H393        2.2810    3.0530   -7.0940 h1        1 418      0.002700
     79 H27         4.0980    2.2090   -0.6330 ha        1 418      0.105000
     80 H28         5.6390    2.4690    1.3130 ha        1 418      0.091000
     81 H29         6.5100    0.4590    2.4690 ha        1 418      0.094000
     82 H30         5.8180   -1.7990    1.7200 ha        1 418      0.129000
     83 H12         7.2830   -0.7070   -5.7020 hn        1 418      0.287800
     84 H22         5.3020   -2.6090   -9.2370 hn        1 418      0.224300
@<TRIPOS>BOND
     1    1    2 1   
     2    2    3 1   
     3    2    4 1   
     4    4    5 2   
     5    4    6 1   
     6    6    7 1   
     7    6   41 1   
     8    7    8 ar  
     9    7   12 ar  
    10    8    9 ar  
    11    8   50 1   
    12    9   10 ar  
    13    9   51 1   
    14   10   11 ar  
    15   10   13 1   
    16   11   12 ar  
    17   11   52 1   
    18   12   53 1   
    19   13   14 1   
    20   13   54 1   
    21   13   55 1   
    22   14   15 1   
    23   14   22 1   
    24   14   56 1   
    25   15   16 1   
    26   15   57 1   
    27   15   83 1   
    28   16   17 2   
    29   16   18 1   
    30   18   19 1   
    31   19   20 1   
    32   19   58 1   
    33   19   59 1   
    34   20   21 2   
    35   20   60 1   
    36   21   61 1   
    37   21   62 1   
    38   22   23 2   
    39   22   24 1   
    40   24   25 1   
    41   24   63 1   
    42   24   84 1   
    43   25   26 1   
    44   25   64 1   
    45   25   65 1   
    46   26   27 1   
    47   26   66 1   
    48   26   67 1   
    49   27   28 1   
    50   27   68 1   
    51   27   69 1   
    52   28   29 1   
    53   28   70 1   
    54   28   71 1   
    55   29   30 1   
    56   30   31 ar  
    57   30   36 ar  
    58   31   32 ar  
    59   31   72 1   
    60   32   33 ar  
    61   32   73 1   
    62   33   34 ar  
    63   33   74 1   
    64   34   35 1   
    65   34   36 ar  
    66   35   75 1   
    67   36   37 1   
    68   37   38 2   
    69   37   39 1   
    70   39   40 1   
    71   40   76 1   
    72   40   77 1   
    73   40   78 1   
    74   41   42 ar  
    75   41   46 ar  
    76   42   43 ar  
    77   42   79 1   
    78   43   44 ar  
    79   43   80 1   
    80   44   45 ar  
    81   44   81 1   
    82   45   46 ar  
    83   45   82 1   
    84   46   47 1   
    85   47   48 1   
    86   47   49 1   
@<TRIPOS>SUBSTRUCTURE
     1 418         1 TEMP              0 ****  ****    0 ROOT
