@<TRIPOS>MOLECULE
418
   82    84     1     0     0
SMALL
bcc


@<TRIPOS>ATOM
      1 O6         -4.2420   12.0530   -1.9290 o         1 418     -0.793800
      2 C24        -4.6470   10.9020   -1.6590 c         1 418      0.897600
      3 O7         -5.1280   10.0560   -2.4580 o         1 418     -0.793800
      4 C8         -4.6500   10.4610   -0.1540 c         1 418      0.585100
      5 O5         -5.5260   10.8800    0.6210 o         1 418     -0.638100
      6 N4         -3.7080    9.4830    0.2890 n         1 418     -0.292200
      7 C2         -3.9710    8.6030    1.3450 ca        1 418      0.147600
      8 C3         -5.2980    8.4020    1.8170 ca        1 418     -0.181000
      9 C4         -5.5460    7.6140    2.9290 ca        1 418     -0.099500
     10 C5         -4.5060    6.9690    3.6090 ca        1 418     -0.200300
     11 C6         -3.2180    7.0430    3.0700 ca        1 418     -0.099500
     12 C1         -2.9500    7.8300    1.9600 ca        1 418     -0.181000
     13 C7         -4.7540    6.3760    4.9490 c3        1 418     -0.012100
     14 C9         -4.5700    7.4960    5.9960 c3        1 418      0.014700
     15 N1         -3.1770    7.7810    6.2790 n         1 418     -0.508900
     16 C10        -2.8010    9.1250    6.3690 c         1 418      0.739100
     17 O4         -3.5200   10.0650    6.7570 o         1 418     -0.608000
     18 O23        -1.4680    9.3290    6.1250 os        1 418     -0.442900
     19 C40        -1.1290   10.6090    5.5280 c3        1 418      0.148600
     20 C41         0.2530   10.9300    5.9770 c2        1 418     -0.190200
     21 C42         1.2480   11.0760    5.1050 c2        1 418     -0.198000
     22 C11        -5.3580    7.1820    7.2900 c         1 418      0.655100
     23 O8         -5.9190    6.0850    7.4850 o         1 418     -0.634100
     24 N2         -5.4230    8.2140    8.2100 n         1 418     -0.555900
     25 C12        -6.4480    8.2860    9.2090 c3        1 418      0.092000
     26 C13        -7.7510    8.9650    8.7730 c3        1 418     -0.108400
     27 C15        -7.5210   10.2600    8.0260 c3        1 418     -0.118400
     28 C14        -8.8110   11.0500    7.8830 c3        1 418      0.136400
     29 O1         -8.7810   11.8800    6.7160 os        1 418     -0.325900
     30 C32        -9.1390   11.2410    5.5360 ca        1 418      0.182100
     31 C33       -10.4000   10.6490    5.4150 ca        1 418     -0.249000
     32 C34       -10.7770   10.0850    4.1950 ca        1 418     -0.068000
     33 C35        -9.9140   10.0950    3.1150 ca        1 418     -0.208000
     34 C36        -8.6320   10.6890    3.2340 ca        1 418      0.232100
     35 O13        -7.8910   10.6270    2.1010 oh        1 418     -0.480100
     36 C37        -8.2400   11.2890    4.4500 ca        1 418     -0.225600
     37 C38        -6.9410   11.9700    4.5950 c         1 418      0.644700
     38 O11        -6.7000   13.0320    5.1760 o         1 418     -0.539000
     39 O12        -5.9280   11.3040    3.9760 os        1 418     -0.437900
     40 C39        -4.6250   11.9030    3.9780 c3        1 418      0.109700
     41 C26        -2.4110    9.4960   -0.3100 ca        1 418      0.070600
     42 C27        -2.3100    9.0940   -1.6650 ca        1 418     -0.130000
     43 C28        -1.0850    9.0990   -2.3200 ca        1 418     -0.151000
     44 C29         0.0690    9.4950   -1.6470 ca        1 418     -0.167000
     45 C30        -0.0180    9.8840   -0.3160 ca        1 418     -0.114000
     46 C25        -1.2400    9.8970    0.3720 ca        1 418     -0.115600
     47 C31        -1.1600   10.3070    1.8300 c         1 418      0.908200
     48 O9         -2.0460   11.0290    2.3650 o         1 418     -0.846300
     49 O10        -0.1440    9.9080    2.4850 o         1 418     -0.846300
     50 H3         -6.1470    8.9090    1.3290 ha        1 418      0.160500
     51 H4         -6.5770    7.5200    3.3010 ha        1 418      0.108500
     52 H6         -2.3920    6.4970    3.5500 ha        1 418      0.108500
     53 H1         -1.9080    7.9020    1.6040 ha        1 418      0.160500
     54 H71        -5.8050    5.9920    5.0330 hc        1 418      0.054200
     55 H72        -4.0660    5.5180    5.1570 hc        1 418      0.054200
     56 H9         -5.0680    8.4280    5.5640 h1        1 418      0.096700
     57 HN1        -2.5260    7.2070    5.7810 hn        1 418      0.316500
     58 H401       -1.1960   10.4710    4.4020 h1        1 418      0.110200
     59 H402       -1.8520   11.3960    5.8710 h1        1 418      0.110200
     60 H41         0.3900   11.0410    7.0630 ha        1 418      0.092000
     61 H421        2.2630   11.3530    5.4170 ha        1 418      0.131000
     62 H422        1.0930   10.9180    4.0200 ha        1 418      0.131000
     63 HN2        -5.0150    9.0890    7.9430 hn        1 418      0.338500
     64 H121       -6.0240    8.8580   10.0850 h1        1 418      0.048200
     65 H122       -6.6920    7.2400    9.5520 h1        1 418      0.048200
     66 H131       -8.3590    9.1580    9.6950 hc        1 418      0.038200
     67 H132       -8.3370    8.2620    8.1240 hc        1 418      0.038200
     68 H151       -7.1110   10.0490    7.0010 hc        1 418      0.068200
     69 H152       -6.7570   10.8850    8.5570 hc        1 418      0.068200
     70 H141       -8.9240   11.7930    8.7170 h1        1 418      0.041700
     71 H142       -9.7010   10.3690    7.8670 h1        1 418      0.041700
     72 H33       -11.0890   10.6400    6.2680 ha        1 418      0.126000
     73 H34       -11.7710    9.6240    4.0960 ha        1 418      0.118000
     74 H35       -10.1900    9.6460    2.1510 ha        1 418      0.152000
     75 H13        -6.9740   10.9500    2.2330 ho        1 418      0.500000
     76 H391       -4.1460   11.7030    4.9680 h1        1 418      0.077033
     77 H392       -4.6970   12.9990    3.7880 h1        1 418      0.077033
     78 H393       -4.0880   11.3750    3.1400 h1        1 418      0.077033
     79 H27        -3.2250    8.8160   -2.2190 ha        1 418      0.170000
     80 H28        -1.0360    8.8000   -3.3760 ha        1 418      0.104000
     81 H29         1.0370    9.5020   -2.1650 ha        1 418      0.096000
     82 H30         0.8850   10.1810    0.2410 ha        1 418      0.137000
@<TRIPOS>BOND
     1    1    2 1   
     2    2    3 1   
     3    2    4 1   
     4    4    5 2   
     5    4    6 1   
     6    6    7 1   
     7    6   41 1   
     8    7    8 ar  
     9    7   12 ar  
    10    8    9 ar  
    11    8   50 1   
    12    9   10 ar  
    13    9   51 1   
    14   10   11 ar  
    15   10   13 1   
    16   11   12 ar  
    17   11   52 1   
    18   12   53 1   
    19   13   14 1   
    20   13   54 1   
    21   13   55 1   
    22   14   15 1   
    23   14   22 1   
    24   14   56 1   
    25   15   16 1   
    26   15   57 1   
    27   16   17 2   
    28   16   18 1   
    29   18   19 1   
    30   19   20 1   
    31   19   58 1   
    32   19   59 1   
    33   20   21 2   
    34   20   60 1   
    35   21   61 1   
    36   21   62 1   
    37   22   23 2   
    38   22   24 1   
    39   24   25 1   
    40   24   63 1   
    41   25   26 1   
    42   25   64 1   
    43   25   65 1   
    44   26   27 1   
    45   26   66 1   
    46   26   67 1   
    47   27   28 1   
    48   27   68 1   
    49   27   69 1   
    50   28   29 1   
    51   28   70 1   
    52   28   71 1   
    53   29   30 1   
    54   30   31 ar  
    55   30   36 ar  
    56   31   32 ar  
    57   31   72 1   
    58   32   33 ar  
    59   32   73 1   
    60   33   34 ar  
    61   33   74 1   
    62   34   35 1   
    63   34   36 ar  
    64   35   75 1   
    65   36   37 1   
    66   37   38 2   
    67   37   39 1   
    68   39   40 1   
    69   40   76 1   
    70   40   77 1   
    71   40   78 1   
    72   41   42 ar  
    73   41   46 ar  
    74   42   43 ar  
    75   42   79 1   
    76   43   44 ar  
    77   43   80 1   
    78   44   45 ar  
    79   44   81 1   
    80   45   46 ar  
    81   45   82 1   
    82   46   47 1   
    83   47   48 1   
    84   47   49 1   
@<TRIPOS>SUBSTRUCTURE
     1 418         1 TEMP              0 ****  ****    0 ROOT
