@<TRIPOS>MOLECULE
419
   83    86     1     0     0
SMALL
bcc


@<TRIPOS>ATOM
      1 O6         -0.0420   -1.0400   -0.4480 o         1 419     -0.390100
      2 C5          0.7020   -0.1890    0.0210 c         1 419      0.510100
      3 C3          0.8700    0.0770    1.5300 c3        1 419      0.061500
      4 N2          0.0090   -0.8620    2.3370 ny        1 419     -0.760000
      5 C1         -0.4120   -0.2640    3.6340 c3        1 419      0.074100
      6 C4          2.3410   -0.0250    1.9190 c3        1 419     -0.159100
      7 N7          1.5000    0.6720   -0.8930 ny        1 419     -0.665800
      8 C8          1.0400    0.6800   -2.3460 c3        1 419      0.073500
      9 C9          1.1080    2.1320   -2.9180 c3        1 419     -0.057000
     10 C10         2.5180    2.6930   -2.8520 c3        1 419     -0.118767
     11 C11         0.6460    2.0980   -4.3700 c3        1 419     -0.118767
     12 C12         0.1510    3.0250   -2.1370 c3        1 419     -0.118767
     13 C13         1.9490   -0.2980   -3.1380 c         1 419      0.652100
     14 O14         3.1650   -0.3550   -2.8120 o         1 419     -0.670100
     15 N15         1.4470   -1.0710   -4.1320 n         1 419     -0.420800
     16 C16         2.3010   -1.9810   -4.8950 c3        1 419      0.077700
     17 C19         0.0380   -1.2470   -4.4740 c3        1 419      0.073000
     18 C18        -0.0570   -2.3950   -5.4930 c3        1 419     -0.089400
     19 C17         1.3610   -2.9170   -5.7120 c3        1 419     -0.062700
     20 C20         1.8380   -2.8830   -7.1580 c3        1 419     -0.082400
     21 C21         3.2120   -2.2300   -7.1620 c3        1 419     -0.095400
     22 C22         3.2080   -1.2750   -5.9550 c3        1 419      0.105500
     23 N25         4.5690   -0.9420   -5.4360 ny        1 419     -0.698800
     24 C26         5.0610    0.4220   -5.9400 c         1 419      0.569100
     25 O27         4.4900    1.3670   -5.4230 o         1 419     -0.439100
     26 C28         6.1350    0.3760   -7.0170 c3        1 419      0.016900
     27 C29         6.7220    1.7370   -7.2100 ca        1 419     -0.155800
     28 C30         6.2140    2.5540   -8.2310 ca        1 419     -0.119000
     29 C31         6.7740    3.8070   -8.4680 ca        1 419     -0.112250
     30 C32         7.8440    4.2550   -7.6900 ca        1 419     -0.084000
     31 C33         8.3520    3.4450   -6.6740 ca        1 419     -0.112250
     32 C34         7.7950    2.1890   -6.4340 ca        1 419     -0.119000
     33 C35         7.1530   -0.6840   -6.7360 ca        1 419     -0.155800
     34 C36         7.6910   -1.4030   -7.8100 ca        1 419     -0.119000
     35 C37         8.6840   -2.3580   -7.5850 ca        1 419     -0.112250
     36 C38         9.1430   -2.6020   -6.2910 ca        1 419     -0.084000
     37 C39         8.6090   -1.8850   -5.2170 ca        1 419     -0.112250
     38 C40         7.6210   -0.9290   -5.4360 ca        1 419     -0.119000
     39 H3          0.4910    1.1310    1.7400 hx        1 419      0.156700
     40 HN2         0.5430   -1.7260    2.5250 hn        1 419      0.479800
     41 H1          0.4920    0.0420    4.2290 hx        1 419      0.134033
     42 H1A        -0.9920   -1.0420    4.2120 hx        1 419      0.134033
     43 H1B        -1.0710    0.6290    3.4510 hx        1 419      0.134033
     44 H4          2.4680    0.0430    3.0330 hc        1 419      0.109367
     45 H4A         2.7980   -0.9870    1.5750 hc        1 419      0.109367
     46 H4B         2.9130    0.8330    1.4820 hc        1 419      0.109367
     47 HN7         2.4930    0.3490   -0.8840 hn        1 419      0.496800
     48 H8         -0.0370    0.3350   -2.3700 hx        1 419      0.133700
     49 H10         2.5460    3.6840   -3.3760 hc        1 419      0.068033
     50 H10A        2.8530    2.8620   -1.8010 hc        1 419      0.068033
     51 H10B        3.2460    2.0150   -3.3650 hc        1 419      0.068033
     52 H11        -0.3990    1.7120   -4.4470 hc        1 419      0.068033
     53 H11A        1.3320    1.4830   -4.9980 hc        1 419      0.068033
     54 H11B        0.6570    3.1420   -4.7800 hc        1 419      0.068033
     55 H12         0.0020    3.9840   -2.7010 hc        1 419      0.068033
     56 H12A        0.5550    3.3070   -1.1340 hc        1 419      0.068033
     57 H12B       -0.8490    2.5440   -2.0190 hc        1 419      0.068033
     58 H16         2.9300   -2.5780   -4.1730 h1        1 419      0.089700
     59 H19        -0.3650   -0.2940   -4.9160 h1        1 419      0.068200
     60 H19A       -0.5470   -1.4950   -3.5450 h1        1 419      0.068200
     61 H18        -0.5120   -2.0230   -6.4460 hc        1 419      0.095700
     62 H18A       -0.7200   -3.2070   -5.0990 hc        1 419      0.095700
     63 H17         1.4480   -3.9610   -5.3090 hc        1 419      0.100700
     64 H20         1.1310   -2.3010   -7.8060 hc        1 419      0.092700
     65 H20A        1.8950   -3.9190   -7.5830 hc        1 419      0.092700
     66 H21         4.0110   -3.0120   -7.0670 hc        1 419      0.085700
     67 H21A        3.3920   -1.6690   -8.1130 hc        1 419      0.085700
     68 H22         2.7290   -0.2970   -6.2690 hx        1 419      0.113700
     69 HN25        5.2460   -1.6660   -5.7180 hn        1 419      0.469300
     70 H28         5.5730    0.0930   -7.9650 hc        1 419      0.106700
     71 H30         5.3820    2.2050   -8.8620 ha        1 419      0.134000
     72 H31         6.3790    4.4400   -9.2790 ha        1 419      0.161750
     73 H32         8.2920    5.2430   -7.8860 ha        1 419      0.168000
     74 H33         9.2040    3.7910   -6.0680 ha        1 419      0.161750
     75 H34         8.2200    1.5470   -5.6470 ha        1 419      0.134000
     76 H36         7.3540   -1.2000   -8.8390 ha        1 419      0.134000
     77 H37         9.1150   -2.9090   -8.4380 ha        1 419      0.161750
     78 H38         9.9370   -3.3470   -6.1170 ha        1 419      0.168000
     79 H39         8.9890   -2.0620   -4.1980 ha        1 419      0.161750
     80 H40         7.2500   -0.3290   -4.5910 ha        1 419      0.134000
     81 H221       -0.8320   -1.1210    1.7960 hn        1 419      0.479800
     82 H72         1.4820    1.6460   -0.5470 hn        1 419      0.496800
     83 H252        4.5340   -0.9090   -4.4060 hn        1 419      0.469300
@<TRIPOS>BOND
     1    1    2 2   
     2    2    3 1   
     3    2    7 1   
     4    3    4 1   
     5    3    6 1   
     6    3   39 1   
     7    4    5 1   
     8    4   40 1   
     9    4   81 1   
    10    5   41 1   
    11    5   42 1   
    12    5   43 1   
    13    6   44 1   
    14    6   45 1   
    15    6   46 1   
    16    7    8 1   
    17    7   47 1   
    18    7   82 1   
    19    8    9 1   
    20    8   13 1   
    21    8   48 1   
    22    9   10 1   
    23    9   11 1   
    24    9   12 1   
    25   10   49 1   
    26   10   50 1   
    27   10   51 1   
    28   11   52 1   
    29   11   53 1   
    30   11   54 1   
    31   12   55 1   
    32   12   56 1   
    33   12   57 1   
    34   13   14 2   
    35   13   15 1   
    36   15   16 1   
    37   15   17 1   
    38   16   19 1   
    39   16   22 1   
    40   16   58 1   
    41   17   18 1   
    42   17   59 1   
    43   17   60 1   
    44   18   19 1   
    45   18   61 1   
    46   18   62 1   
    47   19   20 1   
    48   19   63 1   
    49   20   21 1   
    50   20   64 1   
    51   20   65 1   
    52   21   22 1   
    53   21   66 1   
    54   21   67 1   
    55   22   23 1   
    56   22   68 1   
    57   23   24 1   
    58   23   69 1   
    59   23   83 1   
    60   24   25 2   
    61   24   26 1   
    62   26   27 1   
    63   26   33 1   
    64   26   70 1   
    65   27   28 ar  
    66   27   32 ar  
    67   28   29 ar  
    68   28   71 1   
    69   29   30 ar  
    70   29   72 1   
    71   30   31 ar  
    72   30   73 1   
    73   31   32 ar  
    74   31   74 1   
    75   32   75 1   
    76   33   34 ar  
    77   33   38 ar  
    78   34   35 ar  
    79   34   76 1   
    80   35   36 ar  
    81   35   77 1   
    82   36   37 ar  
    83   36   78 1   
    84   37   38 ar  
    85   37   79 1   
    86   38   80 1   
@<TRIPOS>SUBSTRUCTURE
     1 419         1 TEMP              0 ****  ****    0 ROOT
