@<TRIPOS>MOLECULE
419
   83    86     1     0     0
SMALL
bcc


@<TRIPOS>ATOM
      1 O6         -0.0380   -1.0380   -0.4430 o         1 419     -0.390100
      2 C5          0.7100   -0.1920    0.0260 c         1 419      0.510100
      3 C3          0.8840    0.0680    1.5360 c3        1 419      0.061500
      4 N2          0.0220   -0.8700    2.3420 n4        1 419     -0.760000
      5 C1         -0.3940   -0.2750    3.6430 c3        1 419      0.074100
      6 C4          2.3560   -0.0420    1.9210 c3        1 419     -0.159100
      7 N7          1.5100    0.6690   -0.8860 n4        1 419     -0.665800
      8 C8          1.0460    0.6850   -2.3380 c3        1 419      0.073500
      9 C9          1.1190    2.1380   -2.9050 c3        1 419     -0.057000
     10 C10         2.5320    2.6930   -2.8410 c3        1 419     -0.118767
     11 C11         0.6510    2.1130   -4.3550 c3        1 419     -0.118767
     12 C12         0.1690    3.0340   -2.1160 c3        1 419     -0.118767
     13 C13         1.9480   -0.2940   -3.1370 c         1 419      0.652100
     14 O14         3.1650   -0.3580   -2.8140 o         1 419     -0.670100
     15 N15         1.4400   -1.0610   -4.1330 n         1 419     -0.420800
     16 C16         2.2880   -1.9720   -4.9020 c3        1 419      0.077700
     17 C19         0.0290   -1.2290   -4.4710 c3        1 419      0.073000
     18 C18        -0.0740   -2.3720   -5.4950 c3        1 419     -0.089400
     19 C17         1.3410   -2.8990   -5.7210 c3        1 419     -0.062700
     20 C20         1.8140   -2.8600   -7.1680 c3        1 419     -0.082400
     21 C21         3.1910   -2.2140   -7.1720 c3        1 419     -0.095400
     22 C22         3.1960   -1.2650   -5.9610 c3        1 419      0.105500
     23 N25         4.5600   -0.9420   -5.4440 n4        1 419     -0.698800
     24 C26         5.0590    0.4220   -5.9440 c         1 419      0.569100
     25 O27         4.4940    1.3680   -5.4220 o         1 419     -0.439100
     26 C28         6.1290    0.3740   -7.0230 c3        1 419      0.016900
     27 C29         6.7240    1.7320   -7.2120 ca        1 419     -0.155800
     28 C30         6.2180    2.5560   -8.2280 ca        1 419     -0.119000
     29 C31         6.7850    3.8070   -8.4610 ca        1 419     -0.112250
     30 C32         7.8590    4.2450   -7.6840 ca        1 419     -0.084000
     31 C33         8.3650    3.4280   -6.6730 ca        1 419     -0.112250
     32 C34         7.8010    2.1750   -6.4360 ca        1 419     -0.119000
     33 C35         7.1420   -0.6930   -6.7490 ca        1 419     -0.155800
     34 C36         7.6730   -1.4110   -7.8270 ca        1 419     -0.119000
     35 C37         8.6600   -2.3730   -7.6090 ca        1 419     -0.112250
     36 C38         9.1210   -2.6250   -6.3170 ca        1 419     -0.084000
     37 C39         8.5950   -1.9090   -5.2390 ca        1 419     -0.112250
     38 C40         7.6120   -0.9460   -5.4520 ca        1 419     -0.119000
     39 H3          0.5100    1.1230    1.7510 hx        1 419      0.156700
     40 HN2        -0.8220   -1.1230    1.8020 hn        1 419      0.479800
     41 H1         -0.9750   -1.0520    4.2190 hx        1 419      0.134033
     42 H1A         0.5130    0.0250    4.2360 hx        1 419      0.134033
     43 H1B        -1.0490    0.6210    3.4650 hx        1 419      0.134033
     44 H4          2.9300    0.8150    1.4860 hc        1 419      0.109367
     45 H4A         2.4860    0.0220    3.0350 hc        1 419      0.109367
     46 H4B         2.8080   -1.0050    1.5730 hc        1 419      0.109367
     47 HN7         2.5020    0.3410   -0.8820 hn        1 419      0.496800
     48 H8         -0.0330    0.3440   -2.3600 hx        1 419      0.133700
     49 H10         3.2540    2.0140   -3.3590 hc        1 419      0.068144
     50 H10A        2.5620    3.6860   -3.3600 hc        1 419      0.068144
     51 H10B        2.8710    2.8560   -1.7900 hc        1 419      0.068144
     52 H11         1.3320    1.4970   -4.9880 hc        1 419      0.068144
     53 H11A       -0.3950    1.7320   -4.4300 hc        1 419      0.068144
     54 H11B        0.6660    3.1580   -4.7600 hc        1 419      0.068144
     55 H12         0.5780    3.3090   -1.1140 hc        1 419      0.068144
     56 H12A       -0.8330    2.5570   -1.9960 hc        1 419      0.068144
     57 H12B        0.0220    3.9950   -2.6750 hc        1 419      0.068144
     58 H16         2.9150   -2.5750   -4.1840 h1        1 419      0.089700
     59 H19        -0.3710   -0.2720   -4.9080 h1        1 419      0.068200
     60 H19A       -0.5540   -1.4770   -3.5420 h1        1 419      0.068200
     61 H18        -0.5310   -1.9930   -6.4450 hc        1 419      0.095700
     62 H18A       -0.7390   -3.1820   -5.1020 hc        1 419      0.095700
     63 H17         1.4240   -3.9460   -5.3230 hc        1 419      0.100700
     64 H20         1.8640   -3.8940   -7.5990 hc        1 419      0.092700
     65 H20A        1.1080   -2.2710   -7.8100 hc        1 419      0.092700
     66 H21         3.3720   -1.6490   -8.1210 hc        1 419      0.085700
     67 H21A        3.9860   -3.0010   -7.0830 hc        1 419      0.085700
     68 H22         2.7210   -0.2830   -6.2690 hx        1 419      0.113700
     69 HN25        4.5270   -0.9130   -4.4140 hn        1 419      0.469300
     70 H28         5.5630    0.0980   -7.9710 hc        1 419      0.106700
     71 H30         5.3820    2.2160   -8.8580 ha        1 419      0.134000
     72 H31         6.3920    4.4460   -9.2680 ha        1 419      0.161750
     73 H32         8.3130    5.2310   -7.8770 ha        1 419      0.168000
     74 H33         9.2210    3.7660   -6.0670 ha        1 419      0.161750
     75 H34         8.2250    1.5260   -5.6540 ha        1 419      0.134000
     76 H36         7.3350   -1.2020   -8.8550 ha        1 419      0.134000
     77 H37         9.0870   -2.9230   -8.4650 ha        1 419      0.161750
     78 H38         9.9120   -3.3760   -6.1480 ha        1 419      0.168000
     79 H39         8.9750   -2.0930   -4.2210 ha        1 419      0.161750
     80 H40         7.2460   -0.3480   -4.6040 ha        1 419      0.134000
     81 H221        0.5510   -1.7380    2.5250 hn        1 419      0.479800
     82 H72         1.4980    1.6410   -0.5360 hn        1 419      0.496800
     83 H252        5.2320   -1.6680   -5.7310 hn        1 419      0.469300
@<TRIPOS>BOND
     1    1    2 2   
     2    2    3 1   
     3    2    7 1   
     4    3    4 1   
     5    3    6 1   
     6    3   39 1   
     7    4    5 1   
     8    4   40 1   
     9    4   81 1   
    10    5   41 1   
    11    5   42 1   
    12    5   43 1   
    13    6   44 1   
    14    6   45 1   
    15    6   46 1   
    16    7    8 1   
    17    7   47 1   
    18    7   82 1   
    19    8    9 1   
    20    8   13 1   
    21    8   48 1   
    22    9   10 1   
    23    9   11 1   
    24    9   12 1   
    25   10   49 1   
    26   10   50 1   
    27   10   51 1   
    28   11   52 1   
    29   11   53 1   
    30   11   54 1   
    31   12   55 1   
    32   12   56 1   
    33   12   57 1   
    34   13   14 2   
    35   13   15 1   
    36   15   16 1   
    37   15   17 1   
    38   16   19 1   
    39   16   22 1   
    40   16   58 1   
    41   17   18 1   
    42   17   59 1   
    43   17   60 1   
    44   18   19 1   
    45   18   61 1   
    46   18   62 1   
    47   19   20 1   
    48   19   63 1   
    49   20   21 1   
    50   20   64 1   
    51   20   65 1   
    52   21   22 1   
    53   21   66 1   
    54   21   67 1   
    55   22   23 1   
    56   22   68 1   
    57   23   24 1   
    58   23   69 1   
    59   23   83 1   
    60   24   25 2   
    61   24   26 1   
    62   26   27 1   
    63   26   33 1   
    64   26   70 1   
    65   27   28 ar  
    66   27   32 ar  
    67   28   29 ar  
    68   28   71 1   
    69   29   30 ar  
    70   29   72 1   
    71   30   31 ar  
    72   30   73 1   
    73   31   32 ar  
    74   31   74 1   
    75   32   75 1   
    76   33   34 ar  
    77   33   38 ar  
    78   34   35 ar  
    79   34   76 1   
    80   35   36 ar  
    81   35   77 1   
    82   36   37 ar  
    83   36   78 1   
    84   37   38 ar  
    85   37   79 1   
    86   38   80 1   
@<TRIPOS>SUBSTRUCTURE
     1 419         1 TEMP              0 ****  ****    0 ROOT
