@<TRIPOS>MOLECULE
419
   80    78     1     0     0
SMALL
bcc


@<TRIPOS>ATOM
      1 O6         -2.8600    2.5130    3.0810 o         1 419     -0.384000
      2 C5         -1.8010    2.1020    3.5090 c1        1 419      0.260000
      3 C3         -1.7080    1.5880    4.9280 c2        1 419     -0.030000
      4 N2         -2.4510    2.4400    5.7900 n3        1 419     -0.281000
      5 C1         -2.3000    2.0000    7.1370 c3        1 419     -0.132000
      6 C4         -2.2730    0.1870    4.9950 c3        1 419     -0.215000
      7 N7         -0.6560    2.0800    2.6700 n3        1 419     -0.357000
      8 C8         -0.6510    2.8160    1.4590 c3        1 419      0.018000
      9 C9          0.3570    3.9450    1.5570 c3        1 419     -0.046000
     10 C10         1.7320    3.3720    1.8220 c3        1 419     -0.213333
     11 C11         0.3740    4.7200    0.2580 c3        1 419     -0.213333
     12 C12        -0.0320    4.8720    2.6940 c3        1 419     -0.213333
     13 C13        -0.2740    1.9000    0.3120 c2        1 419      0.292000
     14 O14         0.8950    1.7140    0.0440 o         1 419     -0.414000
     15 N15        -1.2890    1.2880   -0.4700 n         1 419     -0.319000
     16 C16        -1.1350    0.2820   -1.2520 c3        1 419     -0.001000
     17 C19        -2.8750    1.4350   -0.2440 c3        1 419     -0.032000
     18 C18        -3.4440    1.1310   -1.4070 c3        1 419     -0.163000
     19 C17        -2.4610    0.1930   -2.0880 c3        1 419     -0.108000
     20 C20        -2.1300    0.6360   -3.3430 c3        1 419     -0.151000
     21 C21        -0.5280    0.3210   -3.5280 c3        1 419     -0.168000
     22 C22         0.0410    0.5430   -2.3150 c3        1 419      0.019000
     23 N25         1.1250   -0.3750   -2.0970 n         1 419     -0.334000
     24 C26         1.1450   -1.6310   -2.7760 c2        1 419      0.307000
     25 O27         0.2460   -1.9220   -3.5380 o         1 419     -0.378000
     26 C28         2.3370   -2.5560   -2.6220 c3        1 419     -0.039000
     27 C29         2.2090   -3.3320   -1.3290 c2        1 419     -0.071500
     28 C30         3.2850   -3.4120   -0.4580 c2        1 419     -0.120000
     29 C31         3.1610   -4.1030    0.7360 c1        1 419     -0.135500
     30 C32         1.9590   -4.7150    1.0600 c1        1 419     -0.129250
     31 C33         0.8830   -4.6360    0.1900 c1        1 419     -0.129250
     32 C34         1.0070   -3.9440   -1.0040 c1        1 419     -0.106500
     33 C35         2.3820   -3.5240   -3.7910 c2        1 419     -0.071500
     34 C36         3.3830   -3.4120   -4.7430 c2        1 419     -0.120000
     35 C37         3.4820   -4.3500   -5.7580 c1        1 419     -0.135500
     36 C38         2.5790   -5.4000   -5.8220 c1        1 419     -0.129250
     37 C39         1.5780   -5.5120   -4.8710 c1        1 419     -0.129250
     38 C40         1.4790   -4.5730   -3.8550 c1        1 419     -0.106500
     39 H3         -0.7710    1.5760    5.2090 h4        1 419      0.112000
     40 HN2        -2.1410    3.2970    5.7130 hn        1 419      0.171000
     41 H1         -2.7300    1.1240    7.2450 h1        1 419      0.076667
     42 H1A        -1.3460    1.9250    7.3520 h1        1 419      0.076667
     43 H1B        -2.7220    2.6480    7.7420 h1        1 419      0.076667
     44 H4         -3.2280    0.2300    5.2080 hc        1 419      0.091333
     45 H4A        -2.1510   -0.2560    4.1280 hc        1 419      0.091333
     46 H4B        -1.8050   -0.3210    5.6900 hc        1 419      0.091333
     47 HN7         0.0860    1.6130    2.9220 hn        1 419      0.234000
     48 H8         -1.5410    3.1870    1.3000 h1        1 419      0.136000
     49 H10         1.7380    2.9260    2.6940 hc        1 419      0.081778
     50 H10A        1.9560    2.7250    1.1220 hc        1 419      0.081778
     51 H10B        2.3930    4.0960    1.8200 hc        1 419      0.081778
     52 H11         0.7410    4.1550   -0.4540 hc        1 419      0.081778
     53 H11A       -0.5390    4.9870    0.0260 hc        1 419      0.081778
     54 H11B        0.9320    5.5190    0.3620 hc        1 419      0.081778
     55 H12         0.0830    4.4060    3.5490 hc        1 419      0.081778
     56 H12A        0.5400    5.6690    2.6760 hc        1 419      0.081778
     57 H12B       -0.9690    5.1400    2.5920 hc        1 419      0.081778
     58 H16        -0.9810   -0.5410   -0.7460 h1        1 419      0.117000
     59 H19        -3.0950    2.3550    0.0090 h1        1 419      0.095500
     60 H19A       -3.1750    0.8120    0.4510 h1        1 419      0.095500
     61 H18        -4.3010    0.6790   -1.2590 hc        1 419      0.095000
     62 H18A       -3.5720    1.9390   -1.9440 hc        1 419      0.095000
     63 H17        -2.8030   -0.7230   -2.1130 hc        1 419      0.110000
     64 H20        -2.2950    1.5990   -3.4150 hc        1 419      0.085500
     65 H20A       -2.6490    0.1530   -4.0180 hc        1 419      0.085500
     66 H21        -0.1410    0.9230   -4.1970 hc        1 419      0.108000
     67 H21A       -0.3970   -0.6080   -3.7950 hc        1 419      0.108000
     68 H22         0.3580    1.4650   -2.2520 h1        1 419      0.099000
     69 HN25        1.8130   -0.1450   -1.5440 hn        1 419      0.233000
     70 H28         3.1580   -2.0280   -2.6040 hc        1 419      0.108000
     71 H30         4.1300   -2.9810   -0.6870 ha        1 419      0.128500
     72 H31         3.9180   -4.1590    1.3480 ha        1 419      0.129500
     73 H32         1.8720   -5.2030    1.9020 ha        1 419      0.130750
     74 H33         0.0380   -5.0670    0.4190 ha        1 419      0.130750
     75 H34         0.2500   -3.8880   -1.6160 ha        1 419      0.158000
     76 H36         4.0190   -2.6730   -4.6980 ha        1 419      0.128500
     77 H37         4.1870   -4.2720   -6.4290 ha        1 419      0.129500
     78 H38         2.6490   -6.0610   -6.5380 ha        1 419      0.130750
     79 H39         0.9420   -6.2510   -4.9160 ha        1 419      0.130750
     80 H40         0.7750   -4.6520   -3.1860 ha        1 419      0.158000
@<TRIPOS>BOND
     1    1    2 1   
     2    2    7 1   
     3    3    4 1   
     4    3    6 1   
     5    3   39 1   
     6    4    5 1   
     7    4   40 1   
     8    5   41 1   
     9    5   42 1   
    10    5   43 1   
    11    6   44 1   
    12    6   45 1   
    13    6   46 1   
    14    7    8 1   
    15    7   47 1   
    16    8    9 1   
    17    8   13 1   
    18    8   48 1   
    19    9   10 1   
    20    9   11 1   
    21    9   12 1   
    22   10   49 1   
    23   10   50 1   
    24   10   51 1   
    25   11   52 1   
    26   11   53 1   
    27   11   54 1   
    28   12   55 1   
    29   12   56 1   
    30   12   57 1   
    31   13   14 1   
    32   13   15 1   
    33   15   16 1   
    34   15   17 1   
    35   16   19 1   
    36   16   22 1   
    37   16   58 1   
    38   17   18 1   
    39   17   59 1   
    40   17   60 1   
    41   18   19 1   
    42   18   61 1   
    43   18   62 1   
    44   19   20 1   
    45   19   63 1   
    46   20   21 1   
    47   20   64 1   
    48   20   65 1   
    49   21   22 1   
    50   21   66 1   
    51   21   67 1   
    52   22   23 1   
    53   22   68 1   
    54   23   24 1   
    55   23   69 1   
    56   24   25 1   
    57   24   26 1   
    58   26   27 1   
    59   26   33 1   
    60   26   70 1   
    61   27   28 1   
    62   27   32 1   
    63   28   29 1   
    64   28   71 1   
    65   29   72 1   
    66   30   31 1   
    67   30   73 1   
    68   31   74 1   
    69   32   75 1   
    70   33   34 1   
    71   33   38 1   
    72   34   35 1   
    73   34   76 1   
    74   35   77 1   
    75   36   37 1   
    76   36   78 1   
    77   37   79 1   
    78   38   80 1   
@<TRIPOS>SUBSTRUCTURE
     1 419         1 TEMP              0 ****  ****    0 ROOT
