@<TRIPOS>MOLECULE
419
   80    83     1     0     0
SMALL
bcc


@<TRIPOS>ATOM
      1 O6         -4.8730   -0.1780   -0.0100 o         1 419     -0.629100
      2 C5         -4.3190    0.9250   -0.2050 c         1 419      0.617100
      3 C3         -4.9610    2.2500    0.2800 c3        1 419      0.116500
      4 N2         -6.3960    2.1660    0.4780 n3        1 419     -0.802200
      5 C1         -7.1520    1.9810   -0.7350 c3        1 419      0.143100
      6 C4         -4.2290    2.6600    1.5590 c3        1 419     -0.096100
      7 N7         -3.1220    1.0180   -0.8850 n         1 419     -0.550900
      8 C8         -2.3790   -0.1470   -1.2940 c3        1 419      0.044700
      9 C9         -1.6760    0.0110   -2.6740 c3        1 419     -0.047000
     10 C10        -0.9540    1.3420   -2.7990 c3        1 419     -0.098433
     11 C11        -0.6800   -1.1290   -2.8410 c3        1 419     -0.098433
     12 C12        -2.7340   -0.0890   -3.7660 c3        1 419     -0.098433
     13 C13        -1.3250   -0.5070   -0.2090 c         1 419      0.653100
     14 O14        -0.4420    0.3190    0.1140 o         1 419     -0.642100
     15 N15        -1.3760   -1.7520    0.3790 n         1 419     -0.453800
     16 C16        -0.4820   -2.1350    1.4620 c3        1 419      0.081700
     17 C19        -2.5340   -2.6280    0.3120 c3        1 419      0.076000
     18 C18        -2.4560   -3.6140    1.4890 c3        1 419     -0.085400
     19 C17        -1.1630   -3.3010    2.2360 c3        1 419     -0.073700
     20 C20        -0.1720   -4.4550    2.2850 c3        1 419     -0.074400
     21 C21         1.1850   -3.8930    1.9060 c3        1 419     -0.090400
     22 C22         0.9130   -2.6800    0.9890 c3        1 419      0.091700
     23 N25         1.9610   -1.6980    1.0340 n         1 419     -0.553900
     24 C26         2.6100   -1.2420   -0.0970 c         1 419      0.671100
     25 O27         2.3940   -1.7550   -1.2130 o         1 419     -0.610100
     26 C28         3.6970   -0.1740    0.0820 c3        1 419     -0.034100
     27 C29         3.7040    0.7910   -1.0650 ca        1 419     -0.079800
     28 C30         4.9280    1.2270   -1.5880 ca        1 419     -0.118000
     29 C31         4.9550    2.1460   -2.6360 ca        1 419     -0.132500
     30 C32         3.7640    2.6350   -3.1700 ca        1 419     -0.127000
     31 C33         2.5430    2.1980   -2.6560 ca        1 419     -0.132500
     32 C34         2.5110    1.2790   -1.6080 ca        1 419     -0.118000
     33 C35         3.6220    0.5730    1.3800 ca        1 419     -0.079800
     34 C36         4.7300    0.5870    2.2350 ca        1 419     -0.118000
     35 C37         4.6850    1.3010    3.4320 ca        1 419     -0.132500
     36 C38         3.5350    2.0050    3.7850 ca        1 419     -0.127000
     37 C39         2.4270    1.9920    2.9380 ca        1 419     -0.132500
     38 C40         2.4670    1.2800    1.7400 ca        1 419     -0.118000
     39 H3         -4.7830    3.0430   -0.5070 h1        1 419      0.072700
     40 HN2        -6.6050    1.4380    1.1380 hn        1 419      0.374800
     41 H1         -8.2400    1.9300   -0.4640 h1        1 419      0.037367
     42 H1A        -6.9900    2.8610   -1.4110 h1        1 419      0.037367
     43 H1B        -6.8770    1.0450   -1.2960 h1        1 419      0.037367
     44 H4         -4.3250    1.8710    2.3430 hc        1 419      0.050033
     45 H4A        -3.1470    2.8170    1.3360 hc        1 419      0.050033
     46 H4B        -4.6540    3.6120    1.9580 hc        1 419      0.050033
     47 HN7        -2.6260    1.8790   -0.8800 hn        1 419      0.321500
     48 H8         -3.1230   -0.9940   -1.4110 h1        1 419      0.095700
     49 H10        -0.3620    1.5540   -1.8740 hc        1 419      0.044922
     50 H10A       -0.2530    1.3090   -3.6680 hc        1 419      0.044922
     51 H10B       -1.6760    2.1760   -2.9690 hc        1 419      0.044922
     52 H11        -1.1690   -2.1090   -2.6230 hc        1 419      0.044922
     53 H11A       -0.3000   -1.1470   -3.8910 hc        1 419      0.044922
     54 H11B        0.1960   -1.0020   -2.1550 hc        1 419      0.044922
     55 H12        -3.5170    0.6950   -3.6340 hc        1 419      0.044922
     56 H12A       -2.2560    0.0520   -4.7650 hc        1 419      0.044922
     57 H12B       -3.2240   -1.0920   -3.7460 hc        1 419      0.044922
     58 H16        -0.3340   -1.2460    2.1400 h1        1 419      0.066700
     59 H19        -3.4900   -2.0330    0.3670 h1        1 419      0.062200
     60 H19A       -2.5160   -3.1840   -0.6670 h1        1 419      0.062200
     61 H18        -3.3410   -3.4790    2.1600 hc        1 419      0.055200
     62 H18A       -2.4730   -4.6660    1.1120 hc        1 419      0.055200
     63 H17        -1.3980   -2.9610    3.2770 hc        1 419      0.060700
     64 H20        -0.1440   -4.9110    3.3060 hc        1 419      0.047700
     65 H20A       -0.4660   -5.2640    1.5670 hc        1 419      0.047700
     66 H21         1.7460   -3.5880    2.8250 hc        1 419      0.052200
     67 H21A        1.8050   -4.6510    1.3670 hc        1 419      0.052200
     68 H22         0.8290   -3.0520   -0.0770 h1        1 419      0.101700
     69 HN25        2.0490   -1.1820    1.8790 hn        1 419      0.315500
     70 H28         4.6650   -0.7620    0.0580 hc        1 419      0.083700
     71 H30         5.8720    0.8430   -1.1730 ha        1 419      0.145000
     72 H31         5.9200    2.4840   -3.0420 ha        1 419      0.131000
     73 H32         3.7870    3.3600   -3.9960 ha        1 419      0.129500
     74 H33         1.5980    2.5720   -3.0780 ha        1 419      0.131000
     75 H34         1.5450    0.9180   -1.2130 ha        1 419      0.145000
     76 H36         5.6430    0.0370    1.9620 ha        1 419      0.145000
     77 H37         5.5620    1.3080    4.0970 ha        1 419      0.131000
     78 H38         3.5020    2.5700    4.7280 ha        1 419      0.129500
     79 H39         1.5180    2.5480    3.2110 ha        1 419      0.131000
     80 H40         1.5880    1.2700    1.0710 ha        1 419      0.145000
@<TRIPOS>BOND
     1    1    2 2   
     2    2    3 1   
     3    2    7 1   
     4    3    4 1   
     5    3    6 1   
     6    3   39 1   
     7    4    5 1   
     8    4   40 1   
     9    5   41 1   
    10    5   42 1   
    11    5   43 1   
    12    6   44 1   
    13    6   45 1   
    14    6   46 1   
    15    7    8 1   
    16    7   47 1   
    17    8    9 1   
    18    8   13 1   
    19    8   48 1   
    20    9   10 1   
    21    9   11 1   
    22    9   12 1   
    23   10   49 1   
    24   10   50 1   
    25   10   51 1   
    26   11   52 1   
    27   11   53 1   
    28   11   54 1   
    29   12   55 1   
    30   12   56 1   
    31   12   57 1   
    32   13   14 2   
    33   13   15 1   
    34   15   16 1   
    35   15   17 1   
    36   16   19 1   
    37   16   22 1   
    38   16   58 1   
    39   17   18 1   
    40   17   59 1   
    41   17   60 1   
    42   18   19 1   
    43   18   61 1   
    44   18   62 1   
    45   19   20 1   
    46   19   63 1   
    47   20   21 1   
    48   20   64 1   
    49   20   65 1   
    50   21   22 1   
    51   21   66 1   
    52   21   67 1   
    53   22   23 1   
    54   22   68 1   
    55   23   24 1   
    56   23   69 1   
    57   24   25 2   
    58   24   26 1   
    59   26   27 1   
    60   26   33 1   
    61   26   70 1   
    62   27   28 ar  
    63   27   32 ar  
    64   28   29 ar  
    65   28   71 1   
    66   29   30 ar  
    67   29   72 1   
    68   30   31 ar  
    69   30   73 1   
    70   31   32 ar  
    71   31   74 1   
    72   32   75 1   
    73   33   34 ar  
    74   33   38 ar  
    75   34   35 ar  
    76   34   76 1   
    77   35   36 ar  
    78   35   77 1   
    79   36   37 ar  
    80   36   78 1   
    81   37   38 ar  
    82   37   79 1   
    83   38   80 1   
@<TRIPOS>SUBSTRUCTURE
     1 419         1 TEMP              0 ****  ****    0 ROOT
