@<TRIPOS>MOLECULE
419
   83    86     1     0     0
SMALL
bcc


@<TRIPOS>ATOM
      1 O6         -0.0400   -1.0100   -0.4370 o         1 419     -0.390100
      2 C5          0.7120   -0.1640    0.0280 c         1 419      0.510100
      3 C3          0.8870    0.1040    1.5360 c3        1 419      0.061500
      4 N2          0.0210   -0.8270    2.3480 n4        1 419     -0.760000
      5 C1         -0.3920   -0.2220    3.6450 c3        1 419      0.074100
      6 C4          2.3580   -0.0100    1.9210 c3        1 419     -0.159100
      7 N7          1.5150    0.6890   -0.8890 n4        1 419     -0.665800
      8 C8          1.0500    0.6990   -2.3410 c3        1 419      0.073500
      9 C9          1.1280    2.1490   -2.9160 c3        1 419     -0.057000
     10 C10         2.5430    2.6990   -2.8540 c3        1 419     -0.118767
     11 C11         0.6620    2.1170   -4.3660 c3        1 419     -0.118767
     12 C12         0.1800    3.0510   -2.1330 c3        1 419     -0.118767
     13 C13         1.9490   -0.2870   -3.1350 c         1 419      0.652100
     14 O14         3.1660   -0.3540   -2.8130 o         1 419     -0.670100
     15 N15         1.4370   -1.0590   -4.1260 n         1 419     -0.420800
     16 C16         2.2820   -1.9760   -4.8900 c3        1 419      0.077700
     17 C19         0.0260   -1.2240   -4.4630 c3        1 419      0.073000
     18 C18        -0.0810   -2.3730   -5.4800 c3        1 419     -0.089400
     19 C17         1.3320   -2.9060   -5.7030 c3        1 419     -0.062700
     20 C20         1.8030   -2.8780   -7.1510 c3        1 419     -0.082400
     21 C21         3.1830   -2.2360   -7.1600 c3        1 419     -0.095400
     22 C22         3.1910   -1.2790   -5.9550 c3        1 419      0.105500
     23 N25         4.5560   -0.9560   -5.4410 n4        1 419     -0.698800
     24 C26         5.0560    0.4050   -5.9470 c         1 419      0.569100
     25 O27         4.4910    1.3540   -5.4300 o         1 419     -0.440100
     26 C28         6.1270    0.3520   -7.0260 c3        1 419      0.016900
     27 C29         6.7240    1.7090   -7.2190 ca        1 419     -0.155800
     28 C30         6.2200    2.5300   -8.2390 ca        1 419     -0.119000
     29 C31         6.7890    3.7790   -8.4750 ca        1 419     -0.112250
     30 C32         7.8640    4.2180   -7.6990 ca        1 419     -0.084000
     31 C33         8.3670    3.4030   -6.6850 ca        1 419     -0.112250
     32 C34         7.8020    2.1520   -6.4440 ca        1 419     -0.119000
     33 C35         7.1380   -0.7160   -6.7480 ca        1 419     -0.155800
     34 C36         7.6670   -1.4380   -7.8240 ca        1 419     -0.119000
     35 C37         8.6530   -2.4020   -7.6030 ca        1 419     -0.112250
     36 C38         9.1130   -2.6500   -6.3100 ca        1 419     -0.084000
     37 C39         8.5880   -1.9300   -5.2340 ca        1 419     -0.112250
     38 C40         7.6070   -0.9660   -5.4500 ca        1 419     -0.119000
     39 H3          0.5170    1.1610    1.7450 hx        1 419      0.156700
     40 HN2         0.5480   -1.6950    2.5360 hn        1 419      0.479800
     41 H1          0.5160    0.0780    4.2370 hx        1 419      0.134033
     42 H1A        -0.9760   -0.9950    4.2250 hx        1 419      0.134033
     43 H1B        -1.0450    0.6750    3.4620 hx        1 419      0.134033
     44 H4          2.9360    0.8430    1.4820 hc        1 419      0.109367
     45 H4A         2.8060   -0.9760    1.5790 hc        1 419      0.109367
     46 H4B         2.4890    0.0600    3.0350 hc        1 419      0.109367
     47 HN7         1.5060    1.6630   -0.5450 hn        1 419      0.496800
     48 H8         -0.0300    0.3620   -2.3610 hx        1 419      0.133700
     49 H10         2.8810    2.8680   -1.8040 hc        1 419      0.068144
     50 H10A        3.2640    2.0150   -3.3660 hc        1 419      0.068144
     51 H10B        2.5770    3.6890   -3.3790 hc        1 419      0.068144
     52 H11         0.6800    3.1600   -4.7770 hc        1 419      0.068144
     53 H11A        1.3430    1.4950   -4.9950 hc        1 419      0.068144
     54 H11B       -0.3850    1.7380   -4.4400 hc        1 419      0.068144
     55 H12        -0.8240    2.5780   -2.0130 hc        1 419      0.068144
     56 H12A        0.5880    3.3290   -1.1310 hc        1 419      0.068144
     57 H12B        0.0380    4.0110   -2.6970 hc        1 419      0.068144
     58 H16         2.9090   -2.5770   -4.1700 h1        1 419      0.089700
     59 H19        -0.3710   -0.2690   -4.9050 h1        1 419      0.068200
     60 H19A       -0.5580   -1.4650   -3.5310 h1        1 419      0.068200
     61 H18        -0.7490   -3.1780   -5.0820 hc        1 419      0.095700
     62 H18A       -0.5370   -1.9980   -6.4320 hc        1 419      0.095700
     63 H17         1.4110   -3.9500   -5.2980 hc        1 419      0.100700
     64 H20         1.8510   -3.9150   -7.5740 hc        1 419      0.092700
     65 H20A        1.0990   -2.2920   -7.7960 hc        1 419      0.092700
     66 H21         3.9750   -3.0240   -7.0660 hc        1 419      0.086200
     67 H21A        3.3640   -1.6780   -8.1130 hc        1 419      0.086200
     68 H22         2.7180   -0.2980   -6.2690 hx        1 419      0.113700
     69 HN25        5.2260   -1.6840   -5.7260 hn        1 419      0.469300
     70 H28         5.5610    0.0740   -7.9730 hc        1 419      0.107700
     71 H30         5.3840    2.1890   -8.8680 ha        1 419      0.134000
     72 H31         6.3980    4.4160   -9.2850 ha        1 419      0.161750
     73 H32         8.3200    5.2030   -7.8950 ha        1 419      0.168000
     74 H33         9.2240    3.7420   -6.0800 ha        1 419      0.161750
     75 H34         8.2240    1.5050   -5.6600 ha        1 419      0.134000
     76 H36         7.3290   -1.2320   -8.8530 ha        1 419      0.134000
     77 H37         9.0780   -2.9550   -8.4570 ha        1 419      0.161750
     78 H38         9.9020   -3.4010   -6.1390 ha        1 419      0.168000
     79 H39         8.9690   -2.1100   -4.2160 ha        1 419      0.161750
     80 H40         7.2420   -0.3640   -4.6040 ha        1 419      0.134000
     81 H221       -0.8230   -1.0800    1.8090 hn        1 419      0.479800
     82 H72         2.5060    0.3570   -0.8830 hn        1 419      0.496800
     83 H252        4.5250   -0.9220   -4.4110 hn        1 419      0.469300
@<TRIPOS>BOND
     1    1    2 2   
     2    2    3 1   
     3    2    7 1   
     4    3    4 1   
     5    3    6 1   
     6    3   39 1   
     7    4    5 1   
     8    4   40 1   
     9    4   81 1   
    10    5   41 1   
    11    5   42 1   
    12    5   43 1   
    13    6   44 1   
    14    6   45 1   
    15    6   46 1   
    16    7    8 1   
    17    7   47 1   
    18    7   82 1   
    19    8    9 1   
    20    8   13 1   
    21    8   48 1   
    22    9   10 1   
    23    9   11 1   
    24    9   12 1   
    25   10   49 1   
    26   10   50 1   
    27   10   51 1   
    28   11   52 1   
    29   11   53 1   
    30   11   54 1   
    31   12   55 1   
    32   12   56 1   
    33   12   57 1   
    34   13   14 2   
    35   13   15 1   
    36   15   16 1   
    37   15   17 1   
    38   16   19 1   
    39   16   22 1   
    40   16   58 1   
    41   17   18 1   
    42   17   59 1   
    43   17   60 1   
    44   18   19 1   
    45   18   61 1   
    46   18   62 1   
    47   19   20 1   
    48   19   63 1   
    49   20   21 1   
    50   20   64 1   
    51   20   65 1   
    52   21   22 1   
    53   21   66 1   
    54   21   67 1   
    55   22   23 1   
    56   22   68 1   
    57   23   24 1   
    58   23   69 1   
    59   23   83 1   
    60   24   25 2   
    61   24   26 1   
    62   26   27 1   
    63   26   33 1   
    64   26   70 1   
    65   27   28 ar  
    66   27   32 ar  
    67   28   29 ar  
    68   28   71 1   
    69   29   30 ar  
    70   29   72 1   
    71   30   31 ar  
    72   30   73 1   
    73   31   32 ar  
    74   31   74 1   
    75   32   75 1   
    76   33   34 ar  
    77   33   38 ar  
    78   34   35 ar  
    79   34   76 1   
    80   35   36 ar  
    81   35   77 1   
    82   36   37 ar  
    83   36   78 1   
    84   37   38 ar  
    85   37   79 1   
    86   38   80 1   
@<TRIPOS>SUBSTRUCTURE
     1 419         1 TEMP              0 ****  ****    0 ROOT
