@<TRIPOS>MOLECULE
41A
   36    38     1     0     0
SMALL
bcc


@<TRIPOS>ATOM
      1 C01         4.7760   -1.5930    0.4860 c3        1 41A     -0.090600
      2 C02         3.5900   -0.8590   -0.1270 c3        1 41A     -0.045000
      3 C03         3.5950   -1.0810   -1.6320 c3        1 41A     -0.090600
      4 C04         2.3030   -1.4210    0.4850 c3        1 41A     -0.113700
      5 C05         1.1260   -0.5590    0.1920 cc        1 41A      0.435600
      6 C06         1.2520    0.7960   -0.1480 cd        1 41A     -0.338000
      7 C07         2.5420    1.4570   -0.2480 c         1 41A      0.624700
      8 C08         3.7250    0.6300    0.1830 c3        1 41A     -0.166400
      9 O09         2.6820    2.6270   -0.6270 o         1 41A     -0.548100
     10 S10        -0.2580    1.4820   -0.4020 ss        1 41A     -0.038300
     11 C11        -1.0310   -0.0340   -0.0430 cd        1 41A      0.628300
     12 N12        -2.4140   -0.1730   -0.1950 nh        1 41A     -0.710300
     13 C13        -3.1990    0.9910    0.1980 c3        1 41A      0.149300
     14 C14        -4.6820    0.8310   -0.1630 c3        1 41A      0.122400
     15 O15        -5.2120   -0.3880    0.3410 os        1 41A     -0.409600
     16 C16        -4.4960   -1.5200   -0.1390 c3        1 41A      0.122400
     17 C17        -3.0030   -1.4440    0.2060 c3        1 41A      0.149300
     18 N18        -0.1670   -1.0360    0.2650 nc        1 41A     -0.702000
     19 H01         5.7300   -1.2210    0.0400 hc        1 41A      0.040533
     20 H01A        4.8120   -1.4310    1.5900 hc        1 41A      0.040533
     21 H01B        4.6920   -2.6880    0.2880 hc        1 41A      0.040533
     22 H03         3.5270   -2.1720   -1.8620 hc        1 41A      0.040533
     23 H03A        2.7250   -0.5610   -2.1020 hc        1 41A      0.040533
     24 H03B        4.5360   -0.6810   -2.0780 hc        1 41A      0.040533
     25 H04         2.1350   -2.4620    0.1010 hc        1 41A      0.070200
     26 H04A        2.4180   -1.4870    1.6020 hc        1 41A      0.070200
     27 H08         3.8410    0.7710    1.2920 hc        1 41A      0.073700
     28 H08A        4.6500    1.0310   -0.3100 hc        1 41A      0.073700
     29 H13        -3.1170    1.1750    1.3090 h1        1 41A      0.060950
     30 H13A       -2.7940    1.8930   -0.3430 h1        1 41A      0.060950
     31 H14        -5.2840    1.6310    0.3420 h1        1 41A      0.060700
     32 H14A       -4.8270    0.8770   -1.2740 h1        1 41A      0.060700
     33 H16        -4.9630   -2.3920    0.3900 h1        1 41A      0.060700
     34 H16A       -4.6430   -1.6160   -1.2470 h1        1 41A      0.060700
     35 H17        -2.4680   -2.2710   -0.3390 h1        1 41A      0.060950
     36 H17A       -2.8750   -1.6120    1.3140 h1        1 41A      0.060950
@<TRIPOS>BOND
     1    1    2 1   
     2    1   19 1   
     3    1   20 1   
     4    1   21 1   
     5    2    3 1   
     6    2    4 1   
     7    2    8 1   
     8    3   22 1   
     9    3   23 1   
    10    3   24 1   
    11    4    5 1   
    12    4   25 1   
    13    4   26 1   
    14    5    6 2   
    15    5   18 1   
    16    6    7 1   
    17    6   10 1   
    18    7    8 1   
    19    7    9 2   
    20    8   27 1   
    21    8   28 1   
    22   10   11 1   
    23   11   12 1   
    24   11   18 2   
    25   12   13 1   
    26   12   17 1   
    27   13   14 1   
    28   13   29 1   
    29   13   30 1   
    30   14   15 1   
    31   14   31 1   
    32   14   32 1   
    33   15   16 1   
    34   16   17 1   
    35   16   33 1   
    36   16   34 1   
    37   17   35 1   
    38   17   36 1   
@<TRIPOS>SUBSTRUCTURE
     1 41A         1 TEMP              0 ****  ****    0 ROOT
