@<TRIPOS>MOLECULE
41A
   36    38     1     0     0
SMALL
bcc


@<TRIPOS>ATOM
      1 C01         0.0260   -0.4530    0.0540 c3        1 41A     -0.090600
      2 C02         1.4920   -0.0440   -0.0220 c3        1 41A     -0.045000
      3 C03         1.5770    1.4130   -0.4510 c3        1 41A     -0.090600
      4 C04         2.1190   -0.2240    1.3630 c3        1 41A     -0.113700
      5 C05         3.6040   -0.1570    1.3140 cc        1 41A      0.435600
      6 C06         4.3300   -0.4010    0.1390 cd        1 41A     -0.338000
      7 C07         3.6830   -0.7270   -1.1210 c         1 41A      0.624700
      8 C08         2.1930   -0.9330   -1.0470 c3        1 41A     -0.166400
      9 O09         4.2970   -0.8630   -2.1880 o         1 41A     -0.548100
     10 S10         5.9770   -0.2600    0.4230 ss        1 41A     -0.038300
     11 C11         5.6790    0.1070    2.0960 cd        1 41A      0.628300
     12 N12         6.7350    0.4670    2.9380 nh        1 41A     -0.710300
     13 C13         7.9800   -0.2580    2.7120 c3        1 41A      0.149300
     14 C14         9.1350    0.3120    3.5460 c3        1 41A      0.122400
     15 O15         8.7900    0.4010    4.9220 os        1 41A     -0.409600
     16 C16         7.6330    1.2010    5.1310 c3        1 41A      0.122400
     17 C17         6.4230    0.6770    4.3460 c3        1 41A      0.149300
     18 N18         4.3620    0.1210    2.4340 nc        1 41A     -0.702000
     19 H01        -0.4650   -0.3090   -0.9380 hc        1 41A      0.040533
     20 H01A       -0.0690   -1.5260    0.3460 hc        1 41A      0.040533
     21 H01B       -0.5070    0.1710    0.8110 hc        1 41A      0.040533
     22 H03         1.1120    1.5480   -1.4570 hc        1 41A      0.040533
     23 H03A        2.6430    1.7390   -0.5020 hc        1 41A      0.040533
     24 H03B        1.0380    2.0630    0.2800 hc        1 41A      0.040533
     25 H04         1.7120    0.5590    2.0580 hc        1 41A      0.070200
     26 H04A        1.8270   -1.2280    1.7780 hc        1 41A      0.070200
     27 H08         1.7490   -0.7540   -2.0620 hc        1 41A      0.073700
     28 H08A        2.0210   -2.0120   -0.7840 hc        1 41A      0.073700
     29 H13         8.2490   -0.1720    1.6200 h1        1 41A      0.060950
     30 H13A        7.8600   -1.3520    2.9640 h1        1 41A      0.060950
     31 H14         9.4390    1.3220    3.1640 h1        1 41A      0.060700
     32 H14A       10.0080   -0.3920    3.5170 h1        1 41A      0.060700
     33 H16         7.8560    2.2650    4.8540 h1        1 41A      0.060700
     34 H16A        7.4330    1.1210    6.2320 h1        1 41A      0.060700
     35 H17         6.0640   -0.2800    4.8230 h1        1 41A      0.060950
     36 H17A        5.5960    1.4370    4.4170 h1        1 41A      0.060950
@<TRIPOS>BOND
     1    1    2 1   
     2    1   19 1   
     3    1   20 1   
     4    1   21 1   
     5    2    3 1   
     6    2    4 1   
     7    2    8 1   
     8    3   22 1   
     9    3   23 1   
    10    3   24 1   
    11    4    5 1   
    12    4   25 1   
    13    4   26 1   
    14    5    6 2   
    15    5   18 1   
    16    6    7 1   
    17    6   10 1   
    18    7    8 1   
    19    7    9 2   
    20    8   27 1   
    21    8   28 1   
    22   10   11 1   
    23   11   12 1   
    24   11   18 2   
    25   12   13 1   
    26   12   17 1   
    27   13   14 1   
    28   13   29 1   
    29   13   30 1   
    30   14   15 1   
    31   14   31 1   
    32   14   32 1   
    33   15   16 1   
    34   16   17 1   
    35   16   33 1   
    36   16   34 1   
    37   17   35 1   
    38   17   36 1   
@<TRIPOS>SUBSTRUCTURE
     1 41A         1 TEMP              0 ****  ****    0 ROOT
