@<TRIPOS>MOLECULE
41A
   36    38     1     0     0
SMALL
bcc


@<TRIPOS>ATOM
      1 C01         0.0240   -0.4360    0.0630 c3        1 41A     -0.090600
      2 C02         1.4950   -0.0480   -0.0220 c3        1 41A     -0.045000
      3 C03         1.5990    1.3960   -0.4880 c3        1 41A     -0.090600
      4 C04         2.1170   -0.1990    1.3690 c3        1 41A     -0.113700
      5 C05         3.6030   -0.1520    1.3210 cc        1 41A      0.435600
      6 C06         4.3270   -0.4360    0.1540 cd        1 41A     -0.338000
      7 C07         3.6790   -0.7870   -1.0990 c         1 41A      0.624700
      8 C08         2.1860   -0.9720   -1.0210 c3        1 41A     -0.166400
      9 O09         4.2930   -0.9590   -2.1600 o         1 41A     -0.548100
     10 S10         5.9760   -0.3080    0.4370 ss        1 41A     -0.038300
     11 C11         5.6800    0.1070    2.0990 cd        1 41A      0.628300
     12 N12         6.7400    0.4760    2.9340 nh        1 41A     -0.710300
     13 C13         7.9760   -0.2700    2.7280 c3        1 41A      0.149300
     14 C14         9.1370    0.3090    3.5490 c3        1 41A      0.122400
     15 O15         8.7910    0.4370    4.9210 os        1 41A     -0.409600
     16 C16         7.6430    1.2570    5.1080 c3        1 41A      0.122400
     17 C17         6.4280    0.7270    4.3350 c3        1 41A      0.149300
     18 N18         4.3630    0.1460    2.4340 nc        1 41A     -0.702000
     19 H01        -0.5020    0.2150    0.8020 hc        1 41A      0.040533
     20 H01A       -0.4640   -0.3120   -0.9340 hc        1 41A      0.040533
     21 H01B       -0.0850   -1.5000    0.3830 hc        1 41A      0.040533
     22 H03         1.0680    2.0720    0.2240 hc        1 41A      0.040533
     23 H03A        1.1370    1.5100   -1.4990 hc        1 41A      0.040533
     24 H03B        2.6700    1.7070   -0.5470 hc        1 41A      0.040533
     25 H04         1.8120   -1.1880    1.8100 hc        1 41A      0.070200
     26 H04A        1.7200    0.6080    2.0420 hc        1 41A      0.070200
     27 H08         2.0000   -2.0420   -0.7300 hc        1 41A      0.073700
     28 H08A        1.7460   -0.8150   -2.0420 hc        1 41A      0.073700
     29 H13         8.2480   -0.2150    1.6350 h1        1 41A      0.060950
     30 H13A        7.8430   -1.3540    3.0090 h1        1 41A      0.060950
     31 H14        10.0010   -0.4060    3.5400 h1        1 41A      0.060700
     32 H14A        9.4530    1.3050    3.1420 h1        1 41A      0.060700
     33 H16         7.8790    2.3100    4.8040 h1        1 41A      0.060700
     34 H16A        7.4410    1.2080    6.2110 h1        1 41A      0.060700
     35 H17         6.0580   -0.2130    4.8360 h1        1 41A      0.060950
     36 H17A        5.6100    1.4980    4.3850 h1        1 41A      0.060950
@<TRIPOS>BOND
     1    1    2 1   
     2    1   19 1   
     3    1   20 1   
     4    1   21 1   
     5    2    3 1   
     6    2    4 1   
     7    2    8 1   
     8    3   22 1   
     9    3   23 1   
    10    3   24 1   
    11    4    5 1   
    12    4   25 1   
    13    4   26 1   
    14    5    6 2   
    15    5   18 1   
    16    6    7 1   
    17    6   10 1   
    18    7    8 1   
    19    7    9 2   
    20    8   27 1   
    21    8   28 1   
    22   10   11 1   
    23   11   12 1   
    24   11   18 2   
    25   12   13 1   
    26   12   17 1   
    27   13   14 1   
    28   13   29 1   
    29   13   30 1   
    30   14   15 1   
    31   14   31 1   
    32   14   32 1   
    33   15   16 1   
    34   16   17 1   
    35   16   33 1   
    36   16   34 1   
    37   17   35 1   
    38   17   36 1   
@<TRIPOS>SUBSTRUCTURE
     1 41A         1 TEMP              0 ****  ****    0 ROOT
