@<TRIPOS>MOLECULE
41A
   36    38     1     0     0
SMALL
bcc


@<TRIPOS>ATOM
      1 C01         0.0300   -0.4540    0.0530 c3        1 41A     -0.090600
      2 C02         1.4960   -0.0460   -0.0240 c3        1 41A     -0.045000
      3 C03         1.5820    1.4100   -0.4570 c3        1 41A     -0.090600
      4 C04         2.1210   -0.2210    1.3630 c3        1 41A     -0.113700
      5 C05         3.6070   -0.1550    1.3150 cc        1 41A      0.436600
      6 C06         4.3330   -0.4030    0.1410 cd        1 41A     -0.338000
      7 C07         3.6880   -0.7330   -1.1180 c         1 41A      0.624700
      8 C08         2.1980   -0.9390   -1.0450 c3        1 41A     -0.166400
      9 O09         4.3030   -0.8740   -2.1840 o         1 41A     -0.548100
     10 S10         5.9800   -0.2630    0.4270 ss        1 41A     -0.038300
     11 C11         5.6810    0.1110    2.0980 cd        1 41A      0.628300
     12 N12         6.7370    0.4740    2.9400 nh        1 41A     -0.710300
     13 C13         7.9820   -0.2520    2.7170 c3        1 41A      0.149300
     14 C14         9.1360    0.3210    3.5500 c3        1 41A      0.122400
     15 O15         8.7900    0.4130    4.9250 os        1 41A     -0.409600
     16 C16         7.6320    1.2140    5.1320 c3        1 41A      0.122400
     17 C17         6.4230    0.6870    4.3470 c3        1 41A      0.149300
     18 N18         4.3640    0.1260    2.4340 nc        1 41A     -0.702000
     19 H01        -0.5030    0.1740    0.8060 hc        1 41A      0.040533
     20 H01A       -0.0660   -1.5260    0.3490 hc        1 41A      0.040533
     21 H01B       -0.4600   -0.3130   -0.9400 hc        1 41A      0.040533
     22 H03         1.1180    1.5410   -1.4640 hc        1 41A      0.040533
     23 H03A        1.0430    2.0630    0.2710 hc        1 41A      0.040533
     24 H03B        2.6490    1.7350   -0.5090 hc        1 41A      0.040533
     25 H04         1.7140    0.5650    2.0540 hc        1 41A      0.070200
     26 H04A        1.8290   -1.2230    1.7810 hc        1 41A      0.070200
     27 H08         2.0250   -2.0170   -0.7780 hc        1 41A      0.073700
     28 H08A        1.7540   -0.7630   -2.0610 hc        1 41A      0.073700
     29 H13         8.2520   -0.1690    1.6250 h1        1 41A      0.060950
     30 H13A        7.8620   -1.3450    2.9720 h1        1 41A      0.060950
     31 H14        10.0090   -0.3830    3.5230 h1        1 41A      0.060700
     32 H14A        9.4390    1.3300    3.1660 h1        1 41A      0.060700
     33 H16         7.8550    2.2770    4.8520 h1        1 41A      0.060700
     34 H16A        7.4320    1.1370    6.2330 h1        1 41A      0.060700
     35 H17         6.0640   -0.2690    4.8270 h1        1 41A      0.060950
     36 H17A        5.5960    1.4480    4.4150 h1        1 41A      0.060950
@<TRIPOS>BOND
     1    1    2 1   
     2    1   19 1   
     3    1   20 1   
     4    1   21 1   
     5    2    3 1   
     6    2    4 1   
     7    2    8 1   
     8    3   22 1   
     9    3   23 1   
    10    3   24 1   
    11    4    5 1   
    12    4   25 1   
    13    4   26 1   
    14    5    6 2   
    15    5   18 1   
    16    6    7 1   
    17    6   10 1   
    18    7    8 1   
    19    7    9 2   
    20    8   27 1   
    21    8   28 1   
    22   10   11 1   
    23   11   12 1   
    24   11   18 2   
    25   12   13 1   
    26   12   17 1   
    27   13   14 1   
    28   13   29 1   
    29   13   30 1   
    30   14   15 1   
    31   14   31 1   
    32   14   32 1   
    33   15   16 1   
    34   16   17 1   
    35   16   33 1   
    36   16   34 1   
    37   17   35 1   
    38   17   36 1   
@<TRIPOS>SUBSTRUCTURE
     1 41A         1 TEMP              0 ****  ****    0 ROOT
