@<TRIPOS>MOLECULE
41A
   36    36     1     0     0
SMALL
bcc


@<TRIPOS>ATOM
      1 C01        -2.0120   -2.5760   -2.3750 c3        1 41A     -0.208500
      2 C02        -0.4460   -2.5380   -2.3900 c3        1 41A     -0.045000
      3 C03         0.0670   -3.8610   -3.1110 c3        1 41A     -0.208500
      4 C04         0.0060   -2.5740   -1.0320 c3        1 41A     -0.098000
      5 C05         0.0400   -1.1900   -0.2600 c2        1 41A      0.013000
      6 C06        -0.2190    0.0590   -1.0440 c1        1 41A     -0.522000
      7 C07        -0.3360   -0.0570   -2.6150 c1        1 41A      0.315000
      8 C08        -0.0200   -1.3570   -3.2370 c3        1 41A     -0.195000
      9 O09        -0.3480    0.9690   -3.3100 o         1 41A     -0.309000
     10 S10        -0.1270    1.2320   -0.0890 ss        1 41A      0.547000
     11 C11         0.2030    0.6600    1.3360 c1        1 41A     -0.142000
     12 N12         0.3070    1.4290    2.5550 n2        1 41A     -0.201000
     13 C13        -0.5910    2.6980    2.4450 c3        1 41A     -0.087500
     14 C14        -0.4400    3.6230    3.6210 c3        1 41A     -0.028000
     15 O15         0.6480    3.4020    4.2480 os        1 41A     -0.266000
     16 C16         1.7900    3.1300    3.7420 c3        1 41A     -0.028000
     17 C17         1.6580    2.1970    2.5650 c3        1 41A     -0.087500
     18 N18         0.3020   -0.7910    1.2260 n2        1 41A     -0.176000
     19 H01        -2.3520   -2.4100   -3.2790 hc        1 41A      0.080000
     20 H01A       -2.3250   -3.4870   -2.0600 hc        1 41A      0.080000
     21 H01B       -2.3560   -1.8730   -1.7560 hc        1 41A      0.080000
     22 H03         1.0440   -3.8370   -3.1820 hc        1 41A      0.080000
     23 H03A       -0.2090   -4.6640   -2.5770 hc        1 41A      0.080000
     24 H03B       -0.3110   -3.9150   -3.9770 hc        1 41A      0.080000
     25 H04        -0.6020   -3.1470   -0.5510 hc        1 41A      0.109500
     26 H04A        0.9310   -2.9160   -1.0490 hc        1 41A      0.109500
     27 H08        -0.3970   -1.3270   -4.1590 hc        1 41A      0.113500
     28 H08A        0.9350   -1.4620   -3.4330 hc        1 41A      0.113500
     29 H13        -0.3510    3.1890    1.6200 h1        1 41A      0.100500
     30 H13A       -1.5440    2.4110    2.3820 h1        1 41A      0.100500
     31 H14        -0.4440    4.5650    3.2970 h1        1 41A      0.100000
     32 H14A       -1.1940    3.4910    4.2300 h1        1 41A      0.100000
     33 H16         2.3590    2.7030    4.4330 h1        1 41A      0.100000
     34 H16A        2.2160    3.9650    3.4440 h1        1 41A      0.100000
     35 H17         2.3900    1.5460    2.5930 h1        1 41A      0.100500
     36 H17A        1.7300    2.7130    1.7510 h1        1 41A      0.100500
@<TRIPOS>BOND
     1    1    2 1   
     2    1   19 1   
     3    1   20 1   
     4    1   21 1   
     5    2    3 1   
     6    2    4 1   
     7    2    8 1   
     8    3   22 1   
     9    3   23 1   
    10    3   24 1   
    11    4    5 1   
    12    4   25 1   
    13    4   26 1   
    14    5    6 1   
    15    5   18 1   
    16    6   10 1   
    17    7    8 1   
    18    7    9 1   
    19    8   27 1   
    20    8   28 1   
    21   10   11 1   
    22   11   18 1   
    23   12   13 1   
    24   12   17 1   
    25   13   14 1   
    26   13   29 1   
    27   13   30 1   
    28   14   15 1   
    29   14   31 1   
    30   14   32 1   
    31   15   16 1   
    32   16   17 1   
    33   16   33 1   
    34   16   34 1   
    35   17   35 1   
    36   17   36 1   
@<TRIPOS>SUBSTRUCTURE
     1 41A         1 TEMP              0 ****  ****    0 ROOT
