@<TRIPOS>MOLECULE
41D
   31    29     1     0     0
SMALL
bcc


@<TRIPOS>ATOM
      1 C10         0.9040    1.3370   -1.4250 c2        1 41D      0.436200
      2 C01         3.7070    0.0110   -0.0440 c2        1 41D     -0.139200
      3 C02         3.8880    0.2450    1.2640 ce        1 41D     -0.022700
      4 C03         2.8750    0.2140    2.2300 cg        1 41D     -0.169300
      5 C04         2.0070    0.2110    3.0610 ch        1 41D     -0.132300
      6 N05         1.9110    0.5750   -1.6190 n2        1 41D     -0.585900
      7 C06         2.3990   -0.3810   -0.6580 c3        1 41D      0.125000
      8 C08        -0.2510   -0.2390    3.7370 c2        1 41D      0.053100
      9 O09        -1.3160   -0.1760    4.5900 oh        1 41D     -0.508100
     10 C11        -0.0040    1.5140   -0.2460 c3        1 41D     -0.148700
     11 C12        -1.4410    1.2440   -0.6330 c3        1 41D     -0.337600
     12 S13        -2.5600    1.6030    0.5810 s6        1 41D      1.605500
     13 O14        -2.2920    0.3120    1.5840 oh        1 41D     -0.773700
     14 O15        -2.2080    2.6920    1.3530 o         1 41D     -0.664300
     15 O16        -3.8490    1.4610    0.1160 o         1 41D     -0.664300
     16 H1         -0.5770   -1.3640    0.6040 ha        1 41D      0.002500
     17 H2          0.6440    1.9960   -2.2840 h4        1 41D      0.011800
     18 H3          2.5660   -1.3360   -1.2430 h1        1 41D      0.054700
     19 H4          4.5540    0.0840   -0.7460 ha        1 41D      0.141000
     20 H6          4.8950    0.4920    1.6510 ha        1 41D      0.143000
     21 H7          1.6550   -0.6210    0.1590 h1        1 41D      0.054700
     22 H8         -1.1300   -1.6990    0.8070 ha        1 41D      0.002500
     23 H9         -2.4720    0.4180    2.5190 ho        1 41D      0.492000
     24 H10         1.2220    0.7020    4.9820 ha        1 41D      0.146000
     25 H11        -0.5580   -0.7270    2.7910 h4        1 41D      0.188000
     26 H12        -1.0390    0.2330    5.4240 ho        1 41D      0.422000
     27 H13         0.2790    0.8380    0.6080 hc        1 41D      0.078200
     28 H14         0.1020    2.5740    0.1190 hc        1 41D      0.078200
     29 H15        -1.6790    1.8170   -1.5720 h1        1 41D      0.130700
     30 H16        -1.5220    0.1600   -0.9300 h1        1 41D      0.130700
     31 C07         0.9810    0.2420    4.0080 cf        1 41D     -0.148700
@<TRIPOS>BOND
     1    1    6 2   
     2    1   10 1   
     3    1   17 1   
     4    2    3 2   
     5    2    7 1   
     6    2   19 1   
     7    3    4 1   
     8    3   20 1   
     9    4    5 3   
    10    5   31 1   
    11    6    7 1   
    12    7   18 1   
    13    7   21 1   
    14    8    9 1   
    15    8   25 1   
    16    8   31 2   
    17    9   26 1   
    18   10   11 1   
    19   10   27 1   
    20   10   28 1   
    21   11   12 1   
    22   11   29 1   
    23   11   30 1   
    24   12   13 1   
    25   12   14 2   
    26   12   15 2   
    27   13   23 1   
    28   16   22 1   
    29   24   31 1   
@<TRIPOS>SUBSTRUCTURE
     1 41D         1 TEMP              0 ****  ****    0 ROOT
