@<TRIPOS>MOLECULE
41G
   38    31     1     0     0
SMALL
bcc


@<TRIPOS>ATOM
      1 N1         -2.1240   -0.5030   -4.8280 n3        1 41G     -0.336000
      2 C2         -0.7030   -0.6020   -4.7730 c2        1 41G      0.237000
      3 N2          0.0550   -0.6360   -5.9780 n3        1 41G     -0.331000
      4 N3         -0.0310   -0.6910   -3.4950 n1        1 41G     -0.232000
      5 C4         -0.8040   -0.6790   -2.2630 c1        1 41G     -0.082500
      6 C5         -2.1670   -0.5860   -2.3110 c1        1 41G     -0.082500
      7 C6         -2.8690   -0.4900   -3.6450 c1        1 41G      0.389000
      8 O6         -4.0790   -0.3230   -3.6870 o         1 41G     -0.349000
      9 N7         -2.6340   -0.6200   -1.0380 n2        1 41G     -0.158500
     10 C8         -1.5630   -0.7350   -0.1980 c1        1 41G     -0.034000
     11 N9         -0.4360   -0.7710   -0.9550 n2        1 41G     -0.158500
     12 CG          1.9370    0.3850    1.7480 c1        1 41G     -0.203000
     13 OH          3.1140    1.9920    5.3950 oh        1 41G     -0.217000
     14 CN          0.8470    0.3790    5.3080 c1        1 41G      0.356000
     15 ON2         0.9490   -0.7390    5.8750 o         1 41G     -0.297000
     16 CZ          2.9280    1.4020    4.1340 c1        1 41G      0.167000
     17 C1'         0.8430   -0.9070   -0.2920 c2        1 41G     -0.054000
     18 C2'         1.1990    0.4090    0.4080 c1        1 41G      0.261000
     19 O2'         0.9590    1.4660   -0.1330 o         1 41G     -0.278000
     20 CD1         3.1370    1.0770    1.7610 c2        1 41G     -0.010000
     21 ON          0.0370    1.2370    5.7490 o         1 41G     -0.297000
     22 CD2         1.2300    0.2000    2.9270 c1        1 41G     -0.006000
     23 CE1         3.6330    1.5870    2.9570 c1        1 41G     -0.246000
     24 CE2         1.7250    0.7090    4.1210 c1        1 41G     -0.199000
     25 CM7        -3.8920   -0.5780   -0.3650 c2        1 41G     -0.073000
     26 H1         -2.5500   -0.4760   -5.6380 hn        1 41G      0.254000
     27 H21N       -0.3720   -0.6630   -6.7880 hn        1 41G      0.223000
     28 H22N        0.9650   -0.6500   -5.9430 hn        1 41G      0.223000
     29 HM71       -4.3690   -1.4270   -0.5070 ha        1 41G      0.106333
     30 HM72       -4.4300    0.1640   -0.7210 ha        1 41G      0.106333
     31 HM73       -3.7440   -0.4430    0.5990 ha        1 41G      0.106333
     32 H8         -1.6030   -0.8060    0.7790 DU        1 41G      0.249000
     33 H1'1        1.5330   -1.1220   -0.9550 ha        1 41G      0.135000
     34 H1'2        0.7920   -1.6260    0.3720 ha        1 41G      0.135000
     35 HD2         0.4140   -0.3410    2.9280 ha        1 41G      0.167000
     36 HD1         3.6030    1.2590    0.9230 ha        1 41G      0.157000
     37 HE1         4.4800    2.0750    2.9660 ha        1 41G      0.145000
     38 HH          3.9880    2.0710    5.5600 ho        1 41G      0.228000
@<TRIPOS>BOND
     1    1    2 1   
     2    1    7 1   
     3    1   26 1   
     4    2    3 1   
     5    2    4 1   
     6    3   27 1   
     7    3   28 1   
     8    5    6 1   
     9    5   11 1   
    10    6    9 1   
    11    7    8 1   
    12    9   10 1   
    13   10   11 1   
    14   12   20 1   
    15   12   22 1   
    16   13   16 1   
    17   13   38 1   
    18   14   15 1   
    19   14   21 1   
    20   16   24 1   
    21   17   18 1   
    22   17   33 1   
    23   17   34 1   
    24   18   19 1   
    25   20   23 1   
    26   20   36 1   
    27   22   35 1   
    28   23   37 1   
    29   25   29 1   
    30   25   30 1   
    31   25   31 1   
@<TRIPOS>SUBSTRUCTURE
     1 41G         1 TEMP              0 ****  ****    0 ROOT
