@<TRIPOS>MOLECULE
41G
   38    40     1     0     0
SMALL
bcc


@<TRIPOS>ATOM
      1 N1          5.2070    1.5400    0.5710 n         1 41G     -0.503400
      2 C2          4.0680    2.0560    1.2300 cc        1 41G      0.756800
      3 N2          4.2020    3.2260    1.9440 nh        1 41G     -0.917800
      4 N3          2.8310    1.4560    1.2150 nd        1 41G     -0.673100
      5 C4          2.7720    0.2930    0.4950 cd        1 41G      0.254100
      6 C5          3.8800   -0.3000   -0.1980 cc        1 41G     -0.301900
      7 C6          5.1800    0.3370   -0.1740 c         1 41G      0.764100
      8 O6          6.2150   -0.0650   -0.7240 o         1 41G     -0.589500
      9 N7          3.4240   -1.4760   -0.8170 na        1 41G      0.019900
     10 C8          2.0930   -1.6070   -0.5180 cc        1 41G      0.032400
     11 N9          1.6630   -0.5570    0.2780 na        1 41G     -0.026100
     12 CG         -2.1420   -0.5590    0.3560 ca        1 41G     -0.298600
     13 ON2        -5.3450   -1.7970   -2.0460 o         1 41G     -0.807800
     14 CZ         -4.7710    0.2170    0.9730 ca        1 41G      0.258100
     15 C1'         0.3240   -0.3240    0.7730 c3        1 41G     -0.096700
     16 C2'        -0.8150   -0.9840   -0.0190 c         1 41G      0.611700
     17 O2'        -0.5480   -1.8150   -0.9030 o         1 41G     -0.600100
     18 CD1        -2.3990    0.2580    1.4770 ca        1 41G     -0.064000
     19 ON         -6.8360   -0.7250   -0.7680 o         1 41G     -0.807800
     20 CD2        -3.2290   -0.9850   -0.4380 ca        1 41G      0.028000
     21 CE1        -3.6850    0.6420    1.7880 ca        1 41G     -0.219000
     22 CE2        -4.5320   -0.6030   -0.1500 ca        1 41G     -0.253600
     23 CM7         4.2040   -2.3680   -1.6290 c3        1 41G     -0.005400
     24 H1          6.0820    2.0200    0.6170 hn        1 41G      0.353500
     25 H21N        5.0540    3.7320    1.9490 hn        1 41G      0.470300
     26 H22N        3.4040    3.6170    2.3920 hn        1 41G      0.470300
     27 HM71        4.2200   -3.3880   -1.1570 h1        1 41G      0.095700
     28 HM72        3.7500   -2.4350   -2.6550 h1        1 41G      0.095700
     29 HM73        5.2540   -1.9690   -1.7040 h1        1 41G      0.095700
     30 H8          1.4190   -2.4180   -0.8800 h5        1 41G      0.298000
     31 H1'1        0.2770   -0.7030    1.8370 h1        1 41G      0.112200
     32 H1'2        0.1550    0.7940    0.7730 h1        1 41G      0.112200
     33 HD2        -3.0560   -1.6330   -1.3190 ha        1 41G      0.182000
     34 HD1        -1.5770    0.5930    2.1270 ha        1 41G      0.101000
     35 HE1        -3.8970    1.2740    2.6620 ha        1 41G      0.144000
     36 HH         -6.6840    0.3070    0.7400 ho        1 41G      0.507000
     37 OH         -5.9900    0.6520    1.3590 oh        1 41G     -0.522100
     38 CN         -5.6550   -1.0820   -1.0610 c         1 41G      0.924200
@<TRIPOS>BOND
     1    1    2 1   
     2    1    7 1   
     3    1   24 1   
     4    2    3 1   
     5    2    4 2   
     6    3   25 1   
     7    3   26 1   
     8    4    5 1   
     9    5    6 2   
    10    5   11 1   
    11    6    7 1   
    12    6    9 1   
    13    7    8 2   
    14    9   10 2   
    15    9   23 1   
    16   10   11 1   
    17   10   30 1   
    18   11   15 1   
    19   12   16 1   
    20   12   18 ar  
    21   12   20 ar  
    22   13   38 1   
    23   14   21 ar  
    24   14   22 ar  
    25   14   37 1   
    26   15   16 1   
    27   15   31 1   
    28   15   32 1   
    29   16   17 2   
    30   18   21 ar  
    31   18   34 1   
    32   19   38 1   
    33   20   22 ar  
    34   20   33 1   
    35   21   35 1   
    36   22   38 1   
    37   23   27 1   
    38   23   28 1   
    39   23   29 1   
    40   36   37 1   
@<TRIPOS>SUBSTRUCTURE
     1 41G         1 TEMP              0 ****  ****    0 ROOT
