@<TRIPOS>MOLECULE
41I
   37    39     1     0     0
SMALL
bcc


@<TRIPOS>ATOM
      1 Cl          1.3240   -2.8640   -1.6840 cl        1 41I     -0.045400
      2 C14         2.2560   -1.6860   -0.9060 ca        1 41I      0.034400
      3 C13         1.8120   -1.1410    0.3060 ca        1 41I     -0.113000
      4 C12         2.5760   -0.1720    0.9530 ca        1 41I     -0.107500
      5 C15         3.4620   -1.2650   -1.4820 ca        1 41I     -0.113000
      6 C16         4.2350   -0.2970   -0.8440 ca        1 41I     -0.107500
      7 C11         3.7790    0.2370    0.3660 ca        1 41I      0.036100
      8 O2          4.4780    1.3210    0.9300 os        1 41I     -0.222200
      9 C8          5.4160    1.0120    1.8770 cc        1 41I      0.138500
     10 C7          5.7200   -0.2290    2.3520 cd        1 41I     -0.317200
     11 C6          6.7350   -0.4050    3.3770 c         1 41I      0.694700
     12 O           7.0820   -1.4590    3.9020 o         1 41I     -0.507500
     13 C9          6.1370    2.1630    2.4170 cc        1 41I      0.178600
     14 C10         5.8180    3.4890    1.9040 c         1 41I      0.513800
     15 N2          6.4140    4.6700    2.6650 nz        1 41I     -0.757400
     16 O1          5.1300    3.8150    0.9520 o         1 41I     -0.387100
     17 N1          7.0950    2.0120    3.3610 nd        1 41I     -0.370300
     18 N           7.3960    0.8480    3.8180 n         1 41I     -0.036000
     19 C3          8.4610    0.7580    4.8030 ca        1 41I     -0.019400
     20 C2          9.7320    1.2940    4.5230 ca        1 41I     -0.098500
     21 C1         10.7430    1.1790    5.4730 ca        1 41I     -0.116500
     22 C4          8.2120    0.1130    6.0290 ca        1 41I     -0.098500
     23 C5          9.2420    0.0100    6.9630 ca        1 41I     -0.116500
     24 C          10.5020    0.5410    6.6910 ca        1 41I     -0.091000
     25 H13         0.8590   -1.4730    0.7490 ha        1 41I      0.167500
     26 H15         3.8010   -1.6940   -2.4390 ha        1 41I      0.167500
     27 H12         2.2350    0.2720    1.8990 ha        1 41I      0.155500
     28 H16         5.1780    0.0520   -1.2890 ha        1 41I      0.155500
     29 H7          5.2260   -1.1460    1.9930 ha        1 41I      0.209000
     30 H21N        7.4370    4.6330    2.6240 hn        1 41I      0.467467
     31 H22N        6.0900    5.5490    2.2460 hn        1 41I      0.467467
     32 H2          9.9440    1.7850    3.5620 ha        1 41I      0.149500
     33 H4          7.2290   -0.3340    6.2450 ha        1 41I      0.149500
     34 H1         11.7420    1.5890    5.2540 ha        1 41I      0.157500
     35 H          11.3100    0.4510    7.4340 ha        1 41I      0.158000
     36 H5          9.0530   -0.5030    7.9190 ha        1 41I      0.157500
     37 H23         6.1240    4.6340    3.6460 hn        1 41I      0.467467
@<TRIPOS>BOND
     1    1    2 1   
     2    2    3 ar  
     3    2    5 ar  
     4    3    4 ar  
     5    3   25 1   
     6    4    7 ar  
     7    4   27 1   
     8    5    6 ar  
     9    5   26 1   
    10    6    7 ar  
    11    6   28 1   
    12    7    8 1   
    13    8    9 1   
    14    9   10 2   
    15    9   13 1   
    16   10   11 1   
    17   10   29 1   
    18   11   12 2   
    19   11   18 1   
    20   13   14 1   
    21   13   17 2   
    22   14   15 1   
    23   14   16 2   
    24   15   30 1   
    25   15   31 1   
    26   15   37 1   
    27   17   18 1   
    28   18   19 1   
    29   19   20 ar  
    30   19   22 ar  
    31   20   21 ar  
    32   20   32 1   
    33   21   24 ar  
    34   21   34 1   
    35   22   23 ar  
    36   22   33 1   
    37   23   24 ar  
    38   23   36 1   
    39   24   35 1   
@<TRIPOS>SUBSTRUCTURE
     1 41I         1 TEMP              0 ****  ****    0 ROOT
