@<TRIPOS>MOLECULE
41I
   37    39     1     0     0
SMALL
bcc


@<TRIPOS>ATOM
      1 CL          1.2720   -2.8060   -1.6750 cl        1 41I     -0.045400
      2 C14         2.2270   -1.6400   -0.9060 ca        1 41I      0.034400
      3 C13         1.7850   -1.0620    0.2920 ca        1 41I     -0.113000
      4 C12         2.5680   -0.1040    0.9310 ca        1 41I     -0.107500
      5 C15         3.4500   -1.2610   -1.4750 ca        1 41I     -0.113000
      6 C16         4.2420   -0.3030   -0.8450 ca        1 41I     -0.107500
      7 C11         3.7880    0.2630    0.3510 ca        1 41I      0.036100
      8 O2          4.5090    1.3370    0.9040 os        1 41I     -0.222200
      9 C8          5.4300    1.0200    1.8650 cc        1 41I      0.138500
     10 C7          5.6970   -0.2210    2.3640 cd        1 41I     -0.317200
     11 C6          6.6970   -0.4060    3.4010 c         1 41I      0.694700
     12 O           7.0110   -1.4610    3.9470 o         1 41I     -0.507500
     13 C9          6.1760    2.1600    2.3940 cc        1 41I      0.178600
     14 C10         5.8970    3.4860    1.8560 c         1 41I      0.513800
     15 N2          6.5180    4.6630    2.6040 n4        1 41I     -0.757400
     16 O1          5.2260    3.8140    0.8930 o         1 41I     -0.387100
     17 N1          7.1210    2.0000    3.3500 nd        1 41I     -0.370300
     18 N           7.3870    0.8360    3.8280 n         1 41I     -0.036000
     19 C3          8.4400    0.7350    4.8250 ca        1 41I     -0.019400
     20 C2          9.7270    1.2320    4.5480 ca        1 41I     -0.098500
     21 C1         10.7260    1.1070    5.5110 ca        1 41I     -0.116500
     22 C4          8.1630    0.1170    6.0580 ca        1 41I     -0.098500
     23 C5          9.1810    0.0020    7.0030 ca        1 41I     -0.116500
     24 C          10.4570    0.4950    6.7360 ca        1 41I     -0.091000
     25 H13         0.8190   -1.3610    0.7300 ha        1 41I      0.167500
     26 H15         3.7880   -1.7150   -2.4200 ha        1 41I      0.167500
     27 H12         2.2290    0.3660    1.8650 ha        1 41I      0.155500
     28 H16         5.1990    0.0120   -1.2850 ha        1 41I      0.155500
     29 H7          5.1820   -1.1310    2.0150 ha        1 41I      0.209000
     30 H21N        7.5390    4.5980    2.5720 hn        1 41I      0.467467
     31 H22N        6.2210    5.5430    2.1670 hn        1 41I      0.467467
     32 H2          9.9610    1.7020    3.5820 ha        1 41I      0.149500
     33 H4          7.1670   -0.3010    6.2720 ha        1 41I      0.149500
     34 H1         11.7370    1.4870    5.2950 ha        1 41I      0.157500
     35 H          11.2560    0.3960    7.4880 ha        1 41I      0.158000
     36 H5          8.9690   -0.4910    7.9660 ha        1 41I      0.157500
     37 H23         6.2180    4.6510    3.5820 hn        1 41I      0.467467
@<TRIPOS>BOND
     1    1    2 1   
     2    2    3 ar  
     3    2    5 ar  
     4    3    4 ar  
     5    3   25 1   
     6    4    7 ar  
     7    4   27 1   
     8    5    6 ar  
     9    5   26 1   
    10    6    7 ar  
    11    6   28 1   
    12    7    8 1   
    13    8    9 1   
    14    9   10 2   
    15    9   13 1   
    16   10   11 1   
    17   10   29 1   
    18   11   12 2   
    19   11   18 1   
    20   13   14 1   
    21   13   17 2   
    22   14   15 1   
    23   14   16 2   
    24   15   30 1   
    25   15   31 1   
    26   15   37 1   
    27   17   18 1   
    28   18   19 1   
    29   19   20 ar  
    30   19   22 ar  
    31   20   21 ar  
    32   20   32 1   
    33   21   24 ar  
    34   21   34 1   
    35   22   23 ar  
    36   22   33 1   
    37   23   24 ar  
    38   23   36 1   
    39   24   35 1   
@<TRIPOS>SUBSTRUCTURE
     1 41I         1 TEMP              0 ****  ****    0 ROOT
