@<TRIPOS>MOLECULE
41K
   19    19     1     0     0
SMALL
bcc


@<TRIPOS>ATOM
      1 OAA         0.1190   -0.6990   -0.0720 o         1 41K     -0.842300
      2 CAE         1.1550    0.0180   -0.0280 c         1 41K      0.945600
      3 OAD         1.4270    0.9100   -0.8820 o         1 41K     -0.842300
      4 CAF         2.1190   -0.0820    1.2040 c3        1 41K      0.232300
      5 CAB         1.7560    1.1100    2.0910 c3        1 41K     -0.105100
      6 N           3.5200   -0.1920    0.8220 n3        1 41K     -0.786200
      7 SAK         1.8670   -1.5740    2.3040 ss        1 41K     -0.466200
      8 CB          3.6160   -1.7770    2.6360 c3        1 41K      0.043700
      9 CA          4.3220   -0.5910    1.9770 c3        1 41K      0.057500
     10 C           5.8110   -0.8850    1.6350 c         1 41K      0.930600
     11 O           6.4990    0.0700    1.1700 o         1 41K     -0.858300
     12 OXT         6.2920   -2.0200    1.9130 o         1 41K     -0.858300
     13 H2          2.3780    1.1480    3.0160 hc        1 41K      0.022367
     14 H3          0.6820    1.0320    2.3840 hc        1 41K      0.022367
     15 H4          1.9010    2.0580    1.5160 hc        1 41K      0.022367
     16 H5          3.8650    0.6390    0.3880 hn        1 41K      0.388800
     17 H7          3.7900   -1.7860    3.7340 h1        1 41K      0.052200
     18 H8          3.9870   -2.7340    2.2040 h1        1 41K      0.052200
     19 H9          4.3700    0.2450    2.7450 h1        1 41K     -0.011300
@<TRIPOS>BOND
     1    1    2 1   
     2    2    3 1   
     3    2    4 1   
     4    4    5 1   
     5    4    6 1   
     6    4    7 1   
     7    5   13 1   
     8    5   14 1   
     9    5   15 1   
    10    6    9 1   
    11    6   16 1   
    12    7    8 1   
    13    8    9 1   
    14    8   17 1   
    15    8   18 1   
    16    9   10 1   
    17    9   19 1   
    18   10   11 1   
    19   10   12 1   
@<TRIPOS>SUBSTRUCTURE
     1 41K         1 TEMP              0 ****  ****    0 ROOT
