@<TRIPOS>MOLECULE
41K
   19    19     1     0     0
SMALL
bcc


@<TRIPOS>ATOM
      1 OAA         0.1100   -0.7000   -0.0550 o         1 41K     -0.842300
      2 CAE         1.1480    0.0140   -0.0210 c         1 41K      0.945600
      3 OAD         1.4200    0.8990   -0.8830 o         1 41K     -0.842300
      4 CAF         2.1180   -0.0820    1.2080 c3        1 41K      0.232300
      5 CAB         1.7630    1.1190    2.0870 c3        1 41K     -0.105100
      6 N           3.5170   -0.2000    0.8200 n7        1 41K     -0.786200
      7 SAK         1.8650   -1.5640    2.3190 ss        1 41K     -0.466200
      8 CB          3.6150   -1.7710    2.6450 c3        1 41K      0.043700
      9 CA          4.3220   -0.5930    1.9740 c3        1 41K      0.057500
     10 C           5.8090   -0.8950    1.6270 c         1 41K      0.930600
     11 O           6.4980    0.0540    1.1520 o         1 41K     -0.858300
     12 OXT         6.2870   -2.0300    1.9110 o         1 41K     -0.858300
     13 H2          1.9090    2.0620    1.5050 hc        1 41K      0.022367
     14 H3          2.3900    1.1610    3.0090 hc        1 41K      0.022367
     15 H4          0.6900    1.0470    2.3860 hc        1 41K      0.022367
     16 H5          3.8620    0.6280    0.3780 hn        1 41K      0.388800
     17 H7          3.7940   -1.7730    3.7420 h1        1 41K      0.052200
     18 H8          3.9810   -2.7330    2.2170 h1        1 41K      0.052200
     19 H9          4.3780    0.2490    2.7360 h1        1 41K     -0.011300
@<TRIPOS>BOND
     1    1    2 1   
     2    2    3 1   
     3    2    4 1   
     4    4    5 1   
     5    4    6 1   
     6    4    7 1   
     7    5   13 1   
     8    5   14 1   
     9    5   15 1   
    10    6    9 1   
    11    6   16 1   
    12    7    8 1   
    13    8    9 1   
    14    8   17 1   
    15    8   18 1   
    16    9   10 1   
    17    9   19 1   
    18   10   11 1   
    19   10   12 1   
@<TRIPOS>SUBSTRUCTURE
     1 41K         1 TEMP              0 ****  ****    0 ROOT
