@<TRIPOS>MOLECULE
41L
   32    26     1     0     0
SMALL
bcc


@<TRIPOS>ATOM
      1 C1          1.0950   -1.8760    2.0950 c1        1 41L     -0.073100
      2 C2          0.2000   -1.9770    0.8730 c3        1 41L     -0.142300
      3 C3         -0.5120   -0.6560    0.6570 c         1 41L      0.628100
      4 N4         -0.8610   -0.2450   -0.6600 n         1 41L     -0.367300
      5 N5         -1.3940    1.0110   -0.8730 n3        1 41L     -0.257800
      6 O6         -0.8610    0.0080    1.6130 o         1 41L     -0.548100
      7 C7          2.3020   -1.1980    2.0140 c1        1 41L     -0.076500
      8 C8          3.1770   -1.2070    3.0910 c1        1 41L     -0.068000
      9 C9          2.8440   -1.8930    4.2490 c1        1 41L     -0.068000
     10 C10         1.6380   -2.5710    4.3300 c1        1 41L     -0.068000
     11 C11         0.7630   -2.5630    3.2540 c1        1 41L     -0.068000
     12 C12        -1.2850    1.4620   -2.1490 c1        1 41L      0.040800
     13 C13        -1.9630    2.6430   -2.2380 c1        1 41L     -0.068000
     14 N14        -2.4890    2.9160   -1.0180 n1        1 41L     -0.439800
     15 C15        -2.1380    1.9090   -0.1720 c1        1 41L      0.344600
     16 C16        -0.6370    0.9360   -3.2820 c1        1 41L     -0.054500
     17 C17        -0.6880    1.6180   -4.4900 c1        1 41L     -0.068000
     18 C18        -1.3760    2.8150   -4.5800 c1        1 41L     -0.068000
     19 C19        -2.0150    3.3340   -3.4640 c1        1 41L     -0.013500
     20 H2         -0.4610   -2.6840    1.0110 hc        1 41L      0.089700
     21 H2A         0.7430   -2.1870    0.0880 hc        1 41L      0.089700
     22 HN4        -0.7310   -0.8100   -1.3630 hn        1 41L      0.321500
     23 H7          2.5360   -0.7150    1.2000 ha        1 41L      0.079500
     24 H8          4.0260   -0.7290    3.0340 ha        1 41L      0.079667
     25 H9          3.4590   -1.8990    5.0060 ha        1 41L      0.079667
     26 H10         1.4040   -3.0540    5.1450 ha        1 41L      0.079667
     27 H11        -0.0860   -3.0400    3.3120 ha        1 41L      0.079667
     28 H15        -2.3880    1.8370    0.7690 DU        1 41L      0.199000
     29 H16        -0.1510    0.0910   -3.2180 ha        1 41L      0.085500
     30 H17        -0.2380    1.2520   -5.2760 ha        1 41L      0.079667
     31 H18        -1.4120    3.2950   -5.4300 ha        1 41L      0.079667
     32 H19        -2.5010    4.1790   -3.5280 ha        1 41L      0.092500
@<TRIPOS>BOND
     1    1    2 1   
     2    1    7 3   
     3    2    3 1   
     4    2   20 1   
     5    2   21 1   
     6    3    4 1   
     7    3    6 2   
     8    4    5 1   
     9    4   22 1   
    10    5   12 1   
    11    5   15 1   
    12    7   23 1   
    13    8    9 3   
    14    8   24 1   
    15    9   25 1   
    16   10   11 3   
    17   10   26 1   
    18   11   27 1   
    19   12   16 3   
    20   13   19 3   
    21   14   15 3   
    22   16   29 1   
    23   17   18 3   
    24   17   30 1   
    25   18   31 1   
    26   19   32 1   
@<TRIPOS>SUBSTRUCTURE
     1 41L         1 TEMP              0 ****  ****    0 ROOT
