@<TRIPOS>MOLECULE
41L
   33    35     1     0     0
SMALL
bcc


@<TRIPOS>ATOM
      1 C1          0.0050    0.2520   -0.1240 ca        1 41L     -0.150300
      2 C2         -0.8000    0.7980   -1.2470 c3        1 41L     -0.071100
      3 C3         -1.4520    2.0950   -0.8700 c         1 41L      0.586100
      4 N4         -2.4420    2.6510   -1.9610 n4        1 41L     -0.583100
      5 N5         -1.7480    3.2090   -3.0460 na        1 41L     -0.020100
      6 O6         -1.3790    2.8210    0.0960 o         1 41L     -0.383100
      7 C7          1.3630    0.5760   -0.0120 ca        1 41L     -0.100500
      8 C8          2.1260    0.0300    1.0190 ca        1 41L     -0.118000
      9 C9          1.5390   -0.8390    1.9390 ca        1 41L     -0.085000
     10 C10         0.1870   -1.1670    1.8270 ca        1 41L     -0.118000
     11 C11        -0.5810   -0.6250    0.7980 ca        1 41L     -0.100500
     12 C12        -2.4820    3.3420   -4.2990 ca        1 41L     -0.177200
     13 C13        -2.2090    4.6640   -4.8180 ca        1 41L      0.083400
     14 N14        -1.4070    5.3910   -3.8810 nc        1 41L     -0.440100
     15 C15        -1.2040    4.5940   -2.8620 cd        1 41L      0.378700
     16 C16        -3.2160    2.4170   -5.0220 ca        1 41L     -0.095000
     17 C17        -3.6970    2.8210   -6.2770 ca        1 41L     -0.094000
     18 C18        -3.4380    4.0920   -6.7850 ca        1 41L     -0.098000
     19 C19        -2.6820    5.0330   -6.0700 ca        1 41L     -0.039000
     20 H2         -0.1430    0.9940   -2.1450 hc        1 41L      0.112200
     21 H2A        -1.5910    0.0580   -1.5530 hc        1 41L      0.112200
     22 HN4        -3.0050    1.8650   -2.3210 hn        1 41L      0.449800
     23 H7          1.8330    1.2550   -0.7390 ha        1 41L      0.134000
     24 H8          3.1940    0.2860    1.1040 ha        1 41L      0.155000
     25 H9          2.1440   -1.2700    2.7530 ha        1 41L      0.157000
     26 H10        -0.2750   -1.8580    2.5500 ha        1 41L      0.155000
     27 H11        -1.6430   -0.8950    0.7110 ha        1 41L      0.134000
     28 H15        -0.6050    4.8210   -1.9660 h5        1 41L      0.102800
     29 H16        -3.4130    1.4000   -4.6550 ha        1 41L      0.144000
     30 H17        -4.2900    2.1060   -6.8730 ha        1 41L      0.166000
     31 H18        -3.8300    4.3700   -7.7790 ha        1 41L      0.170000
     32 H19        -2.4650    6.0280   -6.4920 ha        1 41L      0.183000
     33 H42        -3.0780    3.3320   -1.5100 hn        1 41L      0.449800
@<TRIPOS>BOND
     1    1    2 1   
     2    1    7 ar  
     3    1   11 ar  
     4    2    3 1   
     5    2   20 1   
     6    2   21 1   
     7    3    4 1   
     8    3    6 2   
     9    4    5 1   
    10    4   22 1   
    11    4   33 1   
    12    5   12 1   
    13    5   15 1   
    14    7    8 ar  
    15    7   23 1   
    16    8    9 ar  
    17    8   24 1   
    18    9   10 ar  
    19    9   25 1   
    20   10   11 ar  
    21   10   26 1   
    22   11   27 1   
    23   12   13 ar  
    24   12   16 ar  
    25   13   14 1   
    26   13   19 ar  
    27   14   15 2   
    28   15   28 1   
    29   16   17 ar  
    30   16   29 1   
    31   17   18 ar  
    32   17   30 1   
    33   18   19 ar  
    34   18   31 1   
    35   19   32 1   
@<TRIPOS>SUBSTRUCTURE
     1 41L         1 TEMP              0 ****  ****    0 ROOT
