@<TRIPOS>MOLECULE
41L
   32    34     1     0     0
SMALL
bcc


@<TRIPOS>ATOM
      1 C1         -0.8680    0.2140   -0.2210 ca        1 41L     -0.107300
      2 C2         -2.2950    0.5590    0.0070 c3        1 41L     -0.110100
      3 C3         -2.8170    1.6100   -0.9580 c         1 41L      0.619100
      4 N4         -2.0580    2.8180   -1.0190 n         1 41L     -0.412200
      5 N5         -2.2380    3.7610   -1.9710 na        1 41L     -0.080900
      6 O6         -3.8960    1.4670   -1.5500 o         1 41L     -0.543100
      7 C7         -0.5250   -0.7990   -1.1240 ca        1 41L     -0.125000
      8 C8          0.8130   -1.1370   -1.3240 ca        1 41L     -0.126000
      9 C9          1.8170   -0.4690   -0.6220 ca        1 41L     -0.121000
     10 C10         1.4800    0.5390    0.2820 ca        1 41L     -0.126000
     11 C11         0.1440    0.8800    0.4830 ca        1 41L     -0.125000
     12 C12        -1.9210    3.6190   -3.3630 ca        1 41L     -0.100200
     13 C13        -2.7520    4.5750   -4.0630 ca        1 41L      0.082400
     14 N14        -3.6230    5.2150   -3.1410 nc        1 41L     -0.554100
     15 C15        -3.3530    4.6860   -1.9550 cd        1 41L      0.461700
     16 C16        -0.9690    2.8560   -4.0340 ca        1 41L     -0.125000
     17 C17        -0.8510    3.0430   -5.4090 ca        1 41L     -0.114000
     18 C18        -1.6470    3.9680   -6.0960 ca        1 41L     -0.145000
     19 C19        -2.5970    4.7460   -5.4410 ca        1 41L     -0.070000
     20 H2         -2.9410   -0.3530   -0.1170 hc        1 41L      0.089200
     21 H2A        -2.4450    0.9430    1.0540 hc        1 41L      0.089200
     22 HN4        -1.0700    2.6790   -0.8560 hn        1 41L      0.317500
     23 H7         -1.3150   -1.3310   -1.6760 ha        1 41L      0.139500
     24 H8          1.0750   -1.9340   -2.0350 ha        1 41L      0.138500
     25 H9          2.8720   -0.7380   -0.7790 ha        1 41L      0.138000
     26 H10         2.2690    1.0640    0.8400 ha        1 41L      0.138500
     27 H11        -0.1190    1.6680    1.2060 ha        1 41L      0.139500
     28 H15        -3.8510    4.9410   -1.0100 h5        1 41L      0.078800
     29 H16        -0.3350    2.1320   -3.5050 ha        1 41L      0.135000
     30 H17        -0.1140    2.4470   -5.9690 ha        1 41L      0.133000
     31 H18        -1.5160    4.0830   -7.1830 ha        1 41L      0.135000
     32 H19        -3.2120    5.4760   -5.9860 ha        1 41L      0.151000
@<TRIPOS>BOND
     1    1    2 1   
     2    1    7 ar  
     3    1   11 ar  
     4    2    3 1   
     5    2   20 1   
     6    2   21 1   
     7    3    4 1   
     8    3    6 2   
     9    4    5 1   
    10    4   22 1   
    11    5   12 1   
    12    5   15 1   
    13    7    8 ar  
    14    7   23 1   
    15    8    9 ar  
    16    8   24 1   
    17    9   10 ar  
    18    9   25 1   
    19   10   11 ar  
    20   10   26 1   
    21   11   27 1   
    22   12   13 ar  
    23   12   16 ar  
    24   13   14 1   
    25   13   19 ar  
    26   14   15 2   
    27   15   28 1   
    28   16   17 ar  
    29   16   29 1   
    30   17   18 ar  
    31   17   30 1   
    32   18   19 ar  
    33   18   31 1   
    34   19   32 1   
@<TRIPOS>SUBSTRUCTURE
     1 41L         1 TEMP              0 ****  ****    0 ROOT
