@<TRIPOS>MOLECULE
41L
   32    34     1     0     0
SMALL
bcc


@<TRIPOS>ATOM
      1 C1         -2.8490    0.5950   -0.6940 ca        1 41L     -0.109300
      2 C2         -2.3360    0.2990   -2.0580 c3        1 41L     -0.109100
      3 C3         -0.8370    0.5080   -2.1950 c         1 41L      0.636100
      4 N4         -0.0350   -0.1500   -1.2170 n         1 41L     -0.402200
      5 N5          1.2680    0.2320   -1.0300 na        1 41L     -0.088900
      6 O6         -0.3580    1.0890   -3.1820 o         1 41L     -0.565100
      7 C7         -2.9900   -0.4330    0.2460 ca        1 41L     -0.124500
      8 C8         -3.4920   -0.1570    1.5170 ca        1 41L     -0.126500
      9 C9         -3.8560    1.1460    1.8580 ca        1 41L     -0.120000
     10 C10        -3.7190    2.1730    0.9230 ca        1 41L     -0.126500
     11 C11        -3.2190    1.9000   -0.3490 ca        1 41L     -0.124500
     12 C12         2.0350   -0.2700    0.0710 ca        1 41L     -0.090200
     13 C13         3.4130   -0.2910   -0.3760 ca        1 41L      0.080400
     14 N14         3.4770    0.0940   -1.7400 nc        1 41L     -0.560100
     15 C15         2.2250    0.3260   -2.1150 cd        1 41L      0.449700
     16 C16         1.6890   -0.6010    1.3800 ca        1 41L     -0.127000
     17 C17         2.7210   -0.9560    2.2450 ca        1 41L     -0.116000
     18 C18         4.0590   -0.9730    1.8260 ca        1 41L     -0.145000
     19 C19         4.4230   -0.6380    0.5250 ca        1 41L     -0.071000
     20 H2         -2.5640   -0.7640   -2.3430 hc        1 41L      0.090700
     21 H2A        -2.8320    0.9690   -2.8130 hc        1 41L      0.090700
     22 HN4        -0.4980   -0.2120   -0.3170 hn        1 41L      0.309500
     23 H7         -2.7130   -1.4640   -0.0220 ha        1 41L      0.139500
     24 H8         -3.6050   -0.9690    2.2500 ha        1 41L      0.138500
     25 H9         -4.2520    1.3630    2.8610 ha        1 41L      0.138000
     26 H10        -4.0070    3.2010    1.1880 ha        1 41L      0.138500
     27 H11        -3.1160    2.7120   -1.0860 ha        1 41L      0.139500
     28 H15         1.8930    0.6570   -3.1120 h5        1 41L      0.099800
     29 H16         0.6470   -0.5830    1.7240 ha        1 41L      0.133000
     30 H17         2.4800   -1.2300    3.2830 ha        1 41L      0.133000
     31 H18         4.8400   -1.2570    2.5460 ha        1 41L      0.135000
     32 H19         5.4760   -0.6440    0.2070 ha        1 41L      0.151000
@<TRIPOS>BOND
     1    1    2 1   
     2    1    7 ar  
     3    1   11 ar  
     4    2    3 1   
     5    2   20 1   
     6    2   21 1   
     7    3    4 1   
     8    3    6 2   
     9    4    5 1   
    10    4   22 1   
    11    5   12 1   
    12    5   15 1   
    13    7    8 ar  
    14    7   23 1   
    15    8    9 ar  
    16    8   24 1   
    17    9   10 ar  
    18    9   25 1   
    19   10   11 ar  
    20   10   26 1   
    21   11   27 1   
    22   12   13 ar  
    23   12   16 ar  
    24   13   14 1   
    25   13   19 ar  
    26   14   15 2   
    27   15   28 1   
    28   16   17 ar  
    29   16   29 1   
    30   17   18 ar  
    31   17   30 1   
    32   18   19 ar  
    33   18   31 1   
    34   19   32 1   
@<TRIPOS>SUBSTRUCTURE
     1 41L         1 TEMP              0 ****  ****    0 ROOT
