@<TRIPOS>MOLECULE
41L
   32    34     1     0     0
SMALL
bcc


@<TRIPOS>ATOM
      1 C1          0.2690    0.2150   -0.8910 ca        1 41L     -0.107300
      2 C2          1.1830    0.5960   -2.0000 c3        1 41L     -0.110100
      3 C3          0.5960    1.6550   -2.9190 c         1 41L      0.619100
      4 N4          0.1420    2.8430   -2.2720 ns        1 41L     -0.412200
      5 N5         -0.6040    3.7860   -2.8910 na        1 41L     -0.080900
      6 O6          0.6320    1.5350   -4.1510 o         1 41L     -0.543100
      7 C7          0.3550    0.8590    0.3500 ca        1 41L     -0.125500
      8 C8         -0.4890    0.4850    1.3940 ca        1 41L     -0.126000
      9 C9         -1.4230   -0.5350    1.2090 ca        1 41L     -0.121000
     10 C10        -1.5090   -1.1820   -0.0240 ca        1 41L     -0.126000
     11 C11        -0.6660   -0.8110   -1.0710 ca        1 41L     -0.125500
     12 C12        -1.9640    3.6310   -3.3210 ca        1 41L     -0.100200
     13 C13        -2.1650    4.6030   -4.3750 ca        1 41L      0.082400
     14 N14        -0.9400    5.2660   -4.6510 nc        1 41L     -0.554100
     15 C15        -0.0430    4.7370   -3.8290 cd        1 41L      0.461700
     16 C16        -3.0110    2.8420   -2.8510 ca        1 41L     -0.125000
     17 C17        -4.2610    3.0200   -3.4390 ca        1 41L     -0.114000
     18 C18        -4.4680    3.9610   -4.4560 ca        1 41L     -0.145000
     19 C19        -3.4350    4.7630   -4.9330 ca        1 41L     -0.070000
     20 H2          1.4170   -0.3020   -2.6370 hc        1 41L      0.089200
     21 H2A         2.1550    0.9870   -1.5930 hc        1 41L      0.089200
     22 HN4        -0.2140    2.6820   -1.3400 hn        1 41L      0.317500
     23 H7          1.0980    1.6570    0.5040 ha        1 41L      0.139500
     24 H8         -0.4150    0.9930    2.3670 ha        1 41L      0.138500
     25 H9         -2.0870   -0.8300    2.0340 ha        1 41L      0.138000
     26 H10        -2.2420   -1.9890   -0.1720 ha        1 41L      0.138500
     27 H11        -0.7340   -1.3260   -2.0410 ha        1 41L      0.139500
     28 H15         1.0200    5.0080   -3.7780 h5        1 41L      0.078800
     29 H16        -2.8620    2.1060   -2.0500 ha        1 41L      0.135000
     30 H17        -5.1070    2.4050   -3.0950 ha        1 41L      0.133000
     31 H18        -5.4750    4.0670   -4.8890 ha        1 41L      0.135000
     32 H19        -3.6080    5.5050   -5.7260 ha        1 41L      0.151000
@<TRIPOS>BOND
     1    1    2 1   
     2    1    7 ar  
     3    1   11 ar  
     4    2    3 1   
     5    2   20 1   
     6    2   21 1   
     7    3    4 1   
     8    3    6 2   
     9    4    5 1   
    10    4   22 1   
    11    5   12 1   
    12    5   15 1   
    13    7    8 ar  
    14    7   23 1   
    15    8    9 ar  
    16    8   24 1   
    17    9   10 ar  
    18    9   25 1   
    19   10   11 ar  
    20   10   26 1   
    21   11   27 1   
    22   12   13 ar  
    23   12   16 ar  
    24   13   14 1   
    25   13   19 ar  
    26   14   15 2   
    27   15   28 1   
    28   16   17 ar  
    29   16   29 1   
    30   17   18 ar  
    31   17   30 1   
    32   18   19 ar  
    33   18   31 1   
    34   19   32 1   
@<TRIPOS>SUBSTRUCTURE
     1 41L         1 TEMP              0 ****  ****    0 ROOT
