@<TRIPOS>MOLECULE
41M
   57    58     1     0     0
SMALL
bcc


@<TRIPOS>ATOM
      1 N1         -3.0130    4.1850   -2.1900 n         1 41M     -0.535900
      2 C2         -2.9340    5.5940   -2.1810 c         1 41M      0.816500
      3 N3         -2.2910    6.0550   -1.0260 n         1 41M     -0.549900
      4 C4         -2.1600    3.6450   -1.1240 c3        1 41M      0.050700
      5 C5         -1.7520    4.9270   -0.2650 c3        1 41M      0.070700
      6 C6         -2.3390    4.8150    1.1390 c3        1 41M     -0.010300
      7 S7         -3.5870    3.5490    1.1340 ss        1 41M     -0.345200
      8 C8         -2.8260    2.6230   -0.2070 c3        1 41M      0.020400
      9 C9         -3.8230    1.6910   -0.8490 c3        1 41M     -0.064400
     10 C10        -4.2220    0.5640    0.0920 c3        1 41M     -0.105400
     11 C11        -5.7160    0.4110    0.2720 c3        1 41M     -0.086400
     12 C12        -6.3560    1.5630    1.0360 c3        1 41M     -0.154400
     13 C13        -7.0000    2.5310    0.0860 c         1 41M      0.555100
     14 N14        -6.5140    3.9790    0.1590 n4        1 41M     -0.716800
     15 C15        -6.8460    4.7210   -1.0840 c3        1 41M      0.103800
     16 C16        -6.3590    6.1670   -1.1070 c3        1 41M     -0.099400
     17 C17        -6.5750    6.7320   -2.5040 c3        1 41M     -0.083400
     18 C18        -6.0510    8.1540   -2.5950 c3        1 41M     -0.103400
     19 C19        -5.9360    8.6310   -4.0590 c3        1 41M      0.074500
     20 C20        -5.8160   10.1630   -4.0720 c         1 41M      0.496100
     21 N21        -7.0770   10.9650   -4.0200 n4        1 41M     -0.742400
     22 O22        -3.5010    6.3500   -3.0210 o         1 41M     -0.817500
     23 O23        -7.8640    2.3060   -0.7450 o         1 41M     -0.412100
     24 N24        -4.7420    8.0280   -4.7360 n4        1 41M     -0.839600
     25 O25        -4.7660   10.7830   -4.1070 o         1 41M     -0.332100
     26 H1         -3.0290    3.7120   -3.0660 hn        1 41M      0.345500
     27 H2         -1.8330    6.9340   -1.0090 hn        1 41M      0.355500
     28 H3         -1.2330    3.1760   -1.5680 h1        1 41M      0.110700
     29 H4         -0.6280    5.0000   -0.1960 h1        1 41M      0.116700
     30 H5         -2.7870    5.7680    1.5100 h1        1 41M      0.117200
     31 H6         -1.5340    4.5170    1.8590 h1        1 41M      0.117200
     32 H7         -2.0010    2.0070    0.2530 h1        1 41M      0.130700
     33 H8         -3.3570    1.2540   -1.7750 hc        1 41M      0.049200
     34 H9         -4.7310    2.2590   -1.1850 hc        1 41M      0.049200
     35 H10        -3.8250   -0.4070   -0.3160 hc        1 41M      0.086200
     36 H11        -3.7430    0.7050    1.1000 hc        1 41M      0.086200
     37 H12        -6.2210    0.2680   -0.7200 hc        1 41M      0.093700
     38 H13        -5.8990   -0.5300    0.8660 hc        1 41M      0.093700
     39 H14        -7.1900    1.1640    1.6860 hc        1 41M      0.118700
     40 H15        -5.6010    2.0540    1.7090 hc        1 41M      0.118700
     41 H16        -6.9620    4.4270    0.9640 hn        1 41M      0.470300
     42 H17        -7.9680    4.6940   -1.2200 hx        1 41M      0.111200
     43 H18        -6.3810    4.1490   -1.9390 hx        1 41M      0.111200
     44 H19        -6.9170    6.7800   -0.3520 hc        1 41M      0.078200
     45 H20        -5.2640    6.2170   -0.8570 hc        1 41M      0.078200
     46 H21        -6.0340    6.0710   -3.2350 hc        1 41M      0.070700
     47 H22        -7.6680    6.7050   -2.7600 hc        1 41M      0.070700
     48 H23        -6.7450    8.8430   -2.0460 hc        1 41M      0.101200
     49 H24        -5.0420    8.2130   -2.0940 hc        1 41M      0.101200
     50 H25        -6.8530    8.3000   -4.6400 hx        1 41M      0.147700
     51 H26        -7.6640   10.6840   -3.2230 hn        1 41M      0.502133
     52 H27        -6.8420   11.9730   -3.9170 hn        1 41M      0.502133
     53 H28        -4.6940    8.2890   -5.7270 hn        1 41M      0.500467
     54 H29        -3.8680    8.3130   -4.2570 hn        1 41M      0.500467
     55 H142       -5.4610    3.9790    0.3290 hn        1 41M      0.470300
     56 H213       -7.6190   10.8530   -4.8910 hn        1 41M      0.502133
     57 H243       -4.7900    6.9930   -4.6460 hn        1 41M      0.500467
@<TRIPOS>BOND
     1    1    2 1   
     2    1    4 1   
     3    1   26 1   
     4    2    3 1   
     5    2   22 2   
     6    3    5 1   
     7    3   27 1   
     8    4    5 1   
     9    4    8 1   
    10    4   28 1   
    11    5    6 1   
    12    5   29 1   
    13    6    7 1   
    14    6   30 1   
    15    6   31 1   
    16    7    8 1   
    17    8    9 1   
    18    8   32 1   
    19    9   10 1   
    20    9   33 1   
    21    9   34 1   
    22   10   11 1   
    23   10   35 1   
    24   10   36 1   
    25   11   12 1   
    26   11   37 1   
    27   11   38 1   
    28   12   13 1   
    29   12   39 1   
    30   12   40 1   
    31   13   14 1   
    32   13   23 2   
    33   14   15 1   
    34   14   41 1   
    35   14   55 1   
    36   15   16 1   
    37   15   42 1   
    38   15   43 1   
    39   16   17 1   
    40   16   44 1   
    41   16   45 1   
    42   17   18 1   
    43   17   46 1   
    44   17   47 1   
    45   18   19 1   
    46   18   48 1   
    47   18   49 1   
    48   19   20 1   
    49   19   24 1   
    50   19   50 1   
    51   20   21 1   
    52   20   25 2   
    53   21   51 1   
    54   21   52 1   
    55   21   56 1   
    56   24   53 1   
    57   24   54 1   
    58   24   57 1   
@<TRIPOS>SUBSTRUCTURE
     1 41M         1 TEMP              0 ****  ****    0 ROOT
