@<TRIPOS>MOLECULE
41M
   57    58     1     0     0
SMALL
bcc


@<TRIPOS>ATOM
      1 N1          0.0000    0.0000    0.0000 ns        1 41M     -0.229900
      2 C2          1.3410    0.0000    0.0000 c         1 41M      0.616500
      3 N3          1.8830    0.0000    1.2260 ns        1 41M     -0.182900
      4 C4         -0.4800   -0.0000    1.3910 c3        1 41M      0.014700
      5 C5          0.8050    0.0000    2.2270 c3        1 41M      0.002700
      6 C6          0.9320    1.2590    3.1090 c3        1 41M      0.108700
      7 S7         -0.0980    2.4880    2.2090 ss        1 41M     -0.381200
      8 C8         -1.3320    1.2610    1.6340 c3        1 41M      0.047400
      9 C9         -1.9900    1.7300    0.3340 c3        1 41M     -0.010400
     10 C10        -2.9240    2.9050    0.6300 c3        1 41M     -0.030400
     11 C11        -3.5820    3.3730   -0.6700 c3        1 41M     -0.017400
     12 C12        -4.5170    4.5470   -0.3740 c3        1 41M     -0.081400
     13 C13        -5.1640    5.0090   -1.6540 c         1 41M      0.322100
     14 N14        -6.0330    6.0400   -1.6360 ny        1 41M      0.156200
     15 C15        -6.6630    6.4880   -2.8800 c3        1 41M     -0.019200
     16 C16        -7.5970    7.6620   -2.5850 c3        1 41M     -0.026400
     17 C17        -8.2550    8.1310   -3.8840 c3        1 41M     -0.020400
     18 C18        -9.1890    9.3060   -3.5880 c3        1 41M     -0.039400
     19 C19        -9.8470    9.7740   -4.8870 c3        1 41M     -0.138500
     20 C20       -10.8580   10.8480   -4.5790 c         1 41M      0.276100
     21 N21       -12.0810   10.5120   -4.1220 nz        1 41M      0.238600
     22 O22         2.0040    0.0000   -1.0190 o         1 41M     -0.695500
     23 O23        -4.9040    4.4530   -2.6990 o         1 41M     -0.392100
     24 N24        -8.8200   10.3130   -5.7900 nz        1 41M      0.087400
     25 O25       -10.5720   12.0160   -4.7440 o         1 41M     -0.363100
     26 H1         -0.5810   -0.0000   -0.8150 hn        1 41M      0.215500
     27 H2          2.8630   -0.0000    1.4270 hn        1 41M      0.226500
     28 H3         -1.0600   -0.8930    1.5900 h1        1 41M      0.049700
     29 H4          0.8580   -0.8940    2.8360 h1        1 41M      0.057700
     30 H5          1.9630    1.5880    3.1590 h1        1 41M      0.067200
     31 H6          0.5310    1.0750    4.0980 h1        1 41M      0.067200
     32 H7         -2.0730    1.0780    2.4020 h1        1 41M      0.064700
     33 H8         -1.2240    2.0440   -0.3650 hc        1 41M      0.038200
     34 H9         -2.5590    0.9150   -0.0970 hc        1 41M      0.038200
     35 H10        -2.3550    3.7200    1.0600 hc        1 41M      0.031700
     36 H11        -3.6900    2.5900    1.3290 hc        1 41M      0.031700
     37 H12        -2.8160    3.6880   -1.3690 hc        1 41M      0.041200
     38 H13        -4.1500    2.5580   -1.1010 hc        1 41M      0.041200
     39 H14        -5.2820    4.2320    0.3250 hc        1 41M      0.061200
     40 H15        -3.9480    5.3620    0.0580 hc        1 41M      0.061200
     41 H16        -5.5440    6.8270   -1.2580 hn        1 41M      0.262300
     42 H17        -5.8980    6.8020   -3.5800 hx        1 41M      0.094200
     43 H18        -7.2330    5.6730   -3.3110 hx        1 41M      0.094200
     44 H19        -7.0270    8.4770   -2.1540 hc        1 41M      0.044200
     45 H20        -8.3620    7.3480   -1.8850 hc        1 41M      0.044200
     46 H21        -8.8250    7.3160   -4.3140 hc        1 41M      0.034700
     47 H22        -7.4900    8.4450   -4.5830 hc        1 41M      0.034700
     48 H23        -9.9550    8.9920   -2.8890 hc        1 41M      0.062200
     49 H24        -8.6200   10.1210   -3.1580 hc        1 41M      0.062200
     50 H25       -10.3430    8.9370   -5.3630 hx        1 41M      0.114700
     51 H26       -12.2800    9.5630   -4.3680 hn        1 41M      0.264467
     52 H27       -12.1040   10.6110   -3.1260 hn        1 41M      0.264467
     53 H28        -8.4700    9.5780   -6.3730 hn        1 41M      0.253133
     54 H29        -8.0700   10.6970   -5.2510 hn        1 41M      0.253133
     55 H142       -6.7710    5.7880   -1.0090 hn        1 41M      0.262300
     56 H213      -12.7680   11.1140   -4.5330 hn        1 41M      0.264467
     57 H243       -9.2220   11.0300   -6.3610 hn        1 41M      0.253133
@<TRIPOS>BOND
     1    1    2 1   
     2    1    4 1   
     3    1   26 1   
     4    2    3 1   
     5    2   22 2   
     6    3    5 1   
     7    3   27 1   
     8    4    5 1   
     9    4    8 1   
    10    4   28 1   
    11    5    6 1   
    12    5   29 1   
    13    6    7 1   
    14    6   30 1   
    15    6   31 1   
    16    7    8 1   
    17    8    9 1   
    18    8   32 1   
    19    9   10 1   
    20    9   33 1   
    21    9   34 1   
    22   10   11 1   
    23   10   35 1   
    24   10   36 1   
    25   11   12 1   
    26   11   37 1   
    27   11   38 1   
    28   12   13 1   
    29   12   39 1   
    30   12   40 1   
    31   13   14 1   
    32   13   23 2   
    33   14   15 1   
    34   14   41 1   
    35   14   55 1   
    36   15   16 1   
    37   15   42 1   
    38   15   43 1   
    39   16   17 1   
    40   16   44 1   
    41   16   45 1   
    42   17   18 1   
    43   17   46 1   
    44   17   47 1   
    45   18   19 1   
    46   18   48 1   
    47   18   49 1   
    48   19   20 1   
    49   19   24 1   
    50   19   50 1   
    51   20   21 1   
    52   20   25 2   
    53   21   51 1   
    54   21   52 1   
    55   21   56 1   
    56   24   53 1   
    57   24   54 1   
    58   24   57 1   
@<TRIPOS>SUBSTRUCTURE
     1 41M         1 TEMP              0 ****  ****    0 ROOT
