@<TRIPOS>MOLECULE
41P
   72    75     1     0     0
SMALL
bcc


@<TRIPOS>ATOM
      1 C11         0.5410   -0.6940   -0.7490 c3        1 41P      0.003000
      2 C12         1.8550   -0.0110   -1.1650 c2        1 41P      0.228000
      3 C01         1.3350    4.2020    6.5080 c3        1 41P     -0.094000
      4 C03         0.7370    2.5030    4.9340 c2        1 41P      0.234000
      5 C04         0.6750    3.3970    3.8610 c2        1 41P     -0.343000
      6 C05         0.3030    2.9410    2.6020 c2        1 41P      0.193000
      7 C06         0.4360    1.0500    4.7450 c3        1 41P     -0.186000
      8 C07         0.0850    0.6520    3.3940 c1        1 41P     -0.113000
      9 C08        -0.0100    1.5880    2.3660 c2        1 41P     -1.036000
     10 S09        -0.5930    1.0330    0.9580 s6        1 41P      2.927000
     11 N10         0.1810   -0.4250    0.6070 nh        1 41P     -0.753000
     12 N13         1.7340    1.1860   -2.0700 nz        1 41P     -0.150000
     13 O14         2.9880   -0.3260   -0.8450 o         1 41P     -0.161000
     14 C15         0.3180   -1.5000    1.5230 ca        1 41P      0.038000
     15 C16         1.5020   -1.5200    2.3760 ca        1 41P     -0.027000
     16 C17         1.8080   -2.6070    3.1130 ca        1 41P     -0.179000
     17 C18         0.9540   -3.7890    3.0460 ca        1 41P      0.031000
     18 N19         1.4860   -4.9940    3.2520 nu        1 41P      0.080000
     19 C20         0.8440   -6.1910    3.0760 c2        1 41P     -0.450000
     20 C21         1.3750   -7.3790    3.6470 c2        1 41P      0.305000
     21 N22         0.4070   -8.5420    3.6600 nz        1 41P     -0.126000
     22 O23         2.4740   -7.6040    4.1610 o         1 41P     -0.279000
     23 S24        -1.5630   -5.1800    4.6050 s6        1 41P      2.910000
     24 C25        -2.9510   -4.6910    5.3070 ca        1 41P     -0.939000
     25 C26        -4.1300   -5.4550    5.2260 ca        1 41P      0.033500
     26 C27        -5.2890   -5.0840    5.8870 ca        1 41P     -0.210500
     27 C28        -5.2920   -3.9090    6.6630 ca        1 41P      0.191000
     28 O29        -6.3650   -3.4360    7.3540 os        1 41P     -0.183000
     29 C30        -7.5650   -4.2150    7.3160 c3        1 41P     -0.086000
     30 C31        -4.1180   -3.1230    6.7660 ca        1 41P     -0.210500
     31 C32        -2.9790   -3.5220    6.0980 ca        1 41P      0.033500
     32 O33        -1.6310   -6.5500    4.2310 o         1 41P     -0.968500
     33 O34        -0.4390   -4.8360    5.3690 o         1 41P     -0.968500
     34 C35        -0.4430   -3.5630    2.6320 ca        1 41P      0.062000
     35 C36        -0.6290   -2.4930    1.6490 ca        1 41P     -0.027000
     36 C37        -1.8940   -2.4690    0.8650 c3        1 41P     -0.134000
     37 C38        -2.9500   -3.3680    1.3700 c2        1 41P     -0.079000
     38 C39        -2.7820   -4.1410    2.4570 c2        1 41P     -0.148000
     39 C40        -1.5160   -4.2400    3.1460 c2        1 41P     -0.672000
     40 O41        -1.9670    0.8100    0.9560 o         1 41P     -0.966000
     41 O42        -0.1310    1.8730   -0.1110 o         1 41P     -0.966000
     42 H111       -0.2880   -0.3540   -1.4400 h1        1 41P      0.143500
     43 H112        0.7170   -1.8000   -0.9160 h1        1 41P      0.143500
     44 H013        2.2310    4.5460    5.9390 h1        1 41P      0.121000
     45 H011        0.4410    4.8330    6.2870 h1        1 41P      0.121000
     46 H012        1.5420    4.1630    7.6090 h1        1 41P      0.121000
     47 H041        0.9060    4.4640    4.0070 ha        1 41P      0.174000
     48 H051        0.2510    3.6670    1.7650 ha        1 41P      0.163000
     49 H061        1.3130    0.4340    5.1050 hc        1 41P      0.193000
     50 H071       -0.4290    0.7630    5.4220 hc        1 41P      0.193000
     51 H131        1.1670    1.9150   -1.5900 hn        1 41P      0.278333
     52 H132        2.6590    1.5680   -2.2940 hn        1 41P      0.278333
     53 H161        2.1400   -0.6220    2.4110 ha        1 41P      0.152000
     54 H171        2.6970   -2.6340    3.7640 ha        1 41P      0.166000
     55 H201        2.4300   -5.0370    3.6200 hn        1 41P      0.276000
     56 H202       -0.0890   -6.1970    2.4930 h4        1 41P      0.194000
     57 H221        0.2060   -8.8470    2.7080 hn        1 41P      0.266000
     58 H222       -0.4750   -8.2340    4.1040 hn        1 41P      0.266000
     59 H261       -4.1240   -6.3860    4.6290 ha        1 41P      0.152500
     60 H271       -6.1920   -5.7070    5.8100 ha        1 41P      0.168500
     61 H301       -7.3840   -5.2300    7.7440 h1        1 41P      0.105000
     62 H302       -7.9510   -4.2810    6.2700 h1        1 41P      0.105000
     63 H303       -8.2650   -3.6260    7.9640 h1        1 41P      0.105000
     64 H311       -4.1350   -2.2140    7.3870 ha        1 41P      0.168500
     65 H321       -2.0550   -2.9240    6.1970 ha        1 41P      0.152500
     66 H371       -2.3250   -1.4200    0.8640 hc        1 41P      0.138500
     67 H381       -1.6670   -2.7290   -0.2100 hc        1 41P      0.138500
     68 H391       -3.9030   -3.3510    0.8130 ha        1 41P      0.161000
     69 H401       -3.6160   -4.7570    2.8380 ha        1 41P      0.155000
     70 H133        1.2560    0.9260   -2.9360 hn        1 41P      0.278333
     71 H223        0.8140   -9.3180    4.1910 hn        1 41P      0.266000
     72 O02         1.0540    2.8260    6.1920 os        1 41P     -0.158000
@<TRIPOS>BOND
     1    1    2 1   
     2    1   11 1   
     3    1   42 1   
     4    1   43 1   
     5    2   12 1   
     6    2   13 1   
     7    3   44 1   
     8    3   45 1   
     9    3   46 1   
    10    3   72 1   
    11    4    5 1   
    12    4    7 1   
    13    4   72 1   
    14    5    6 1   
    15    5   47 1   
    16    6    9 1   
    17    6   48 1   
    18    7    8 1   
    19    7   49 1   
    20    7   50 1   
    21    8    9 1   
    22    9   10 1   
    23   10   11 1   
    24   10   40 1   
    25   10   41 1   
    26   11   14 1   
    27   12   51 1   
    28   12   52 1   
    29   12   70 1   
    30   14   15 1   
    31   14   35 1   
    32   15   16 1   
    33   15   53 1   
    34   16   17 1   
    35   16   54 1   
    36   17   18 1   
    37   17   34 1   
    38   18   19 1   
    39   18   55 1   
    40   19   20 1   
    41   19   56 1   
    42   20   21 1   
    43   20   22 1   
    44   21   57 1   
    45   21   58 1   
    46   21   71 1   
    47   23   24 1   
    48   23   32 1   
    49   23   33 1   
    50   23   39 1   
    51   24   25 1   
    52   24   31 1   
    53   25   26 1   
    54   25   59 1   
    55   26   27 1   
    56   26   60 1   
    57   27   28 1   
    58   27   30 1   
    59   28   29 1   
    60   29   61 1   
    61   29   62 1   
    62   29   63 1   
    63   30   31 1   
    64   30   64 1   
    65   31   65 1   
    66   34   35 1   
    67   34   39 1   
    68   35   36 1   
    69   36   37 1   
    70   36   66 1   
    71   36   67 1   
    72   37   38 1   
    73   37   68 1   
    74   38   39 1   
    75   38   69 1   
@<TRIPOS>SUBSTRUCTURE
     1 41P         1 TEMP              0 ****  ****    0 ROOT
