@<TRIPOS>MOLECULE
41P
   72    75     1     0     0
SMALL
bcc


@<TRIPOS>ATOM
      1 C11         0.4400   -0.3000   -1.0260 c3        1 41P      0.190300
      2 C12         1.9270    0.0750   -1.1710 c         1 41P      0.512600
      3 C01         0.9830    2.1980    7.2160 c3        1 41P      0.102700
      4 C03        -0.1980    1.7250    5.1970 ca        1 41P      0.243600
      5 C04         0.9570    1.8860    4.4060 ca        1 41P     -0.212750
      6 C05         0.8580    1.7560    3.0330 ca        1 41P      0.041500
      7 C06        -1.4430    1.4370    4.5860 ca        1 41P     -0.212750
      8 C07        -1.5100    1.3150    3.2140 ca        1 41P      0.041500
      9 C08        -0.3650    1.4640    2.3970 ca        1 41P     -0.517000
     10 S09        -0.5030    1.4190    0.7830 sy        1 41P      1.551700
     11 N10        -0.0370   -0.1360    0.3100 nh        1 41P     -0.666900
     12 N13         2.2390    1.3730   -1.8650 n4        1 41P     -0.762400
     13 O14         2.8880   -0.5610   -0.7750 o         1 41P     -0.401600
     14 C15        -0.1880   -1.3210    1.0790 ca        1 41P      0.121100
     15 C16         0.9060   -1.8600    1.7400 ca        1 41P     -0.107000
     16 C17         0.7900   -3.0390    2.4990 ca        1 41P     -0.107000
     17 C18        -0.4250   -3.7020    2.6130 ca        1 41P      0.121100
     18 N19        -0.4980   -4.8980    3.3790 nh        1 41P     -0.666900
     19 C20        -0.8090   -6.1000    2.6830 c3        1 41P      0.190300
     20 C21         0.4360   -6.9060    2.2620 c         1 41P      0.512600
     21 N22         0.9120   -7.9770    3.2050 n4        1 41P     -0.762400
     22 O23         1.0780   -6.7810    1.2330 o         1 41P     -0.401600
     23 S24        -0.1990   -4.9130    5.0430 sy        1 41P      1.551700
     24 C25        -1.6090   -4.5440    5.7540 ca        1 41P     -0.517000
     25 C26        -2.5310   -5.5390    6.1350 ca        1 41P      0.041500
     26 C27        -3.6990   -5.2350    6.8110 ca        1 41P     -0.212750
     27 C28        -3.9790   -3.8910    7.1310 ca        1 41P      0.243600
     28 O29        -5.0900   -3.4660    7.7890 os        1 41P     -0.297400
     29 C30        -6.0140   -4.4620    8.2410 c3        1 41P      0.102700
     30 C31        -3.0700   -2.8690    6.7620 ca        1 41P     -0.212750
     31 C32        -1.9140   -3.2050    6.0910 ca        1 41P      0.041500
     32 O33         0.1450   -6.2860    5.2530 o         1 41P     -0.673300
     33 O34         0.8130   -3.9860    5.3140 o         1 41P     -0.673300
     34 C35        -1.5880   -3.1640    1.9540 ca        1 41P     -0.032500
     35 C36        -1.4660   -1.9820    1.1720 ca        1 41P     -0.032500
     36 C37        -2.6210   -1.4780    0.5080 ca        1 41P     -0.137500
     37 C38        -3.8370   -2.1060    0.6190 ca        1 41P     -0.094500
     38 C39        -3.9650   -3.2660    1.4160 ca        1 41P     -0.094500
     39 C40        -2.8680   -3.7760    2.0660 ca        1 41P     -0.137500
     40 O41        -1.8100    1.6310    0.3370 o         1 41P     -0.673300
     41 O42         0.4890    2.2160    0.1350 o         1 41P     -0.673300
     42 H111        0.3740   -1.3790   -1.3630 h1        1 41P      0.108700
     43 H112       -0.1780    0.3330   -1.7300 h1        1 41P      0.108700
     44 H013        1.7670    1.4190    7.0590 h1        1 41P      0.068033
     45 H011        0.6740    2.2460    8.2920 h1        1 41P      0.068033
     46 H012        1.3280    3.1970    6.8560 h1        1 41P      0.068033
     47 H041        1.9250    2.1250    4.8710 ha        1 41P      0.171500
     48 H051        1.7610    1.9050    2.4130 ha        1 41P      0.152250
     49 H061       -2.3410    1.3370    5.2160 ha        1 41P      0.171500
     50 H071       -2.4870    1.1190    2.7320 ha        1 41P      0.152250
     51 H131        3.2520    1.4920   -1.9770 hn        1 41P      0.482300
     52 H132        1.8680    2.1580   -1.2900 hn        1 41P      0.482300
     53 H161        1.9010   -1.3870    1.6780 ha        1 41P      0.161000
     54 H171        1.6920   -3.4020    3.0250 ha        1 41P      0.161000
     55 H201       -1.3530   -5.8850    1.7120 h1        1 41P      0.108700
     56 H202       -1.4620   -6.7580    3.3300 h1        1 41P      0.108700
     57 H221        1.7160   -8.4800    2.8140 hn        1 41P      0.482300
     58 H222        1.1820   -7.5460    4.1120 hn        1 41P      0.482300
     59 H261       -2.3010   -6.5950    5.9070 ha        1 41P      0.152250
     60 H271       -4.3920   -6.0370    7.1070 ha        1 41P      0.171500
     61 H301       -6.4470   -5.0110    7.3710 h1        1 41P      0.068033
     62 H302       -6.7980   -3.8540    8.7620 h1        1 41P      0.068033
     63 H303       -5.5130   -5.1620    8.9530 h1        1 41P      0.068033
     64 H311       -3.2990   -1.8260    7.0310 ha        1 41P      0.171500
     65 H321       -1.1900   -2.4120    5.8270 ha        1 41P      0.152250
     66 H371       -2.5530   -0.5600   -0.1000 ha        1 41P      0.146000
     67 H381       -4.7240   -1.7060    0.0980 ha        1 41P      0.161000
     68 H391       -4.9510   -3.7470    1.5120 ha        1 41P      0.161000
     69 H401       -2.9960   -4.6620    2.7060 ha        1 41P      0.146000
     70 H133        1.7890    1.4050   -2.7830 hn        1 41P      0.482300
     71 H223        0.1540   -8.6390    3.3940 hn        1 41P      0.482300
     72 O02        -0.2290    1.8200    6.5540 os        1 41P     -0.297400
@<TRIPOS>BOND
     1    1    2 1   
     2    1   11 1   
     3    1   42 1   
     4    1   43 1   
     5    2   12 1   
     6    2   13 2   
     7    3   44 1   
     8    3   45 1   
     9    3   46 1   
    10    3   72 1   
    11    4    5 ar  
    12    4    7 ar  
    13    4   72 1   
    14    5    6 ar  
    15    5   47 1   
    16    6    9 ar  
    17    6   48 1   
    18    7    8 ar  
    19    7   49 1   
    20    8    9 ar  
    21    8   50 1   
    22    9   10 1   
    23   10   11 1   
    24   10   40 2   
    25   10   41 2   
    26   11   14 1   
    27   12   51 1   
    28   12   52 1   
    29   12   70 1   
    30   14   15 ar  
    31   14   35 ar  
    32   15   16 ar  
    33   15   53 1   
    34   16   17 ar  
    35   16   54 1   
    36   17   18 1   
    37   17   34 ar  
    38   18   19 1   
    39   18   23 1   
    40   19   20 1   
    41   19   55 1   
    42   19   56 1   
    43   20   21 1   
    44   20   22 2   
    45   21   57 1   
    46   21   58 1   
    47   21   71 1   
    48   23   24 1   
    49   23   32 2   
    50   23   33 2   
    51   24   25 ar  
    52   24   31 ar  
    53   25   26 ar  
    54   25   59 1   
    55   26   27 ar  
    56   26   60 1   
    57   27   28 1   
    58   27   30 ar  
    59   28   29 1   
    60   29   61 1   
    61   29   62 1   
    62   29   63 1   
    63   30   31 ar  
    64   30   64 1   
    65   31   65 1   
    66   34   35 ar  
    67   34   39 ar  
    68   35   36 ar  
    69   36   37 ar  
    70   36   66 1   
    71   37   38 ar  
    72   37   67 1   
    73   38   39 ar  
    74   38   68 1   
    75   39   69 1   
@<TRIPOS>SUBSTRUCTURE
     1 41P         1 TEMP              0 ****  ****    0 ROOT
