@<TRIPOS>MOLECULE
41R
   51    46     1     0     0
SMALL
bcc


@<TRIPOS>ATOM
      1 C1          9.2890  -23.5860  -16.6490 cu        1 41R      0.262000
      2 C2          7.9510  -23.5020  -16.1540 cu        1 41R     -0.146000
      3 C3          5.0620   -0.0410    1.5100 c3        1 41R     -0.266000
      4 O4         10.1010  -23.8530  -17.5310 o         1 41R     -0.415000
      5 C11        10.0670  -25.5360  -21.1590 c3        1 41R     -0.152000
      6 C12         9.0850  -24.9150  -22.1670 c3        1 41R     -0.216000
      7 C13         8.6230  -25.8370  -23.1950 c1        1 41R      0.014000
      8 C19        14.1840  -24.3430  -20.3970 ca        1 41R      0.023000
      9 C20        15.3170  -24.6420  -19.6560 ca        1 41R     -0.118000
     10 C21        15.3240  -24.3200  -18.2710 ca        1 41R      0.220000
     11 C22        14.1970  -23.7130  -17.6740 ca        1 41R     -0.191000
     12 N3          4.6940  -24.2930  -18.1270 n8        1 41R     -0.186000
     13 C6          8.9670  -23.1230  -15.3390 cu        1 41R     -0.146000
     14 N7         10.5690  -24.6010  -20.1300 ny        1 41R     -0.471000
     15 S8         11.7940  -23.3110  -20.7350 s6        1 41R      2.823000
     16 O9         11.9440  -23.6220  -22.0780 o         1 41R     -0.862000
     17 O10        11.1520  -22.1430  -20.3680 o         1 41R     -0.862000
     18 C17         7.9010  -24.2620  -21.4750 c3        1 41R     -0.209000
     19 C18        13.0490  -23.7300  -19.8220 ca        1 41R     -0.993000
     20 C23        13.0850  -23.4280  -18.4440 ca        1 41R      0.034000
     21 C4        -84.9180  240.2820  198.3360 c1        1 41R      0.686000
     22 H1          6.0210    0.1000    0.9660 hc        1 41R      0.066250
     23 H2        -84.5430  238.7660  196.9330 DU        1 41R      0.128000
     24 H3          4.2270   -0.0980    0.7790 hc        1 41R      0.066250
     25 H4          5.1050   -0.9830    2.0990 hc        1 41R      0.066250
     26 H5          3.9020  -23.9610  -16.4140 ho        1 41R      0.180000
     27 H6         10.9760  -25.1400  -19.3620 hn        1 41R      0.262000
     28 H7         10.9610  -25.9390  -21.7180 hx        1 41R      0.130500
     29 H8          9.7660  -24.1090  -19.7110 hn        1 41R      0.262000
     30 H9          9.5530  -26.3970  -20.6430 hx        1 41R      0.130500
     31 H10         9.1170  -26.8180  -23.2550 ha        1 41R      0.055000
     32 H11         9.6300  -24.1240  -22.7870 hc        1 41R      0.182000
     33 H12        14.1740  -24.5810  -21.4800 ha        1 41R      0.173000
     34 H13        14.2190  -23.4700  -16.5990 ha        1 41R      0.184000
     35 H14         4.1610  -23.5730  -18.6090 hn        1 41R      0.134000
     36 H15         9.2940  -22.7450  -14.3870 ha        1 41R      0.225500
     37 H16         8.1910  -23.2790  -21.0310 hc        1 41R      0.102000
     38 H17         7.0860  -24.0770  -22.2200 hc        1 41R      0.102000
     39 H18         7.5000  -24.9230  -20.6700 hc        1 41R      0.102000
     40 H19        12.2010  -22.9560  -17.9680 ha        1 41R      0.183000
     41 H20        16.8450  -26.1450  -19.6700 hc        1 41R      0.111000
     42 H21        16.2850  -25.6170  -21.3170 hc        1 41R      0.111000
     43 H22        17.3470  -24.5320  -20.3210 hc        1 41R      0.111000
     44 H23       -86.0190  240.4460  198.3980 ha        1 41R      0.058000
     45 H24         4.8960    0.8180    2.1970 hc        1 41R      0.066250
     46 H25       -84.9310  239.2350  197.3440 DU        1 41R      0.128000
     47 F24        16.4040  -24.5940  -17.5210 f         1 41R     -0.054000
     48 O5          4.7860  -24.0250  -16.8310 oh        1 41R     -0.260000
     49 H32         4.2020  -25.1700  -18.2810 hn        1 41R      0.134000
     50 H71         6.8940  -23.6430  -16.3230 ha        1 41R      0.225500
     51 C25        16.5040  -25.2690  -20.2790 c3        1 41R     -0.194000
@<TRIPOS>BOND
     1    1    2 1   
     2    1    4 1   
     3    1   13 1   
     4    2   13 1   
     5    2   50 1   
     6    3   22 1   
     7    3   24 1   
     8    3   25 1   
     9    3   45 1   
    10    5    6 1   
    11    5   14 1   
    12    5   28 1   
    13    5   30 1   
    14    6    7 1   
    15    6   18 1   
    16    6   32 1   
    17    7   31 1   
    18    8    9 1   
    19    8   19 1   
    20    8   33 1   
    21    9   10 1   
    22    9   51 1   
    23   10   11 1   
    24   10   47 1   
    25   11   20 1   
    26   11   34 1   
    27   12   35 1   
    28   12   48 1   
    29   12   49 1   
    30   13   36 1   
    31   14   15 1   
    32   14   27 1   
    33   14   29 1   
    34   15   16 1   
    35   15   17 1   
    36   15   19 1   
    37   18   37 1   
    38   18   38 1   
    39   18   39 1   
    40   19   20 1   
    41   20   40 1   
    42   21   44 1   
    43   26   48 1   
    44   41   51 1   
    45   42   51 1   
    46   43   51 1   
@<TRIPOS>SUBSTRUCTURE
     1 41R         1 TEMP              0 ****  ****    0 ROOT
