@<TRIPOS>MOLECULE
41R
   51    50     1     0     0
SMALL
bcc


@<TRIPOS>ATOM
      1 C1       -621.8550  250.4840  133.1540 c         1 41R      0.463100
      2 C2       -622.2300  251.8830  133.7800 c3        1 41R      0.219500
      3 C3       -621.1090  253.8920  134.7570 c3        1 41R     -0.109600
      4 O4       -621.5610  250.2000  132.0120 o         1 41R     -0.411100
      5 C11      -622.7890  253.1290  131.7150 c3        1 41R      0.175800
      6 C12      -623.9820  253.6040  130.8720 c3        1 41R     -0.074700
      7 C13      -623.4480  254.3890  129.6900 c3        1 41R     -0.099100
      8 C19      1252.7500 -508.8340 -266.8110 ca        1 41R      0.048000
      9 C20      1252.9500 -507.5460 -266.3580 ca        1 41R     -0.123300
     10 C21      1251.8220 -506.8030 -265.8950 ca        1 41R      0.314900
     11 C22      1250.5300 -507.3880 -265.9040 ca        1 41R     -0.195000
     12 N3       -621.8820  249.2770  134.1300 n4        1 41R     -0.481300
     13 C6       -620.8730  252.6040  133.9920 c3        1 41R     -0.072700
     14 N7       -623.1710  252.5660  132.9910 n3        1 41R     -0.847200
     15 S8       1251.2730 -510.8860 -267.3440 s4        1 41R      1.663300
     16 O9       1252.3560 -511.5670 -267.7770 o         1 41R     -0.392400
     17 O10      1250.0290 -511.4120 -267.3400 o         1 41R     -0.392400
     18 C17      -624.8250  252.4410  130.3970 c3        1 41R     -0.099100
     19 C18      1251.4630 -509.4520 -266.8340 ca        1 41R     -0.666500
     20 C23      1250.3630 -508.6730 -266.3620 ca        1 41R      0.062000
     21 C4       -619.9060  251.7180  134.7470 c3        1 41R     -0.109600
     22 H1       -622.6920  251.6820  134.7940 h1        1 41R      0.082700
     23 H2       -621.7760  254.5820  134.1850 hc        1 41R      0.056033
     24 H3       -620.1320  254.4100  134.9250 hc        1 41R      0.056033
     25 H4       -621.5750  253.6850  135.7500 hc        1 41R      0.056033
     26 H5       -621.3480  248.1700  132.6570 ho        1 41R      0.482000
     27 H6       -622.1970  252.3760  131.1130 h1        1 41R      0.055200
     28 H7       -622.1190  254.0130  131.9230 h1        1 41R      0.055200
     29 H8       -624.6230  254.2900  131.4940 hc        1 41R      0.069700
     30 H9       -622.7960  253.7460  129.0500 hc        1 41R      0.045367
     31 H10      -624.2980  254.7610  129.0680 hc        1 41R      0.045367
     32 H11      -622.8540  255.2680  130.0370 hc        1 41R      0.045367
     33 H12      1253.6220 -509.4170 -267.1730 ha        1 41R      0.184000
     34 H13      1249.6680 -506.7970 -265.5410 ha        1 41R      0.203000
     35 H14      -622.8040  249.2400  134.6030 hn        1 41R      0.472300
     36 H15      -620.4300  252.8500  132.9850 hc        1 41R      0.088700
     37 H16      -624.2020  251.6980  129.8440 hc        1 41R      0.045367
     38 H17      -625.3260  251.9260  131.2510 hc        1 41R      0.045367
     39 H18      -625.6230  252.8100  129.7050 hc        1 41R      0.045367
     40 H19      1249.3490 -509.1220 -266.3660 ha        1 41R      0.185000
     41 H20      1254.2990 -506.0000 -266.9750 hc        1 41R      0.082033
     42 H21      1254.5710 -506.6310 -265.2980 hc        1 41R      0.082033
     43 H22      1255.0750 -507.6260 -266.7330 hc        1 41R      0.082033
     44 H23      -619.5610  250.8620  134.1170 hc        1 41R      0.056033
     45 H24      -620.3590  251.3330  135.6930 hc        1 41R      0.056033
     46 H25      -618.9980  252.3120  135.0250 hc        1 41R      0.056033
     47 F24      1251.9790 -505.5540 -265.4500 f         1 41R     -0.058900
     48 O5       -621.6950  248.0590  133.5760 oh        1 41R     -0.368300
     49 H32      -621.1480  249.4190  134.8510 hn        1 41R      0.472300
     50 H71      -624.1070  252.2220  133.0400 hn        1 41R      0.424800
     51 C25      1254.2950 -506.9260 -266.3440 c3        1 41R     -0.076800
@<TRIPOS>BOND
     1    1    2 1   
     2    1    4 2   
     3    1   12 1   
     4    2   13 1   
     5    2   14 1   
     6    2   22 1   
     7    3   13 1   
     8    3   23 1   
     9    3   24 1   
    10    3   25 1   
    11    5    6 1   
    12    5   14 1   
    13    5   27 1   
    14    5   28 1   
    15    6    7 1   
    16    6   18 1   
    17    6   29 1   
    18    7   30 1   
    19    7   31 1   
    20    7   32 1   
    21    8    9 ar  
    22    8   19 ar  
    23    8   33 1   
    24    9   10 ar  
    25    9   51 1   
    26   10   11 ar  
    27   10   47 1   
    28   11   20 ar  
    29   11   34 1   
    30   12   35 1   
    31   12   48 1   
    32   12   49 1   
    33   13   21 1   
    34   13   36 1   
    35   14   50 1   
    36   15   16 1   
    37   15   17 1   
    38   15   19 1   
    39   18   37 1   
    40   18   38 1   
    41   18   39 1   
    42   19   20 ar  
    43   20   40 1   
    44   21   44 1   
    45   21   45 1   
    46   21   46 1   
    47   26   48 1   
    48   41   51 1   
    49   42   51 1   
    50   43   51 1   
@<TRIPOS>SUBSTRUCTURE
     1 41R         1 TEMP              0 ****  ****    0 ROOT
