@<TRIPOS>MOLECULE
41S
   52    51     1     0     0
SMALL
bcc


@<TRIPOS>ATOM
      1 C1        -50.7940  -27.0540  140.8520 c3        1 41S      0.214500
      2 C2        -51.0500  -25.9540  141.9510 c         1 41S      0.464100
      3 C3         96.1600   52.2130 -267.9120 c3        1 41S      0.100700
      4 O5        -52.7870  -24.6030  143.0460 oh        1 41S     -0.365300
      5 N6        -49.5700  -27.7190  141.0420 n3        1 41S     -0.831200
      6 C10        98.5870   54.8190 -270.2600 ca        1 41S     -0.635500
      7 C11        97.7700   53.9310 -269.4930 ca        1 41S     -0.062000
      8 C12        97.5220   54.1590 -268.1550 ca        1 41S      0.083100
      9 C13        98.0920   55.3110 -267.5050 ca        1 41S      0.309900
     10 C14        98.9000   56.1920 -268.2560 ca        1 41S     -0.189000
     11 C15        99.1360   55.9470 -269.5930 ca        1 41S      0.061000
     12 O17        96.7580   53.3760 -267.3320 os        1 41S     -0.288900
     13 C19       -47.1380  -27.6840  141.6210 c3        1 41S     -0.074700
     14 C18       -48.3050  -27.0450  140.8510 c3        1 41S      0.177800
     15 C28       -51.0420  -26.3910  139.4760 c3        1 41S     -0.066700
     16 N4        -52.4550  -25.2960  141.9340 n4        1 41S     -0.477300
     17 O3        -50.3220  -25.5420  142.8320 o         1 41S     -0.414100
     18 S7         98.8510   54.5470 -271.7480 s4        1 41S      1.660300
     19 O8         98.2950   53.4540 -272.3160 o         1 41S     -0.392900
     20 O9         99.6290   55.4130 -272.4330 o         1 41S     -0.392900
     21 F16        97.8560   55.5350 -266.2140 f         1 41S     -0.042900
     22 C5        -46.8520  -29.0850  141.1270 c3        1 41S     -0.096600
     23 C6        -45.9160  -26.8020  141.4590 c3        1 41S     -0.096600
     24 H1        -51.6230  -27.8140  141.0200 h1        1 41S      0.094700
     25 H2         95.6060   51.7680 -267.0440 h1        1 41S      0.071367
     26 H3         95.4540   52.5030 -268.7280 h1        1 41S      0.071367
     27 H4         96.9470   51.5130 -268.2830 h1        1 41S      0.071367
     28 H5        -51.9610  -24.3120  143.5040 ho        1 41S      0.482000
     29 H6        -50.3730  -24.4170  140.1320 hc        1 41S      0.059367
     30 H7        -50.6540  -24.5900  138.3480 hc        1 41S      0.059367
     31 H8        -49.1830  -25.3140  139.1020 hc        1 41S      0.059367
     32 H9        -49.6680  -27.5910  138.2740 hc        1 41S      0.059367
     33 H10       -51.1170  -26.9570  137.3910 hc        1 41S      0.059367
     34 H11       -51.2940  -28.3450  138.5490 hc        1 41S      0.059367
     35 H12        97.3320   53.0460 -269.9920 ha        1 41S      0.185000
     36 H13        99.3380   57.0770 -267.7570 ha        1 41S      0.205000
     37 H14        99.7740   56.6520 -270.1640 ha        1 41S      0.186000
     38 H15       -47.4000  -27.7300  142.7160 hc        1 41S      0.053700
     39 H16       -48.3890  -25.9630  141.1690 h1        1 41S      0.051700
     40 H17       -48.0670  -27.0720  139.7480 h1        1 41S      0.051700
     41 H18       -52.1460  -26.1550  139.4380 hc        1 41S      0.031700
     42 H19       -53.1780  -26.0320  141.8330 hn        1 41S      0.472800
     43 H20       -45.9550  -29.4970  141.6530 hc        1 41S      0.047367
     44 H21       -47.7140  -29.7670  141.3230 hc        1 41S      0.047367
     45 H22       -46.6440  -29.0810  140.0300 hc        1 41S      0.047367
     46 H23       -45.6280  -26.7200  140.3840 hc        1 41S      0.047367
     47 H24       -45.0560  -27.2410  142.0210 hc        1 41S      0.047367
     48 H25       -46.1120  -25.7770  141.8570 hc        1 41S      0.047367
     49 C7        -50.2710  -25.1100  139.2610 c3        1 41S     -0.104600
     50 C8        -50.7610  -27.3810  138.3620 c3        1 41S     -0.104600
     51 H61       -49.5710  -28.3760  141.7970 hn        1 41S      0.424800
     52 H42       -52.5170  -24.6610  141.1160 hn        1 41S      0.472800
@<TRIPOS>BOND
     1    1    2 1   
     2    1    5 1   
     3    1   15 1   
     4    1   24 1   
     5    2   16 1   
     6    2   17 2   
     7    3   12 1   
     8    3   25 1   
     9    3   26 1   
    10    3   27 1   
    11    4   16 1   
    12    4   28 1   
    13    5   14 1   
    14    5   51 1   
    15    6    7 ar  
    16    6   11 ar  
    17    6   18 1   
    18    7    8 ar  
    19    7   35 1   
    20    8    9 ar  
    21    8   12 1   
    22    9   10 ar  
    23    9   21 1   
    24   10   11 ar  
    25   10   36 1   
    26   11   37 1   
    27   13   14 1   
    28   13   22 1   
    29   13   23 1   
    30   13   38 1   
    31   14   39 1   
    32   14   40 1   
    33   15   41 1   
    34   15   49 1   
    35   15   50 1   
    36   16   42 1   
    37   16   52 1   
    38   18   19 1   
    39   18   20 1   
    40   22   43 1   
    41   22   44 1   
    42   22   45 1   
    43   23   46 1   
    44   23   47 1   
    45   23   48 1   
    46   29   49 1   
    47   30   49 1   
    48   31   49 1   
    49   32   50 1   
    50   33   50 1   
    51   34   50 1   
@<TRIPOS>SUBSTRUCTURE
     1 41S         1 TEMP              0 ****  ****    0 ROOT
