@<TRIPOS>MOLECULE
41T
   55    54     1     0     0
SMALL
bcc


@<TRIPOS>ATOM
      1 C1        -97.4670 -507.7720   15.6630 c3        1 41T      0.132500
      2 C2        -98.1750 -509.1200   15.4160 c         1 41T      0.537100
      3 O5        -97.8750 -511.3680   14.5090 oh        1 41T     -0.364300
      4 N6        -96.8650 -507.3130   14.4340 n3        1 41T     -0.872200
      5 C7        -97.6010 -506.2950   13.7090 c3        1 41T      0.151800
      6 C8        -97.5850 -504.8750   14.2930 c3        1 41T     -0.095700
      7 C9        -96.1900 -504.2900   14.2770 c3        1 41T     -0.099100
      8 C10       -98.5350 -504.0070   13.4950 c3        1 41T     -0.099100
      9 C14       163.4630  827.8350  -26.1050 ca        1 41T     -0.644500
     10 C15       163.6510  826.4280  -25.9870 ca        1 41T      0.060000
     11 C16       164.9180  825.8610  -25.9940 ca        1 41T     -0.100300
     12 C19       164.6340  828.6390  -26.2320 ca        1 41T      0.033000
     13 C20       165.1100  824.3810  -25.8690 c3        1 41T      0.161700
     14 C22       163.9020  822.3570  -25.6400 c3        1 41T      0.114700
     15 O3        -99.2260 -509.5380   15.8600 o         1 41T     -0.408100
     16 N4        -97.4460 -510.0880   14.4650 n4        1 41T     -0.459300
     17 S11       162.0570  828.4570  -26.0970 s4        1 41T      1.662300
     18 O12       160.9830  827.6490  -25.9740 o         1 41T     -0.391400
     19 O13       161.9460  829.7980  -26.2140 o         1 41T     -0.391400
     20 C17       166.0470  826.6860  -26.1200 ca        1 41T      0.042000
     21 C18       165.8940  828.0740  -26.2390 ca        1 41T     -0.148000
     22 O21       163.8270  823.7730  -25.7630 os        1 41T     -0.441600
     23 C23       -96.4990 -507.9740   16.8560 c3        1 41T     -0.074700
     24 C25       -95.7140 -506.7030   17.1130 c3        1 41T     -0.111600
     25 H1        -98.3110 -507.0900   16.0060 h1        1 41T      0.124700
     26 H2        -98.8290 -511.3820   14.7700 ho        1 41T      0.483000
     27 H3        -98.6710 -506.6320   13.6100 h1        1 41T      0.067700
     28 H4        -97.1480 -506.2620   12.6750 h1        1 41T      0.067700
     29 H5        -97.9480 -504.9130   15.3600 hc        1 41T      0.045700
     30 H6        -96.2210 -503.2210   14.6040 hc        1 41T      0.047700
     31 H7        -95.7560 -504.3280   13.2490 hc        1 41T      0.047700
     32 H8        -95.5140 -504.8440   14.9730 hc        1 41T      0.047700
     33 H9        -98.5540 -502.9730   13.9180 hc        1 41T      0.047700
     34 H10       -98.2100 -503.9450   12.4280 hc        1 41T      0.047700
     35 H11       -99.5720 -504.4210   13.5280 hc        1 41T      0.047700
     36 H12       162.7650  825.7650  -25.8860 ha        1 41T      0.203000
     37 H13       164.5220  829.7370  -26.3260 ha        1 41T      0.179000
     38 H14       165.7170  824.1490  -24.9500 h1        1 41T      0.066700
     39 H15       165.6440  823.9850  -26.7760 h1        1 41T      0.066700
     40 H16       164.3890  821.9130  -26.5430 h1        1 41T      0.053367
     41 H17       164.4630  822.0750  -24.7150 h1        1 41T      0.053367
     42 H18       162.8320  822.0360  -25.5690 h1        1 41T      0.053367
     43 H19       -96.5610 -508.5620   18.9380 hc        1 41T      0.061033
     44 H20       -97.8800 -509.2850   17.9330 hc        1 41T      0.061033
     45 H21       -97.9580 -507.5370   18.4130 hc        1 41T      0.061033
     46 H22       -97.5290 -509.7350   13.4910 hn        1 41T      0.486800
     47 H23       167.0590  826.2400  -26.1270 ha        1 41T      0.181000
     48 H24       166.7870  828.7170  -26.3380 ha        1 41T      0.188000
     49 H25       -95.7740 -508.7980   16.6000 hc        1 41T      0.049700
     50 H26       -94.8840 -506.5790   16.3770 hc        1 41T      0.061033
     51 H27       -96.3790 -505.8060   17.0620 hc        1 41T      0.061033
     52 H28       -95.2580 -506.7420   18.1340 hc        1 41T      0.061033
     53 C24       -97.2730 -508.3630   18.0990 c3        1 41T     -0.111600
     54 H61       -95.9070 -507.0420   14.5720 hn        1 41T      0.409800
     55 H42       -96.4380 -510.1150   14.7160 hn        1 41T      0.486800
@<TRIPOS>BOND
     1    1    2 1   
     2    1    4 1   
     3    1   23 1   
     4    1   25 1   
     5    2   15 2   
     6    2   16 1   
     7    3   16 1   
     8    3   26 1   
     9    4    5 1   
    10    4   54 1   
    11    5    6 1   
    12    5   27 1   
    13    5   28 1   
    14    6    7 1   
    15    6    8 1   
    16    6   29 1   
    17    7   30 1   
    18    7   31 1   
    19    7   32 1   
    20    8   33 1   
    21    8   34 1   
    22    8   35 1   
    23    9   10 ar  
    24    9   12 ar  
    25    9   17 1   
    26   10   11 ar  
    27   10   36 1   
    28   11   13 1   
    29   11   20 ar  
    30   12   21 ar  
    31   12   37 1   
    32   13   22 1   
    33   13   38 1   
    34   13   39 1   
    35   14   22 1   
    36   14   40 1   
    37   14   41 1   
    38   14   42 1   
    39   16   46 1   
    40   16   55 1   
    41   17   18 1   
    42   17   19 1   
    43   20   21 ar  
    44   20   47 1   
    45   21   48 1   
    46   23   24 1   
    47   23   49 1   
    48   23   53 1   
    49   24   50 1   
    50   24   51 1   
    51   24   52 1   
    52   43   53 1   
    53   44   53 1   
    54   45   53 1   
@<TRIPOS>SUBSTRUCTURE
     1 41T         1 TEMP              0 ****  ****    0 ROOT
