@<TRIPOS>MOLECULE
41U
   42    43     1     0     0
SMALL
bcc


@<TRIPOS>ATOM
      1 C16         0.2330    1.1830    0.0600 c3        1 41U      0.085100
      2 O1          1.0670    2.6070    3.1700 os        1 41U     -0.403900
      3 C15         2.3300   -0.0910    0.3310 c3        1 41U      0.109800
      4 C14         3.7480   -0.0990    0.8800 c3        1 41U     -0.115400
      5 C13         5.6820   -1.6120    3.2500 ca        1 41U     -0.110500
      6 C12         7.0080   -1.7860    3.6430 ca        1 41U     -0.122500
      7 C11         7.8860   -0.7000    3.6470 ca        1 41U     -0.101000
      8 C10         7.4350    0.5620    3.2590 ca        1 41U     -0.122500
      9 O           3.2570    1.0710    2.8750 os        1 41U     -0.372900
     10 C3          1.2830    1.1410    6.5540 ca        1 41U     -0.117000
     11 C2          2.3740    0.2860    6.3900 ca        1 41U     -0.097000
     12 C1          3.0470    0.2210    5.1710 ca        1 41U     -0.152000
     13 N           1.5870    1.1650    0.6480 ny        1 41U     -0.763000
     14 C           2.6220    1.0250    4.1090 ca        1 41U      0.074100
     15 C4          0.8520    1.9450    5.5010 ca        1 41U     -0.120000
     16 C9          6.1100    0.7390    2.8610 ca        1 41U     -0.110500
     17 C8          5.2300   -0.3480    2.8530 ca        1 41U     -0.151300
     18 C7          3.8110   -0.1790    2.4080 c3        1 41U      0.190400
     19 C6          1.1710    4.0270    3.3320 c3        1 41U      0.119700
     20 C5          1.5160    1.8850    4.2710 ca        1 41U      0.051100
     21 H1         -0.2900    2.1240    0.3840 hx        1 41U      0.103700
     22 H2         -0.3470    0.2930    0.4250 hx        1 41U      0.103700
     23 H3          0.3020    1.1520   -1.0600 hx        1 41U      0.103700
     24 H4          2.3600   -0.2020   -0.7920 hx        1 41U      0.100200
     25 H5          1.7420   -0.9510    0.7610 hx        1 41U      0.100200
     26 H6          4.3180    0.8050    0.5360 hc        1 41U      0.098700
     27 H7          4.2650   -1.0060    0.4650 hc        1 41U      0.098700
     28 H8          4.9940   -2.4710    3.2550 ha        1 41U      0.136000
     29 H9          7.3620   -2.7810    3.9520 ha        1 41U      0.148500
     30 H10         8.9320   -0.8400    3.9590 ha        1 41U      0.151000
     31 H11         8.1240    1.4200    3.2670 ha        1 41U      0.148500
     32 H12         0.7590    1.1840    7.5220 ha        1 41U      0.157000
     33 H13         2.7130   -0.3400    7.2310 ha        1 41U      0.156000
     34 H14         3.9180   -0.4410    5.0440 ha        1 41U      0.162000
     35 H15         1.5280    1.2660    1.6820 hn        1 41U      0.472800
     36 H17        -0.0060    2.6230    5.6260 ha        1 41U      0.156000
     37 H18         5.7470    1.7350    2.5660 ha        1 41U      0.136000
     38 H19         3.1770   -1.0320    2.7820 h1        1 41U      0.066700
     39 H20         2.2450    4.3240    3.4020 h1        1 41U      0.053033
     40 H21         0.6960    4.4380    2.4070 h1        1 41U      0.053033
     41 H22         0.6130    4.3560    4.2420 h1        1 41U      0.053033
     42 HN3         2.1280    1.9680    0.3080 hn        1 41U      0.472800
@<TRIPOS>BOND
     1    1   13 1   
     2    1   21 1   
     3    1   22 1   
     4    1   23 1   
     5    2   19 1   
     6    2   20 1   
     7    3    4 1   
     8    3   13 1   
     9    3   24 1   
    10    3   25 1   
    11    4   18 1   
    12    4   26 1   
    13    4   27 1   
    14    5    6 ar  
    15    5   17 ar  
    16    5   28 1   
    17    6    7 ar  
    18    6   29 1   
    19    7    8 ar  
    20    7   30 1   
    21    8   16 ar  
    22    8   31 1   
    23    9   14 1   
    24    9   18 1   
    25   10   11 ar  
    26   10   15 ar  
    27   10   32 1   
    28   11   12 ar  
    29   11   33 1   
    30   12   14 ar  
    31   12   34 1   
    32   13   35 1   
    33   13   42 1   
    34   14   20 ar  
    35   15   20 ar  
    36   15   36 1   
    37   16   17 ar  
    38   16   37 1   
    39   17   18 1   
    40   18   38 1   
    41   19   39 1   
    42   19   40 1   
    43   19   41 1   
@<TRIPOS>SUBSTRUCTURE
     1 41U         1 TEMP              0 ****  ****    0 ROOT
