@<TRIPOS>MOLECULE
41U
   42    43     1     0     0
SMALL
bcc


@<TRIPOS>ATOM
      1 C16         0.2490    1.2150    0.0490 c3        1 41U      0.085100
      2 O1          1.1050    2.6510    3.1470 os        1 41U     -0.403900
      3 C15         2.3190   -0.0980    0.3360 c3        1 41U      0.109800
      4 C14         3.7360   -0.1290    0.8890 c3        1 41U     -0.115400
      5 C13         5.6340   -1.6590    3.2780 ca        1 41U     -0.110500
      6 C12         6.9550   -1.8550    3.6750 ca        1 41U     -0.122500
      7 C11         7.8540   -0.7880    3.6710 ca        1 41U     -0.101000
      8 C10         7.4300    0.4790    3.2700 ca        1 41U     -0.122500
      9 O           3.2640    1.0690    2.8720 os        1 41U     -0.372900
     10 C3          1.2830    1.2120    6.5460 ca        1 41U     -0.117000
     11 C2          2.3570    0.3340    6.3920 ca        1 41U     -0.097000
     12 C1          3.0320    0.2450    5.1760 ca        1 41U     -0.152000
     13 N           1.6020    1.1760    0.6400 n4        1 41U     -0.763000
     14 C           2.6260    1.0470    4.1040 ca        1 41U      0.074100
     15 C4          0.8710    2.0150    5.4840 ca        1 41U     -0.120000
     16 C9          6.1100    0.6790    2.8680 ca        1 41U     -0.110500
     17 C8          5.2080   -0.3900    2.8680 ca        1 41U     -0.151300
     18 C7          3.7930   -0.1960    2.4180 c3        1 41U      0.190400
     19 C6          1.2370    4.0700    3.2970 c3        1 41U      0.119700
     20 C5          1.5360    1.9310    4.2560 ca        1 41U      0.051100
     21 H1          0.3200    1.1720   -1.0700 hx        1 41U      0.103700
     22 H2         -0.3490    0.3410    0.4210 hx        1 41U      0.103700
     23 H3         -0.2560    2.1700    0.3630 hx        1 41U      0.103700
     24 H4          2.3490   -0.2200   -0.7850 hx        1 41U      0.100200
     25 H5          1.7130   -0.9420    0.7740 hx        1 41U      0.100200
     26 H6          4.2360   -1.0510    0.4840 hc        1 41U      0.098700
     27 H7          4.3250    0.7590    0.5380 hc        1 41U      0.098700
     28 H8          4.9290   -2.5040    3.2890 ha        1 41U      0.136000
     29 H9          7.2890   -2.8550    3.9950 ha        1 41U      0.148500
     30 H10         8.8970   -0.9450    3.9870 ha        1 41U      0.151000
     31 H11         8.1360    1.3240    3.2720 ha        1 41U      0.148500
     32 H12         0.7580    1.2750    7.5120 ha        1 41U      0.157000
     33 H13         2.6820   -0.2900    7.2400 ha        1 41U      0.156000
     34 H14         3.8900   -0.4360    5.0570 ha        1 41U      0.162000
     35 H15         1.5420    1.2880    1.6730 hn        1 41U      0.472800
     36 H17         0.0260    2.7120    5.6000 ha        1 41U      0.156000
     37 H18         5.7670    1.6800    2.5620 ha        1 41U      0.136000
     38 H19         3.1420   -1.0340    2.7980 h1        1 41U      0.066700
     39 H20         0.6840    4.4180    4.2020 h1        1 41U      0.053033
     40 H21         0.7730    4.4820    2.3670 h1        1 41U      0.053033
     41 H22         2.3160    4.3460    3.3670 h1        1 41U      0.053033
     42 HN3         2.1590    1.9650    0.2930 hn        1 41U      0.472800
@<TRIPOS>BOND
     1    1   13 1   
     2    1   21 1   
     3    1   22 1   
     4    1   23 1   
     5    2   19 1   
     6    2   20 1   
     7    3    4 1   
     8    3   13 1   
     9    3   24 1   
    10    3   25 1   
    11    4   18 1   
    12    4   26 1   
    13    4   27 1   
    14    5    6 ar  
    15    5   17 ar  
    16    5   28 1   
    17    6    7 ar  
    18    6   29 1   
    19    7    8 ar  
    20    7   30 1   
    21    8   16 ar  
    22    8   31 1   
    23    9   14 1   
    24    9   18 1   
    25   10   11 ar  
    26   10   15 ar  
    27   10   32 1   
    28   11   12 ar  
    29   11   33 1   
    30   12   14 ar  
    31   12   34 1   
    32   13   35 1   
    33   13   42 1   
    34   14   20 ar  
    35   15   20 ar  
    36   15   36 1   
    37   16   17 ar  
    38   16   37 1   
    39   17   18 1   
    40   18   38 1   
    41   19   39 1   
    42   19   40 1   
    43   19   41 1   
@<TRIPOS>SUBSTRUCTURE
     1 41U         1 TEMP              0 ****  ****    0 ROOT
