@<TRIPOS>MOLECULE
41X
   46    48     1     0     0
SMALL
bcc


@<TRIPOS>ATOM
      1 C12        -0.0420    0.9890    0.8310 c3        1 41X     -0.100100
      2 C11         1.4130    0.8230    0.4620 c3        1 41X      0.126400
      3 O2          2.1250    0.6790    1.7010 os        1 41X     -0.318900
      4 C10         3.4180    0.2130    1.5860 ca        1 41X      0.109100
      5 C9          4.1990    0.3370    0.4320 ca        1 41X     -0.184000
      6 C8          5.5230   -0.1030    0.4400 ca        1 41X     -0.117000
      7 C7          6.0750   -0.6660    1.5880 ca        1 41X     -0.140000
      8 C6          5.3040   -0.8090    2.7410 ca        1 41X     -0.146000
      9 C5          3.9720   -0.3860    2.7450 ca        1 41X      0.077100
     10 O1          3.1230   -0.5940    3.8180 os        1 41X     -0.299900
     11 C4          3.6560   -0.1730    5.0890 c3        1 41X      0.190400
     12 C13         4.2700   -1.3330    5.8140 ca        1 41X     -0.117300
     13 C18         3.5940   -2.5550    5.9000 ca        1 41X     -0.103500
     14 C17         4.1710   -3.6270    6.5780 ca        1 41X     -0.138500
     15 C16         5.4230   -3.4850    7.1770 ca        1 41X     -0.123000
     16 C15         6.0980   -2.2670    7.0960 ca        1 41X     -0.138500
     17 C14         5.5270   -1.1940    6.4150 ca        1 41X     -0.103500
     18 C           2.4860    0.4480    5.8770 c3        1 41X      0.145100
     19 O           1.4550   -0.5340    5.9940 os        1 41X     -0.402600
     20 C3          0.3040   -0.0230    6.6580 c3        1 41X      0.129400
     21 C2         -0.2550    1.2190    5.9550 c3        1 41X      0.124800
     22 N           0.7610    2.2340    5.7450 n7        1 41X     -0.813200
     23 C1          1.9710    1.7020    5.1440 c3        1 41X      0.116800
     24 H1         -0.1790    1.8810    1.4870 hc        1 41X      0.048367
     25 H2         -0.4090    0.0900    1.3810 hc        1 41X      0.048367
     26 H3         -0.6430    1.1220   -0.1000 hc        1 41X      0.048367
     27 H4          1.8020    1.7300   -0.0720 h1        1 41X      0.037700
     28 H5          1.5700   -0.0840   -0.1790 h1        1 41X      0.037700
     29 H6          3.7790    0.7870   -0.4780 ha        1 41X      0.138000
     30 H7          6.1330    0.0010   -0.4690 ha        1 41X      0.133000
     31 H8          7.1200   -1.0080    1.5880 ha        1 41X      0.135000
     32 H9          5.7260   -1.2600    3.6530 ha        1 41X      0.152000
     33 H10         4.4260    0.6360    4.9350 h1        1 41X      0.059700
     34 H11         2.6000   -2.6450    5.4310 ha        1 41X      0.144500
     35 H12         3.6360   -4.5860    6.6410 ha        1 41X      0.131500
     36 H13         5.8760   -4.3300    7.7130 ha        1 41X      0.130000
     37 H14         7.0840   -2.1520    7.5700 ha        1 41X      0.131500
     38 H15         6.0650   -0.2360    6.3510 ha        1 41X      0.144500
     39 H16         2.8520    0.7160    6.9070 h1        1 41X      0.055700
     40 H17        -0.4360   -0.8640    6.6080 h1        1 41X      0.052200
     41 H18         0.5570    0.2060    7.7270 h1        1 41X      0.052200
     42 H19        -0.7320    0.8870    4.9870 h1        1 41X      0.037700
     43 H20        -1.0580    1.6710    6.6010 h1        1 41X      0.037700
     44 H21         0.3940    2.9680    5.1680 hn        1 41X      0.362800
     45 H23         1.8310    1.4280    4.0550 h1        1 41X      0.055200
     46 H24         2.7590    2.5030    5.2080 h1        1 41X      0.055200
@<TRIPOS>BOND
     1    1    2 1   
     2    1   24 1   
     3    1   25 1   
     4    1   26 1   
     5    2    3 1   
     6    2   27 1   
     7    2   28 1   
     8    3    4 1   
     9    4    5 ar  
    10    4    9 ar  
    11    5    6 ar  
    12    5   29 1   
    13    6    7 ar  
    14    6   30 1   
    15    7    8 ar  
    16    7   31 1   
    17    8    9 ar  
    18    8   32 1   
    19    9   10 1   
    20   10   11 1   
    21   11   12 1   
    22   11   18 1   
    23   11   33 1   
    24   12   13 ar  
    25   12   17 ar  
    26   13   14 ar  
    27   13   34 1   
    28   14   15 ar  
    29   14   35 1   
    30   15   16 ar  
    31   15   36 1   
    32   16   17 ar  
    33   16   37 1   
    34   17   38 1   
    35   18   19 1   
    36   18   23 1   
    37   18   39 1   
    38   19   20 1   
    39   20   21 1   
    40   20   40 1   
    41   20   41 1   
    42   21   22 1   
    43   21   42 1   
    44   21   43 1   
    45   22   23 1   
    46   22   44 1   
    47   23   45 1   
    48   23   46 1   
@<TRIPOS>SUBSTRUCTURE
     1 41X         1 TEMP              0 ****  ****    0 ROOT
