@<TRIPOS>MOLECULE
41X
   46    48     1     0     0
SMALL
bcc


@<TRIPOS>ATOM
      1 C12        -0.0340    1.0140    0.8330 c3        1 41X     -0.100100
      2 C11         1.4220    0.8460    0.4650 c3        1 41X      0.126400
      3 O2          2.1310    0.6930    1.7050 os        1 41X     -0.318900
      4 C10         3.4230    0.2240    1.5890 ca        1 41X      0.109100
      5 C9          4.2060    0.3520    0.4370 ca        1 41X     -0.184000
      6 C8          5.5290   -0.0920    0.4450 ca        1 41X     -0.117000
      7 C7          6.0770   -0.6630    1.5910 ca        1 41X     -0.140000
      8 C6          5.3040   -0.8090    2.7420 ca        1 41X     -0.146000
      9 C5          3.9730   -0.3820    2.7450 ca        1 41X      0.077100
     10 O1          3.1230   -0.5940    3.8160 os        1 41X     -0.299900
     11 C4          3.6540   -0.1800    5.0910 c3        1 41X      0.190400
     12 C13         4.2640   -1.3450    5.8110 ca        1 41X     -0.117300
     13 C18         3.5850   -2.5650    5.8900 ca        1 41X     -0.103500
     14 C17         4.1590   -3.6420    6.5640 ca        1 41X     -0.138500
     15 C16         5.4100   -3.5060    7.1650 ca        1 41X     -0.123000
     16 C15         6.0890   -2.2890    7.0900 ca        1 41X     -0.138500
     17 C14         5.5210   -1.2120    6.4130 ca        1 41X     -0.103500
     18 C           2.4840    0.4400    5.8790 c3        1 41X      0.145100
     19 O           1.4510   -0.5400    5.9900 os        1 41X     -0.402600
     20 C3          0.3000   -0.0290    6.6540 c3        1 41X      0.129400
     21 C2         -0.2540    1.2180    5.9560 c3        1 41X      0.124800
     22 N           0.7650    2.2310    5.7540 n3        1 41X     -0.813200
     23 C1          1.9740    1.6990    5.1520 c3        1 41X      0.116800
     24 H1         -0.4050    0.1130    1.3780 hc        1 41X      0.048367
     25 H2         -0.6330    1.1540   -0.0980 hc        1 41X      0.048367
     26 H3         -0.1690    1.9040    1.4940 hc        1 41X      0.048367
     27 H4          1.8140    1.7550   -0.0630 h1        1 41X      0.037700
     28 H5          1.5770   -0.0580   -0.1800 h1        1 41X      0.037700
     29 H6          3.7880    0.8080   -0.4710 ha        1 41X      0.138000
     30 H7          6.1400    0.0150   -0.4630 ha        1 41X      0.133000
     31 H8          7.1220   -1.0070    1.5900 ha        1 41X      0.135000
     32 H9          5.7240   -1.2660    3.6520 ha        1 41X      0.152000
     33 H10         4.4260    0.6280    4.9410 h1        1 41X      0.059700
     34 H11         2.5910   -2.6510    5.4200 ha        1 41X      0.144500
     35 H12         3.6210   -4.6000    6.6220 ha        1 41X      0.131500
     36 H13         5.8610   -4.3550    7.6980 ha        1 41X      0.130000
     37 H14         7.0740   -2.1790    7.5660 ha        1 41X      0.131500
     38 H15         6.0620   -0.2560    6.3550 ha        1 41X      0.144500
     39 H16         2.8500    0.7020    6.9110 h1        1 41X      0.055700
     40 H17         0.5520    0.1940    7.7240 h1        1 41X      0.052200
     41 H18        -0.4420   -0.8680    6.5990 h1        1 41X      0.052200
     42 H19        -1.0570    1.6680    6.6030 h1        1 41X      0.037700
     43 H20        -0.7300    0.8920    4.9850 h1        1 41X      0.037700
     44 H21         0.4010    2.9690    5.1790 hn        1 41X      0.362800
     45 H23         1.8350    1.4310    4.0610 h1        1 41X      0.055200
     46 H24         2.7640    2.4970    5.2210 h1        1 41X      0.055200
@<TRIPOS>BOND
     1    1    2 1   
     2    1   24 1   
     3    1   25 1   
     4    1   26 1   
     5    2    3 1   
     6    2   27 1   
     7    2   28 1   
     8    3    4 1   
     9    4    5 ar  
    10    4    9 ar  
    11    5    6 ar  
    12    5   29 1   
    13    6    7 ar  
    14    6   30 1   
    15    7    8 ar  
    16    7   31 1   
    17    8    9 ar  
    18    8   32 1   
    19    9   10 1   
    20   10   11 1   
    21   11   12 1   
    22   11   18 1   
    23   11   33 1   
    24   12   13 ar  
    25   12   17 ar  
    26   13   14 ar  
    27   13   34 1   
    28   14   15 ar  
    29   14   35 1   
    30   15   16 ar  
    31   15   36 1   
    32   16   17 ar  
    33   16   37 1   
    34   17   38 1   
    35   18   19 1   
    36   18   23 1   
    37   18   39 1   
    38   19   20 1   
    39   20   21 1   
    40   20   40 1   
    41   20   41 1   
    42   21   22 1   
    43   21   42 1   
    44   21   43 1   
    45   22   23 1   
    46   22   44 1   
    47   23   45 1   
    48   23   46 1   
@<TRIPOS>SUBSTRUCTURE
     1 41X         1 TEMP              0 ****  ****    0 ROOT
