@<TRIPOS>MOLECULE
41Z
   46    48     1     0     0
SMALL
bcc


@<TRIPOS>ATOM
      1 C10        -0.0240   -0.2100   -0.1440 c3        1 41Z     -0.062300
      2 C13         4.2530   -0.0610    0.0090 ca        1 41Z     -0.134000
      3 C15         4.4360    0.2580   -2.4490 c3        1 41Z     -0.062300
      4 C17         0.5590    4.3060   -3.5260 ca        1 41Z     -0.003000
      5 C20        -0.7840    4.8970   -5.9160 ca        1 41Z     -0.297900
      6 C21        -1.5250    5.3260   -7.0970 c         1 41Z      0.582700
      7 C24        -0.4440    3.5260   -5.6300 ca        1 41Z      0.515600
      8 C03        -0.4960    1.2690   -6.2300 ca        1 41Z      0.550600
      9 C04         0.1620    0.8830   -5.0470 ca        1 41Z     -0.382300
     10 C05         0.5500    1.8540   -4.0980 ca        1 41Z      0.292600
     11 N06         1.1930    1.5080   -2.9520 nh        1 41Z     -0.733600
     12 C08         2.2100    0.0310   -1.2880 ca        1 41Z     -0.144300
     13 C09         1.4580   -0.1470   -0.1140 ca        1 41Z     -0.050300
     14 C11         2.1190   -0.2850    1.1120 ca        1 41Z     -0.134000
     15 C12         3.5100   -0.2430    1.1720 ca        1 41Z     -0.095000
     16 C14         3.6130    0.0790   -1.2280 ca        1 41Z     -0.050300
     17 C16         0.2330    3.2460   -4.3960 ca        1 41Z     -0.231300
     18 C18         0.2250    5.6140   -3.8270 ca        1 41Z     -0.183000
     19 C19        -0.4560    5.9080   -5.0120 ca        1 41Z      0.020000
     20 O22        -2.1570    6.3690   -7.2460 o         1 41Z     -0.458100
     21 N23        -1.5300    4.4340   -8.3110 n4        1 41Z     -0.765400
     22 N25        -0.7870    2.5490   -6.5210 nb        1 41Z     -0.864000
     23 H1         -0.4490   -0.1800    0.8900 hc        1 41Z      0.049533
     24 H2         -0.3600   -1.1610   -0.6290 hc        1 41Z      0.049533
     25 H3         -0.4490    0.6490   -0.7190 hc        1 41Z      0.049533
     26 H4          5.3530   -0.0300    0.0600 ha        1 41Z      0.145000
     27 H5          5.5070    0.4450   -2.1880 hc        1 41Z      0.049533
     28 H6          4.3910   -0.6630   -3.0840 hc        1 41Z      0.049533
     29 H7          4.0700    1.1230   -3.0550 hc        1 41Z      0.049533
     30 H8          1.0900    4.1220   -2.5760 ha        1 41Z      0.150000
     31 H9         -1.3640    0.5800   -8.1160 hc        1 41Z      0.069367
     32 H10         0.0350   -0.3890   -7.4810 hc        1 41Z      0.069367
     33 H11        -1.5940   -0.5130   -6.6840 hc        1 41Z      0.069367
     34 H12         0.3640   -0.1860   -4.8840 ha        1 41Z      0.166000
     35 H13         1.4500    2.2050   -2.2910 hn        1 41Z      0.451800
     36 H14         2.1690   -0.2950   -3.4270 h1        1 41Z      0.063700
     37 H15         0.5580   -0.4680   -2.5940 h1        1 41Z      0.063700
     38 H16         1.5350   -0.4300    2.0340 ha        1 41Z      0.145000
     39 H17         4.0220   -0.3560    2.1400 ha        1 41Z      0.147000
     40 H18         0.4840    6.4300   -3.1330 ha        1 41Z      0.170000
     41 H19        -0.7400    6.9540   -5.2330 ha        1 41Z      0.171000
     42 H20        -0.6620    4.5730   -8.8320 hn        1 41Z      0.474467
     43 H21        -1.5690    3.4330   -7.9940 hn        1 41Z      0.474467
     44 H233       -2.3250    4.6580   -8.9130 hn        1 41Z      0.474467
     45 C07         1.5140    0.1370   -2.6130 c3        1 41Z      0.257100
     46 C02        -0.8800    0.1860   -7.1900 c3        1 41Z     -0.169400
@<TRIPOS>BOND
     1    1   13 1   
     2    1   23 1   
     3    1   24 1   
     4    1   25 1   
     5    2   15 ar  
     6    2   16 ar  
     7    2   26 1   
     8    3   16 1   
     9    3   27 1   
    10    3   28 1   
    11    3   29 1   
    12    4   17 ar  
    13    4   18 ar  
    14    4   30 1   
    15    5    6 1   
    16    5    7 ar  
    17    5   19 ar  
    18    6   20 2   
    19    6   21 1   
    20    7   17 ar  
    21    7   22 ar  
    22    8    9 ar  
    23    8   22 ar  
    24    8   46 1   
    25    9   10 ar  
    26    9   34 1   
    27   10   11 1   
    28   10   17 ar  
    29   11   35 1   
    30   11   45 1   
    31   12   13 ar  
    32   12   16 ar  
    33   12   45 1   
    34   13   14 ar  
    35   14   15 ar  
    36   14   38 1   
    37   15   39 1   
    38   18   19 ar  
    39   18   40 1   
    40   19   41 1   
    41   21   42 1   
    42   21   43 1   
    43   21   44 1   
    44   31   46 1   
    45   32   46 1   
    46   33   46 1   
    47   36   45 1   
    48   37   45 1   
@<TRIPOS>SUBSTRUCTURE
     1 41Z         1 TEMP              0 ****  ****    0 ROOT
