@<TRIPOS>MOLECULE
41Z
   46    48     1     0     0
SMALL
bcc


@<TRIPOS>ATOM
      1 C10         0.0030    0.2250    0.1060 c3        1 41Z     -0.062300
      2 C13         4.2570   -0.2320   -0.0740 ca        1 41Z     -0.134000
      3 C15         4.2680   -0.1410   -2.5570 c3        1 41Z     -0.062300
      4 C17         0.9680    4.3160   -3.7520 ca        1 41Z     -0.003000
      5 C20        -0.4150    4.8930   -6.1230 ca        1 41Z     -0.297900
      6 C21        -1.0610    5.3170   -7.3610 c         1 41Z      0.582700
      7 C24        -0.3130    3.5220   -5.6940 ca        1 41Z      0.515600
      8 C03        -0.7550    1.2560   -6.0590 ca        1 41Z      0.550600
      9 C04        -0.0650    0.8770   -4.8920 ca        1 41Z     -0.382300
     10 C05         0.5330    1.8560   -4.0680 ca        1 41Z      0.292600
     11 N06         1.1980    1.5170   -2.9320 nu        1 41Z     -0.733600
     12 C08         2.1410    0.0480   -1.2180 ca        1 41Z     -0.144300
     13 C09         1.4760    0.0760    0.0200 ca        1 41Z     -0.050300
     14 C11         2.2160   -0.0560    1.2010 ca        1 41Z     -0.134000
     15 C12         3.5990   -0.2100    1.1530 ca        1 41Z     -0.095000
     16 C14         3.5370   -0.1010   -1.2670 ca        1 41Z     -0.050300
     17 C16         0.4090    3.2490   -4.4830 ca        1 41Z     -0.231300
     18 C18         0.8530    5.6240   -4.1850 ca        1 41Z     -0.183000
     19 C19         0.1740    5.9120   -5.3730 ca        1 41Z      0.020000
     20 O22        -0.8890    6.3670   -7.9740 o         1 41Z     -0.458100
     21 N23        -2.0830    4.4070   -7.9890 nz        1 41Z     -0.765400
     22 N25        -0.8830    2.5360   -6.4500 nb        1 41Z     -0.864000
     23 H1         -0.3490    1.0870   -0.5130 hc        1 41Z      0.049533
     24 H2         -0.5020   -0.7050   -0.2620 hc        1 41Z      0.049533
     25 H3         -0.3230    0.3990    1.1610 hc        1 41Z      0.049533
     26 H4          5.3510   -0.3550   -0.1070 ha        1 41Z      0.145000
     27 H5          3.9730    0.7160   -3.2120 hc        1 41Z      0.049533
     28 H6          5.3730   -0.0900   -2.3950 hc        1 41Z      0.049533
     29 H7          4.0420   -1.0950   -3.1000 hc        1 41Z      0.049533
     30 H8          1.5180    4.1370   -2.8120 ha        1 41Z      0.150000
     31 H9         -1.9210    0.5530   -7.7710 hc        1 41Z      0.069367
     32 H10        -0.5480   -0.5120   -7.2480 hc        1 41Z      0.069367
     33 H11        -2.0640   -0.4290   -6.2510 hc        1 41Z      0.069367
     34 H12        -0.0050   -0.1920   -4.6410 ha        1 41Z      0.166000
     35 H13         1.6200    2.2200   -2.3700 hn        1 41Z      0.451800
     36 H14         0.3280   -0.3070   -2.3460 h1        1 41Z      0.063700
     37 H15         1.8700   -0.4430   -3.3080 h1        1 41Z      0.063700
     38 H16         1.6990   -0.0410    2.1730 ha        1 41Z      0.145000
     39 H17         4.1730   -0.3170    2.0870 ha        1 41Z      0.147000
     40 H18         1.2990    6.4470   -3.6030 ha        1 41Z      0.170000
     41 H19         0.1060    6.9590   -5.7240 ha        1 41Z      0.171000
     42 H20        -2.2000    4.6340   -8.9790 hn        1 41Z      0.474467
     43 H21        -1.7700    3.4120   -7.8680 hn        1 41Z      0.474467
     44 H233       -2.9780    4.5240   -7.5090 hn        1 41Z      0.474467
     45 C07         1.3540    0.1460   -2.4920 c3        1 41Z      0.257100
     46 C02        -1.3610    0.1660   -6.8860 c3        1 41Z     -0.169400
@<TRIPOS>BOND
     1    1   13 1   
     2    1   23 1   
     3    1   24 1   
     4    1   25 1   
     5    2   15 ar  
     6    2   16 ar  
     7    2   26 1   
     8    3   16 1   
     9    3   27 1   
    10    3   28 1   
    11    3   29 1   
    12    4   17 ar  
    13    4   18 ar  
    14    4   30 1   
    15    5    6 1   
    16    5    7 ar  
    17    5   19 ar  
    18    6   20 2   
    19    6   21 1   
    20    7   17 ar  
    21    7   22 ar  
    22    8    9 ar  
    23    8   22 ar  
    24    8   46 1   
    25    9   10 ar  
    26    9   34 1   
    27   10   11 1   
    28   10   17 ar  
    29   11   35 1   
    30   11   45 1   
    31   12   13 ar  
    32   12   16 ar  
    33   12   45 1   
    34   13   14 ar  
    35   14   15 ar  
    36   14   38 1   
    37   15   39 1   
    38   18   19 ar  
    39   18   40 1   
    40   19   41 1   
    41   21   42 1   
    42   21   43 1   
    43   21   44 1   
    44   31   46 1   
    45   32   46 1   
    46   33   46 1   
    47   36   45 1   
    48   37   45 1   
@<TRIPOS>SUBSTRUCTURE
     1 41Z         1 TEMP              0 ****  ****    0 ROOT
