@<TRIPOS>MOLECULE
420
   44    40     1     0     0
SMALL
bcc


@<TRIPOS>ATOM
      1 C1         -1.1190   -6.9210    3.5890 c3        1 420     -0.360000
      2 C2         -0.6590   -6.4770    2.1530 c2        1 420      0.310000
      3 O3         -1.2840   -6.8630    1.1610 o         1 420     -0.367000
      4 N4          0.3660   -5.5050    2.0090 n         1 420     -0.352000
      5 C5          0.4970   -4.7630    0.7620 c3        1 420     -0.063000
      6 C6          1.1920   -3.4430    1.0320 c3        1 420     -0.042000
      7 N7          0.5730   -2.3820    0.2150 n3        1 420     -0.893000
      8 S8         -0.0940   -1.0460    0.9500 s4        1 420      2.079800
      9 O9         -1.4130   -1.3490    1.5080 o         1 420     -0.562400
     10 O10         0.6290   -0.6850    2.1270 o         1 420     -0.562400
     11 C11        -0.1770    0.3520   -0.2350 c1        1 420     -0.834000
     12 C12        -0.8980   -0.1110   -1.3260 c2        1 420      0.016000
     13 C13        -1.2130    0.7540   -2.3690 c1        1 420     -0.182000
     14 C14        -0.8060    2.0800   -2.3190 c1        1 420     -0.023000
     15 C15        -0.0850    2.5440   -1.2310 c1        1 420     -0.065000
     16 C16         0.2310    1.6820   -0.1850 c1        1 420      0.073000
     17 C17         0.8890    2.1730    0.9540 c1        1 420     -0.173000
     18 C18         1.2270    3.5280    1.0360 c1        1 420     -0.130500
     19 C19         0.9090    4.3900   -0.0130 c1        1 420     -0.130500
     20 C20         0.2530    3.9020   -1.1470 c1        1 420      0.062000
     21 N21         0.1140    5.1240   -1.9610 n3        1 420     -0.247000
     22 C22         0.9960    5.3540   -3.0550 c3        1 420     -0.111500
     23 C23        -0.9700    6.0370   -1.7080 c3        1 420     -0.111500
     24 I          -2.6610   -8.3820    3.4170 i         1 420      0.093000
     25 H11C       -0.3390   -7.3130    4.0850 h1        1 420      0.150000
     26 H12C       -1.4650   -6.1300    4.0850 h1        1 420      0.150000
     27 H4          0.9010   -5.2970    2.7210 hn        1 420      0.233000
     28 H51C       -0.3860   -4.5940    0.3870 h1        1 420      0.111000
     29 H52C        1.0120   -5.2710    0.1410 h1        1 420      0.111000
     30 H61C        1.1050   -3.2160    1.9910 h1        1 420      0.098000
     31 H62C        2.1750   -3.5230    0.7930 h1        1 420      0.098000
     32 H7          0.5470   -2.4610   -0.6790 hn        1 420      0.250000
     33 H12        -1.1820   -1.0380   -1.3620 ha        1 420      0.161000
     34 H13        -1.7240    0.4270   -3.1420 ha        1 420      0.146000
     35 H14        -1.0310    2.6950   -3.0620 ha        1 420      0.154000
     36 H17         1.1150    1.5600    1.6990 ha        1 420      0.159000
     37 H18         1.6750    3.8620    1.8100 ha        1 420      0.140000
     38 H19         1.1440    5.3350    0.0450 ha        1 420      0.140000
     39 H221        1.8260    4.7830   -2.9460 h1        1 420      0.079167
     40 H222        0.5320    5.1100   -3.9170 h1        1 420      0.079167
     41 H223        1.2510    6.3130   -3.0770 h1        1 420      0.079167
     42 H231       -0.6070    6.8790   -1.2540 h1        1 420      0.079167
     43 H232       -1.4050    6.2860   -2.5750 h1        1 420      0.079167
     44 H233       -1.6420    5.5990   -1.1100 h1        1 420      0.079167
@<TRIPOS>BOND
     1    1    2 1   
     2    1   24 1   
     3    1   25 1   
     4    1   26 1   
     5    2    3 1   
     6    2    4 1   
     7    4    5 1   
     8    4   27 1   
     9    5    6 1   
    10    5   28 1   
    11    5   29 1   
    12    6    7 1   
    13    6   30 1   
    14    6   31 1   
    15    7    8 1   
    16    7   32 1   
    17    8    9 1   
    18    8   10 1   
    19   11   12 1   
    20   11   16 1   
    21   12   13 1   
    22   12   33 1   
    23   13   34 1   
    24   14   15 1   
    25   14   35 1   
    26   15   20 1   
    27   16   17 1   
    28   17   36 1   
    29   18   19 1   
    30   18   37 1   
    31   19   38 1   
    32   20   21 1   
    33   21   22 1   
    34   21   23 1   
    35   22   39 1   
    36   22   40 1   
    37   22   41 1   
    38   23   42 1   
    39   23   43 1   
    40   23   44 1   
@<TRIPOS>SUBSTRUCTURE
     1 420         1 TEMP              0 ****  ****    0 ROOT
