@<TRIPOS>MOLECULE
420
   47    47     1     0     0
SMALL
bcc


@<TRIPOS>ATOM
      1 C1          0.4020   -2.5670    1.6580 c3        1 420     -0.091500
      2 C2          0.6740   -1.3220    0.9060 c         1 420      0.579100
      3 O3          0.1730   -0.2200    1.0060 o         1 420     -0.369100
      4 N4          1.7680   -1.4490   -0.1820 n4        1 420     -0.689800
      5 C5          2.1750   -0.1320   -0.7370 c3        1 420      0.064800
      6 C6          3.2290   -0.2400   -1.8620 c3        1 420      0.112800
      7 N7          3.6500    1.0360   -2.4100 n3        1 420     -0.982800
      8 S8          5.3920    0.5980   -4.2920 s4        1 420      1.667300
      9 O9          6.2790    0.5000   -3.2790 o         1 420     -0.405900
     10 O10         4.5540   -0.4110   -4.6330 o         1 420     -0.405900
     11 C11         5.4410    1.8230   -5.2780 ca        1 420     -0.588500
     12 C12         4.4910    1.8230   -6.3240 ca        1 420      0.080000
     13 C13         4.4830    2.7950   -7.3210 ca        1 420     -0.142000
     14 C14         5.4480    3.7850   -7.3310 ca        1 420      0.027000
     15 C15         6.4480    3.8480   -6.3260 ca        1 420     -0.067000
     16 C16         6.4150    2.8920   -5.2640 ca        1 420      0.111000
     17 C17         7.3570    3.0120   -4.2070 ca        1 420     -0.161000
     18 C18         8.3130    3.9990   -4.2090 ca        1 420     -0.028000
     19 C19         8.3950    4.9190   -5.2770 ca        1 420     -0.069000
     20 C20         7.4910    4.8440   -6.3240 ca        1 420      0.006600
     21 N21         7.6350    5.8030   -7.4380 n4        1 420     -0.562800
     22 C22         7.3940    7.2060   -6.9810 c3        1 420      0.083100
     23 C23         8.9790    5.6830   -8.0860 c3        1 420      0.083100
     24 I           1.8190   -2.9560    3.1040 i         1 420     -0.052900
     25 H11C        0.3240   -3.4640    0.9940 h1        1 420      0.159200
     26 H12C       -0.5890   -2.4460    2.1820 h1        1 420      0.159200
     27 H4          1.3990   -2.0450   -0.9320 hn        1 420      0.464300
     28 H51C        2.5760    0.4880    0.1190 hx        1 420      0.124200
     29 H52C        1.2430    0.3790   -1.1230 hx        1 420      0.124200
     30 H61C        4.1470   -0.7640   -1.4640 h1        1 420      0.097200
     31 H62C        2.8120   -0.8570   -2.7130 h1        1 420      0.097200
     32 H7          2.8530    1.5550   -2.7410 hn        1 420      0.396300
     33 H12         3.7270    1.0150   -6.3760 ha        1 420      0.196000
     34 H13         3.7070    2.7610   -8.1120 ha        1 420      0.210000
     35 H14         5.3880    4.5230   -8.1520 ha        1 420      0.164000
     36 H17         7.3560    2.3140   -3.3490 ha        1 420      0.189000
     37 H18         9.0400    4.0820   -3.3770 ha        1 420      0.205000
     38 H19         9.1990    5.6800   -5.2410 ha        1 420      0.190000
     39 H221        7.4620    7.8920   -7.8700 hx        1 420      0.118867
     40 H222        8.1730    7.4990   -6.2260 hx        1 420      0.118867
     41 H223        6.3740    7.2790   -6.5190 hx        1 420      0.118867
     42 H231        9.0030    6.3570   -8.9870 hx        1 420      0.118867
     43 H232        9.7810    5.9990   -7.3670 hx        1 420      0.118867
     44 H233        9.1490    4.6190   -8.4010 hx        1 420      0.118867
     45 H42         2.5820   -1.9220    0.2290 hn        1 420      0.464300
     46 H72         4.1150    1.5830   -1.7040 hn        1 420      0.396300
     47 H211        6.9350    5.5880   -8.1610 hn        1 420      0.452800
@<TRIPOS>BOND
     1    1    2 1   
     2    1   24 1   
     3    1   25 1   
     4    1   26 1   
     5    2    3 2   
     6    2    4 1   
     7    4    5 1   
     8    4   27 1   
     9    4   45 1   
    10    5    6 1   
    11    5   28 1   
    12    5   29 1   
    13    6    7 1   
    14    6   30 1   
    15    6   31 1   
    16    7   32 1   
    17    7   46 1   
    18    8    9 1   
    19    8   10 1   
    20    8   11 1   
    21   11   12 ar  
    22   11   16 ar  
    23   12   13 ar  
    24   12   33 1   
    25   13   14 ar  
    26   13   34 1   
    27   14   15 ar  
    28   14   35 1   
    29   15   16 ar  
    30   15   20 ar  
    31   16   17 ar  
    32   17   18 ar  
    33   17   36 1   
    34   18   19 ar  
    35   18   37 1   
    36   19   20 ar  
    37   19   38 1   
    38   20   21 1   
    39   21   22 1   
    40   21   23 1   
    41   21   47 1   
    42   22   39 1   
    43   22   40 1   
    44   22   41 1   
    45   23   42 1   
    46   23   43 1   
    47   23   44 1   
@<TRIPOS>SUBSTRUCTURE
     1 420         1 TEMP              0 ****  ****    0 ROOT
