@<TRIPOS>MOLECULE
420
   46    46     1     0     0
SMALL
bcc


@<TRIPOS>ATOM
      1 C1          0.5870   -2.9350    1.2900 c3        1 420     -0.086500
      2 C2          0.7880   -1.5920    0.6930 c         1 420      0.568100
      3 O3          0.2620   -0.5340    0.9850 o         1 420     -0.372100
      4 N4          1.7960   -1.5410   -0.4620 ny        1 420     -0.681800
      5 C5          2.2110   -0.1530   -0.8040 c3        1 420      0.058800
      6 C6          3.1860   -0.1060   -2.0030 c3        1 420      0.120800
      7 N7          3.6140    1.2170   -2.3830 n8        1 420     -0.962800
      8 S8          5.2460    0.7940   -4.4650 s4        1 420      1.663300
      9 O9          6.1420    0.4560   -3.4950 o         1 420     -0.461900
     10 O10         4.2840   -0.1200   -4.8050 o         1 420     -0.461900
     11 C11         5.3390    2.0740   -5.2520 ca        1 420     -0.708500
     12 C12         4.3730    2.3070   -6.2950 ca        1 420      0.041000
     13 C13         4.4420    3.3770   -7.1330 ca        1 420     -0.198000
     14 C14         5.5380    4.2710   -7.0530 ca        1 420      0.077000
     15 C15         6.5310    4.1040   -6.1030 ca        1 420     -0.158000
     16 C16         6.3550    3.1000   -5.0690 ca        1 420      0.144000
     17 C17         7.1120    3.1740   -3.9180 ca        1 420     -0.269000
     18 C18         8.0650    4.2020   -3.7540 ca        1 420      0.041000
     19 C19         8.3520    5.0880   -4.7610 ca        1 420     -0.252000
     20 C20         7.6950    4.9860   -6.0330 ca        1 420      0.303600
     21 N21         8.1620    5.6840   -7.1000 nh        1 420     -0.595000
     22 C22         9.1540    6.7250   -6.9140 c3        1 420      0.163600
     23 C23         7.8580    5.3550   -8.4720 c3        1 420      0.163600
     24 I           2.1310   -3.4950    2.5360 i         1 420     -0.067900
     25 H11C       -0.3530   -2.9020    1.9090 h1        1 420      0.153200
     26 H12C        0.4560   -3.7300    0.5150 h1        1 420      0.153200
     27 H4          1.3630   -1.9800   -1.2840 hn        1 420      0.463800
     28 H51C        1.2780    0.4400   -1.0340 hx        1 420      0.120200
     29 H52C        2.6920    0.2970    0.1130 hx        1 420      0.120200
     30 H61C        4.1100   -0.7070   -1.7560 h1        1 420      0.095200
     31 H62C        2.6950   -0.5760   -2.9080 h1        1 420      0.095200
     32 H7          4.1520    1.6510   -1.6540 hn        1 420      0.393300
     33 H12         3.5520    1.5710   -6.4120 ha        1 420      0.164000
     34 H13         3.6660    3.5510   -7.8980 ha        1 420      0.180000
     35 H14         5.5430    5.1210   -7.7600 ha        1 420      0.166000
     36 H17         7.0100    2.4480   -3.0960 ha        1 420      0.160000
     37 H18         8.6080    4.2700   -2.7940 ha        1 420      0.169000
     38 H19         9.1270    5.8550   -4.5950 ha        1 420      0.174000
     39 H221       10.1530    6.2740   -6.6660 h1        1 420      0.077700
     40 H222        9.2470    7.3240   -7.8600 h1        1 420      0.077700
     41 H223        8.8380    7.4160   -6.0860 h1        1 420      0.077700
     42 H231        7.4840    4.3000   -8.5620 h1        1 420      0.077700
     43 H232        7.0950    6.0710   -8.8830 h1        1 420      0.077700
     44 H233        8.7970    5.4460   -9.0860 h1        1 420      0.077700
     45 H42         2.6230   -2.0940   -0.2060 hn        1 420      0.463800
     46 H72         2.8330    1.8050   -2.6130 hn        1 420      0.393300
@<TRIPOS>BOND
     1    1    2 1   
     2    1   24 1   
     3    1   25 1   
     4    1   26 1   
     5    2    3 2   
     6    2    4 1   
     7    4    5 1   
     8    4   27 1   
     9    4   45 1   
    10    5    6 1   
    11    5   28 1   
    12    5   29 1   
    13    6    7 1   
    14    6   30 1   
    15    6   31 1   
    16    7   32 1   
    17    7   46 1   
    18    8    9 1   
    19    8   10 1   
    20    8   11 1   
    21   11   12 ar  
    22   11   16 ar  
    23   12   13 ar  
    24   12   33 1   
    25   13   14 ar  
    26   13   34 1   
    27   14   15 ar  
    28   14   35 1   
    29   15   16 ar  
    30   15   20 ar  
    31   16   17 ar  
    32   17   18 ar  
    33   17   36 1   
    34   18   19 ar  
    35   18   37 1   
    36   19   20 ar  
    37   19   38 1   
    38   20   21 1   
    39   21   22 1   
    40   21   23 1   
    41   22   39 1   
    42   22   40 1   
    43   22   41 1   
    44   23   42 1   
    45   23   43 1   
    46   23   44 1   
@<TRIPOS>SUBSTRUCTURE
     1 420         1 TEMP              0 ****  ****    0 ROOT
