@<TRIPOS>MOLECULE
420
   44    45     1     0     0
SMALL
bcc


@<TRIPOS>ATOM
      1 C1          4.8390    0.0820   -0.8520 c3        1 420     -0.030500
      2 C2          3.5710    0.1060   -0.0330 c         1 420      0.666100
      3 O3          3.2740   -0.8500    0.7100 o         1 420     -0.593100
      4 N4          2.7610    1.2180   -0.1380 n         1 420     -0.566900
      5 C5          1.5140    1.3300    0.5610 c3        1 420      0.075000
      6 C6          0.2870    0.9640   -0.3180 c3        1 420      0.199800
      7 N7         -0.9570    1.1520    0.3630 n3        1 420     -0.915100
      8 S8         -2.1330    2.1510   -0.1270 sy        1 420      1.514200
      9 O9         -2.6090    2.8860    0.9760 o         1 420     -0.657800
     10 O10        -1.6830    2.9200   -1.2290 o         1 420     -0.657800
     11 C11        -3.3230    1.0760   -0.6740 ca        1 420     -0.379500
     12 C12        -3.5840    1.0500   -2.0320 ca        1 420      0.008000
     13 C13        -4.5370    0.1730   -2.5820 ca        1 420     -0.180000
     14 C14        -5.2060   -0.7110   -1.7690 ca        1 420     -0.032000
     15 C15        -4.9640   -0.7380   -0.3690 ca        1 420     -0.064000
     16 C16        -4.0500    0.1980    0.1870 ca        1 420      0.073000
     17 C17        -3.8930    0.2510    1.6010 ca        1 420     -0.181000
     18 C18        -4.5820   -0.6120    2.4130 ca        1 420     -0.076000
     19 C19        -5.4440   -1.5850    1.8710 ca        1 420     -0.188000
     20 C20        -5.6480   -1.6700    0.4990 ca        1 420      0.145600
     21 N21        -6.5520   -2.6110   -0.0770 nh        1 420     -0.645000
     22 C22        -5.9130   -3.7100   -0.7690 c3        1 420      0.165600
     23 C23        -7.6400   -3.0300    0.7750 c3        1 420      0.165600
     24 I           6.2830    1.3900   -0.1780 i         1 420     -0.197900
     25 H11C        5.2700   -0.9470   -0.7950 h1        1 420      0.101200
     26 H12C        4.6330    0.3270   -1.9190 h1        1 420      0.101200
     27 H4          2.9830    1.9260   -0.7950 hn        1 420      0.316500
     28 H51C        1.5380    0.6470    1.4590 h1        1 420      0.069200
     29 H52C        1.4100    2.3930    0.9220 h1        1 420      0.069200
     30 H61C        0.2920    1.6040   -1.2480 h1        1 420      0.059200
     31 H62C        0.3870   -0.1140   -0.6350 h1        1 420      0.059200
     32 H7         -1.0540    0.5900    1.1740 hn        1 420      0.449800
     33 H12        -3.0390    1.7360   -2.7100 ha        1 420      0.163000
     34 H13        -4.7360    0.2040   -3.6640 ha        1 420      0.143000
     35 H14        -5.9520   -1.3930   -2.2100 ha        1 420      0.152000
     36 H17        -3.2520    1.0250    2.0540 ha        1 420      0.154000
     37 H18        -4.4670   -0.5560    3.5070 ha        1 420      0.139000
     38 H19        -5.9560   -2.2700    2.5650 ha        1 420      0.139000
     39 H221       -5.5320   -4.5020   -0.0670 h1        1 420      0.039533
     40 H222       -6.6690   -4.1740   -1.4560 h1        1 420      0.039533
     41 H223       -5.0510   -3.3280   -1.3770 h1        1 420      0.039533
     42 H231       -8.0890   -2.1340    1.2780 h1        1 420      0.039533
     43 H232       -8.4180   -3.5120    0.1260 h1        1 420      0.039533
     44 H233       -7.3290   -3.7710    1.5630 h1        1 420      0.039533
@<TRIPOS>BOND
     1    1    2 1   
     2    1   24 1   
     3    1   25 1   
     4    1   26 1   
     5    2    3 2   
     6    2    4 1   
     7    4    5 1   
     8    4   27 1   
     9    5    6 1   
    10    5   28 1   
    11    5   29 1   
    12    6    7 1   
    13    6   30 1   
    14    6   31 1   
    15    7    8 1   
    16    7   32 1   
    17    8    9 2   
    18    8   10 2   
    19    8   11 1   
    20   11   12 ar  
    21   11   16 ar  
    22   12   13 ar  
    23   12   33 1   
    24   13   14 ar  
    25   13   34 1   
    26   14   15 ar  
    27   14   35 1   
    28   15   16 ar  
    29   15   20 ar  
    30   16   17 ar  
    31   17   18 ar  
    32   17   36 1   
    33   18   19 ar  
    34   18   37 1   
    35   19   20 ar  
    36   19   38 1   
    37   20   21 1   
    38   21   22 1   
    39   21   23 1   
    40   22   39 1   
    41   22   40 1   
    42   22   41 1   
    43   23   42 1   
    44   23   43 1   
    45   23   44 1   
@<TRIPOS>SUBSTRUCTURE
     1 420         1 TEMP              0 ****  ****    0 ROOT
