@<TRIPOS>MOLECULE
420
   46    46     1     0     0
SMALL
bcc


@<TRIPOS>ATOM
      1 C1          0.2150   -3.1730    0.7720 c3        1 420     -0.086500
      2 C2          1.1280   -2.0060    0.7400 c         1 420      0.567100
      3 O3          1.4690   -1.2720    1.6490 o         1 420     -0.371100
      4 N4          1.7280   -1.6900   -0.6360 n4        1 420     -0.680800
      5 C5          2.5000   -0.4180   -0.6520 c3        1 420      0.055800
      6 C6          3.1170   -0.1160   -2.0380 c3        1 420      0.132800
      7 N7          3.9480    1.0600   -2.0830 n3        1 420     -0.964800
      8 S8          5.6160    0.8430   -4.2220 s4        1 420      1.661300
      9 O9          6.5180    0.6770   -3.2140 o         1 420     -0.460400
     10 O10         4.7740   -0.1950   -4.5210 o         1 420     -0.460400
     11 C11         5.5810    2.0750   -5.0840 ca        1 420     -0.708500
     12 C12         4.6230    2.1340   -6.1600 ca        1 420      0.041000
     13 C13         4.5960    3.1510   -7.0640 ca        1 420     -0.197000
     14 C14         5.5840    4.1670   -7.0190 ca        1 420      0.076000
     15 C15         6.5600    4.1740   -6.0380 ca        1 420     -0.158000
     16 C16         6.4660    3.2230   -4.9440 ca        1 420      0.143000
     17 C17         7.1700    3.4580   -3.7810 ca        1 420     -0.266000
     18 C18         7.9940    4.5980   -3.6620 ca        1 420      0.042000
     19 C19         8.2120    5.4450   -4.7180 ca        1 420     -0.252000
     20 C20         7.6150    5.1860   -5.9980 ca        1 420      0.304600
     21 N21         8.0360    5.8600   -7.0970 nh        1 420     -0.594000
     22 C22         8.9010    7.0160   -6.9580 c3        1 420      0.163100
     23 C23         7.8120    5.4130   -8.4510 c3        1 420      0.163100
     24 I          -1.6430   -2.7580   -0.0180 i         1 420     -0.068900
     25 H11C        0.0670   -3.4690    1.8490 h1        1 420      0.153200
     26 H12C        0.6350   -4.0580    0.2330 h1        1 420      0.153200
     27 H4          0.9670   -1.6390   -1.3230 hn        1 420      0.463800
     28 H51C        1.8010    0.4130   -0.3440 hx        1 420      0.119700
     29 H52C        3.3100   -0.4970    0.1310 hx        1 420      0.119700
     30 H61C        2.2890    0.0080   -2.7950 h1        1 420      0.089200
     31 H62C        3.7530   -0.9920   -2.3650 h1        1 420      0.089200
     32 H7          3.4080    1.8980   -1.9640 hn        1 420      0.393800
     33 H12         3.8940    1.3040   -6.2450 ha        1 420      0.163000
     34 H13         3.8290    3.1880   -7.8550 ha        1 420      0.179000
     35 H14         5.5150    4.9650   -7.7810 ha        1 420      0.166000
     36 H17         7.1240    2.7800   -2.9140 ha        1 420      0.161000
     37 H18         8.4920    4.7910   -2.6940 ha        1 420      0.170000
     38 H19         8.8880    6.3060   -4.5850 ha        1 420      0.174000
     39 H221        8.9620    7.5570   -7.9410 h1        1 420      0.077867
     40 H222        9.9340    6.6960   -6.6520 h1        1 420      0.077867
     41 H223        8.4830    7.7210   -6.1890 h1        1 420      0.077867
     42 H231        6.9880    6.0120   -8.9270 h1        1 420      0.077867
     43 H232        8.7540    5.5700   -9.0490 h1        1 420      0.077867
     44 H233        7.5600    4.3190   -8.4800 h1        1 420      0.077867
     45 H42         2.3440   -2.4670   -0.9030 hn        1 420      0.463800
     46 H72         4.6700    1.0270   -1.3830 hn        1 420      0.393800
@<TRIPOS>BOND
     1    1    2 1   
     2    1   24 1   
     3    1   25 1   
     4    1   26 1   
     5    2    3 2   
     6    2    4 1   
     7    4    5 1   
     8    4   27 1   
     9    4   45 1   
    10    5    6 1   
    11    5   28 1   
    12    5   29 1   
    13    6    7 1   
    14    6   30 1   
    15    6   31 1   
    16    7   32 1   
    17    7   46 1   
    18    8    9 1   
    19    8   10 1   
    20    8   11 1   
    21   11   12 ar  
    22   11   16 ar  
    23   12   13 ar  
    24   12   33 1   
    25   13   14 ar  
    26   13   34 1   
    27   14   15 ar  
    28   14   35 1   
    29   15   16 ar  
    30   15   20 ar  
    31   16   17 ar  
    32   17   18 ar  
    33   17   36 1   
    34   18   19 ar  
    35   18   37 1   
    36   19   20 ar  
    37   19   38 1   
    38   20   21 1   
    39   21   22 1   
    40   21   23 1   
    41   22   39 1   
    42   22   40 1   
    43   22   41 1   
    44   23   42 1   
    45   23   43 1   
    46   23   44 1   
@<TRIPOS>SUBSTRUCTURE
     1 420         1 TEMP              0 ****  ****    0 ROOT
