@<TRIPOS>MOLECULE
421
   49    51     1     0     0
SMALL
bcc


@<TRIPOS>ATOM
      1 C1         -0.4200   -0.2820    0.1830 ca        1 421     -0.029000
      2 C2          0.8080   -0.9590   -0.0520 ca        1 421     -0.050000
      3 C3          1.6830   -1.2130    0.9780 ca        1 421     -0.127000
      4 C4          1.3570   -0.7900    2.2890 ca        1 421     -0.195900
      5 C5          0.1730   -0.1250    2.5470 ca        1 421     -0.098000
      6 C6         -0.7480    0.1440    1.4990 ca        1 421     -0.005000
      7 C7         -2.0090    0.8130    1.6890 ca        1 421     -0.055400
      8 C8         -2.8720    1.0180    0.6240 ca        1 421     -0.014000
      9 C9         -2.5190    0.5790   -0.6770 ca        1 421     -0.104600
     10 C10        -1.3180   -0.0540   -0.8990 ca        1 421      0.003000
     11 C11         2.2590   -1.1340    3.4150 ce        1 421      0.568800
     12 N12         3.6510   -0.5920    3.2370 n4        1 421     -0.819600
     13 N13         2.0460   -1.8080    4.4780 n2        1 421     -0.681100
     14 N14        -2.4040    1.3080    3.0090 n4        1 421     -0.562200
     15 C15        -2.9870    0.1940    3.9090 c         1 421      0.616700
     16 C16        -4.4470    0.1280    3.9160 ca        1 421     -0.183600
     17 O17        -2.1390   -0.4480    4.5040 o         1 421     -0.439100
     18 C18        -5.1810    1.2980    4.1930 ca        1 421     -0.147000
     19 C19        -6.5670    1.2460    4.2600 ca        1 421     -0.071000
     20 C20        -7.2390    0.0420    4.0410 ca        1 421     -0.138000
     21 C21        -6.5070   -1.1180    3.7670 ca        1 421      0.139100
     22 C22        -5.0890   -1.1010    3.7050 ca        1 421     -0.013300
     23 C23        -4.3830   -2.3690    3.4260 c3        1 421     -0.071800
     24 O24        -7.0890   -2.3360    3.5390 oh        1 421     -0.473100
     25 C25        -3.4960    0.8360   -1.7610 c         1 421      0.633700
     26 O26        -4.5950    1.3740   -1.6210 o         1 421     -0.502000
     27 O27        -3.0840    0.4180   -2.9860 os        1 421     -0.425900
     28 C28        -3.9930    0.6450   -4.0780 c3        1 421      0.124700
     29 H2          1.0430   -1.2900   -1.0810 ha        1 421      0.185000
     30 H3          2.6100   -1.7750    0.7820 ha        1 421      0.158000
     31 H5         -0.0640    0.1630    3.5850 ha        1 421      0.150000
     32 H8         -3.8530    1.5250    0.7350 ha        1 421      0.197000
     33 H10        -1.0440   -0.3920   -1.9180 ha        1 421      0.201000
     34 H121        4.0180   -0.9190    2.3360 hn        1 421      0.478467
     35 H122        3.6100    0.4330    3.2350 hn        1 421      0.478467
     36 H13         1.1410   -2.2040    4.6390 hn        1 421      0.497400
     37 H14        -3.1210    2.0380    2.8870 hn        1 421      0.461300
     38 H18        -4.6730    2.2490    4.4120 ha        1 421      0.135000
     39 H19        -7.1430    2.1590    4.4920 ha        1 421      0.176000
     40 H20        -8.3410    0.0060    4.0930 ha        1 421      0.177000
     41 H231       -3.2820   -2.2310    3.3120 hc        1 421      0.071367
     42 H232       -4.7940   -2.8370    2.4940 hc        1 421      0.071367
     43 H233       -4.5690   -3.0910    4.2660 hc        1 421      0.071367
     44 H24        -8.0520   -2.2480    3.6390 ho        1 421      0.453000
     45 H281       -3.4390    0.2270   -4.9550 h1        1 421      0.073700
     46 H282       -4.1820    1.7400   -4.1870 h1        1 421      0.073700
     47 H283       -4.9480    0.0990   -3.8900 h1        1 421      0.073700
     48 H123        4.2810   -0.9040    3.9930 hn        1 421      0.478467
     49 H142       -1.5840    1.7230    3.4660 hn        1 421      0.461300
@<TRIPOS>BOND
     1    1    2 ar  
     2    1    6 ar  
     3    1   10 ar  
     4    2    3 ar  
     5    2   29 1   
     6    3    4 ar  
     7    3   30 1   
     8    4    5 ar  
     9    4   11 1   
    10    5    6 ar  
    11    5   31 1   
    12    6    7 ar  
    13    7    8 ar  
    14    7   14 1   
    15    8    9 ar  
    16    8   32 1   
    17    9   10 ar  
    18    9   25 1   
    19   10   33 1   
    20   11   12 1   
    21   11   13 2   
    22   12   34 1   
    23   12   35 1   
    24   12   48 1   
    25   13   36 1   
    26   14   15 1   
    27   14   37 1   
    28   14   49 1   
    29   15   16 1   
    30   15   17 2   
    31   16   18 ar  
    32   16   22 ar  
    33   18   19 ar  
    34   18   38 1   
    35   19   20 ar  
    36   19   39 1   
    37   20   21 ar  
    38   20   40 1   
    39   21   22 ar  
    40   21   24 1   
    41   22   23 1   
    42   23   41 1   
    43   23   42 1   
    44   23   43 1   
    45   24   44 1   
    46   25   26 2   
    47   25   27 1   
    48   27   28 1   
    49   28   45 1   
    50   28   46 1   
    51   28   47 1   
@<TRIPOS>SUBSTRUCTURE
     1 421         1 TEMP              0 ****  ****    0 ROOT
