@<TRIPOS>MOLECULE
421
   48    50     1     0     0
SMALL
bcc


@<TRIPOS>ATOM
      1 C1         -0.2440   -0.1710   -0.0940 ca        1 421     -0.015000
      2 C2          1.1610   -0.4150   -0.0720 ca        1 421     -0.080000
      3 C3          1.8540   -0.4530    1.1080 ca        1 421     -0.136000
      4 C4          1.1660   -0.2130    2.3270 ca        1 421     -0.270900
      5 C5         -0.1900    0.0450    2.3340 ca        1 421     -0.005000
      6 C6         -0.9430    0.0220    1.1290 ca        1 421     -0.031000
      7 C7         -2.3730    0.1750    1.1030 ca        1 421      0.073600
      8 C8         -3.0220    0.2050   -0.1340 ca        1 421     -0.127000
      9 C9         -2.3010    0.0670   -1.3400 ca        1 421     -0.068600
     10 C10        -0.9370   -0.1350   -1.3290 ca        1 421     -0.077000
     11 C11         1.8640   -0.3210    3.6210 ce        1 421      0.592800
     12 N12         3.0800    0.5690    3.6930 n4        1 421     -0.824600
     13 N13         1.6030   -1.0150    4.6610 n2        1 421     -0.718100
     14 N14        -3.1430    0.3410    2.2720 n         1 421     -0.470100
     15 C15        -3.1530   -0.5350    3.3660 c         1 421      0.688700
     16 C16        -4.3270   -0.4050    4.2800 ca        1 421     -0.129600
     17 O17        -2.2050   -1.3040    3.6080 o         1 421     -0.600100
     18 C18        -4.0750   -0.0610    5.6130 ca        1 421     -0.120000
     19 C19        -5.1330    0.0670    6.5110 ca        1 421     -0.093000
     20 C20        -6.4410   -0.1520    6.0870 ca        1 421     -0.178000
     21 C21        -6.6840   -0.5080    4.7530 ca        1 421      0.130100
     22 C22        -5.6280   -0.6460    3.8230 ca        1 421     -0.070300
     23 C23        -5.9260   -1.0550    2.4320 c3        1 421     -0.062800
     24 O24        -7.9520   -0.7390    4.2750 oh        1 421     -0.488100
     25 C25        -3.0690    0.1260   -2.6010 c         1 421      0.634700
     26 O26        -4.2830    0.2990   -2.7240 o         1 421     -0.516000
     27 O27        -2.3090   -0.0320   -3.7250 os        1 421     -0.435900
     28 C28        -3.0070    0.0130   -4.9750 c3        1 421      0.125700
     29 H2          1.6760   -0.5900   -1.0320 ha        1 421      0.161000
     30 H3          2.9260   -0.7020    1.1110 ha        1 421      0.129000
     31 H5         -0.7000    0.2580    3.2900 ha        1 421      0.166000
     32 H8         -4.1180    0.3340   -0.2050 ha        1 421      0.176000
     33 H10        -0.3820   -0.2690   -2.2730 ha        1 421      0.175000
     34 H121        2.7670    1.5410    3.6120 hn        1 421      0.468133
     35 H122        3.5980    0.4460    4.5710 hn        1 421      0.468133
     36 H13         0.8010   -1.6160    4.6410 hn        1 421      0.501400
     37 H14        -4.0020    0.8350    2.1230 hn        1 421      0.329500
     38 H18        -3.0410    0.0970    5.9500 ha        1 421      0.139000
     39 H19        -4.9350    0.3390    7.5590 ha        1 421      0.149000
     40 H20        -7.2790   -0.0530    6.7930 ha        1 421      0.150000
     41 H231       -6.0940   -0.1540    1.7890 hc        1 421      0.058700
     42 H232       -5.0940   -1.6630    1.9990 hc        1 421      0.058700
     43 H233       -6.8620   -1.6710    2.4000 hc        1 421      0.058700
     44 H24        -8.5730   -0.6680    5.0160 ho        1 421      0.432000
     45 H281       -3.7650   -0.8060   -5.0140 h1        1 421      0.061700
     46 H282       -2.1950   -0.1390   -5.7290 h1        1 421      0.061700
     47 H283       -3.5030    1.0050   -5.0970 h1        1 421      0.061700
     48 H123        3.6880    0.3440    2.8990 hn        1 421      0.468133
@<TRIPOS>BOND
     1    1    2 ar  
     2    1    6 ar  
     3    1   10 ar  
     4    2    3 ar  
     5    2   29 1   
     6    3    4 ar  
     7    3   30 1   
     8    4    5 ar  
     9    4   11 1   
    10    5    6 ar  
    11    5   31 1   
    12    6    7 ar  
    13    7    8 ar  
    14    7   14 1   
    15    8    9 ar  
    16    8   32 1   
    17    9   10 ar  
    18    9   25 1   
    19   10   33 1   
    20   11   12 1   
    21   11   13 2   
    22   12   34 1   
    23   12   35 1   
    24   12   48 1   
    25   13   36 1   
    26   14   15 1   
    27   14   37 1   
    28   15   16 1   
    29   15   17 2   
    30   16   18 ar  
    31   16   22 ar  
    32   18   19 ar  
    33   18   38 1   
    34   19   20 ar  
    35   19   39 1   
    36   20   21 ar  
    37   20   40 1   
    38   21   22 ar  
    39   21   24 1   
    40   22   23 1   
    41   23   41 1   
    42   23   42 1   
    43   23   43 1   
    44   24   44 1   
    45   25   26 2   
    46   25   27 1   
    47   27   28 1   
    48   28   45 1   
    49   28   46 1   
    50   28   47 1   
@<TRIPOS>SUBSTRUCTURE
     1 421         1 TEMP              0 ****  ****    0 ROOT
