@<TRIPOS>MOLECULE
421
   47    42     1     0     0
SMALL
bcc


@<TRIPOS>ATOM
      1 C1          2.1700    0.1130   -2.1410 c1        1 421     -0.032000
      2 C2          3.5710    0.2420   -2.1670 c1        1 421     -0.114000
      3 C3          4.2930    0.3710   -0.9540 c1        1 421     -0.114000
      4 C4          3.6170    0.3700    0.2620 c1        1 421     -0.104000
      5 C5          2.2230    0.2430    0.2860 c1        1 421     -0.090000
      6 C6          1.4980    0.1130   -0.9340 c1        1 421     -0.044000
      7 C7          0.0880    0.0490   -0.9120 c2        1 421      0.076000
      8 C8         -0.6290   -0.0130   -2.1110 c1        1 421     -0.116000
      9 C9          0.0450   -0.0130   -3.3220 c1        1 421     -0.075000
     10 C10         1.4500    0.0500   -3.3450 c2        1 421     -0.079000
     11 C11         4.5030    0.3770    1.5610 c2        1 421      0.111000
     12 N12         4.9510   -0.8770    2.1410 n3        1 421     -0.331000
     13 N13         4.8390    1.5150    2.1200 n1        1 421     -0.297000
     14 N14        -0.4520    0.0710    0.4320 n         1 421     -0.332000
     15 C15        -1.8490   -0.1670    0.6460 c2        1 421      0.356000
     16 C16        -2.4230   -0.1490    2.0790 c2        1 421     -0.100000
     17 O17        -2.5820   -0.3850   -0.3020 o         1 421     -0.325000
     18 C18        -3.2250    0.9780    2.0450 c2        1 421     -0.137000
     19 C19        -4.0760    1.2660    3.1200 c1        1 421     -0.100000
     20 C20        -4.1140    0.4180    4.2230 c1        1 421     -0.191000
     21 C21        -3.3070   -0.7160    4.2590 c1        1 421      0.071000
     22 C22        -2.4610   -1.0010    3.1880 c1        1 421     -0.039000
     23 C23        -1.5970   -2.2330    3.2180 c3        1 421     -0.189000
     24 O24        -3.2890   -1.5540    5.4390 oh        1 421     -0.247000
     25 C25        -0.7060   -0.0120   -4.6500 c2        1 421      0.343000
     26 O26        -1.1500   -1.0450   -5.0940 o         1 421     -0.339000
     27 O27        -0.9000    1.2140   -5.3620 os        1 421     -0.281000
     28 C28        -1.6480    1.0650   -6.5960 c3        1 421     -0.062000
     29 H2          4.0500    0.2420   -3.0290 ha        1 421      0.143000
     30 H3          5.2630    0.4590   -0.9730 ha        1 421      0.143000
     31 H5          1.7440    0.2430    1.1440 ha        1 421      0.146000
     32 H8         -1.6090   -0.0570   -2.0950 ha        1 421      0.191000
     33 H10         1.9350    0.0500   -4.2160 ha        1 421      0.158000
     34 H121        4.8120   -1.6470    1.7050 hn        1 421      0.194500
     35 H122        5.4350   -0.8760    2.9520 hn        1 421      0.194500
     36 H13         4.5600    2.2980    1.7580 DU        1 421      0.152000
     37 H14         0.0850    0.2810    1.1340 hn        1 421      0.240000
     38 H18        -3.1970    1.5710    1.2730 ha        1 421      0.143000
     39 H19        -4.6410    2.0590    3.0950 ha        1 421      0.141000
     40 H20        -4.7120    0.6210    4.9780 ha        1 421      0.138000
     41 H231       -1.6940   -2.6840    4.0910 hc        1 421      0.100333
     42 H232       -0.6780   -1.9820    3.0870 hc        1 421      0.100333
     43 H233       -1.8750   -2.8430    2.5030 hc        1 421      0.100333
     44 H24        -2.8700   -1.1360    6.0900 ho        1 421      0.220000
     45 H281       -1.6090    1.9180   -7.1150 h1        1 421      0.091333
     46 H282       -1.2590    0.3420   -7.1260 h1        1 421      0.091333
     47 H283       -2.5830    0.8510   -6.3880 h1        1 421      0.091333
@<TRIPOS>BOND
     1    1    6 1   
     2    1   10 1   
     3    2    3 1   
     4    2   29 1   
     5    3   30 1   
     6    4    5 1   
     7    4   11 1   
     8    5   31 1   
     9    6    7 1   
    10    7    8 1   
    11    7   14 1   
    12    8   32 1   
    13    9   10 1   
    14    9   25 1   
    15   10   33 1   
    16   11   12 1   
    17   11   13 1   
    18   12   34 1   
    19   12   35 1   
    20   14   15 1   
    21   14   37 1   
    22   15   16 1   
    23   15   17 1   
    24   16   18 1   
    25   16   22 1   
    26   18   19 1   
    27   18   38 1   
    28   19   39 1   
    29   20   21 1   
    30   20   40 1   
    31   21   24 1   
    32   22   23 1   
    33   23   41 1   
    34   23   42 1   
    35   23   43 1   
    36   24   44 1   
    37   25   26 1   
    38   25   27 1   
    39   27   28 1   
    40   28   45 1   
    41   28   46 1   
    42   28   47 1   
@<TRIPOS>SUBSTRUCTURE
     1 421         1 TEMP              0 ****  ****    0 ROOT
