@<TRIPOS>MOLECULE
421
   48    50     1     0     0
SMALL
bcc


@<TRIPOS>ATOM
      1 C1         -0.2360   -0.1750   -0.0850 ca        1 421     -0.015000
      2 C2          1.1710   -0.4090   -0.0540 ca        1 421     -0.080000
      3 C3          1.8590   -0.4350    1.1290 ca        1 421     -0.136000
      4 C4          1.1630   -0.1900    2.3430 ca        1 421     -0.270900
      5 C5         -0.1940    0.0590    2.3420 ca        1 421     -0.005000
      6 C6         -0.9410    0.0230    1.1340 ca        1 421     -0.031000
      7 C7         -2.3730    0.1670    1.1000 ca        1 421      0.073600
      8 C8         -3.0150    0.1840   -0.1400 ca        1 421     -0.127000
      9 C9         -2.2880    0.0410   -1.3410 ca        1 421     -0.068600
     10 C10        -0.9230   -0.1520   -1.3230 ca        1 421     -0.077000
     11 C11         1.8560   -0.2850    3.6420 ce        1 421      0.592800
     12 N12         3.0660    0.6130    3.7120 nz        1 421     -0.824600
     13 N13         1.5940   -0.9730    4.6860 n2        1 421     -0.718100
     14 N14        -3.1480    0.3370    2.2650 ns        1 421     -0.470100
     15 C15        -3.1590   -0.5310    3.3650 c         1 421      0.688700
     16 C16        -4.3370   -0.4020    4.2720 ca        1 421     -0.129600
     17 O17        -2.2070   -1.2930    3.6160 o         1 421     -0.600100
     18 C18        -4.0940   -0.0470    5.6040 ca        1 421     -0.120000
     19 C19        -5.1560    0.0810    6.4960 ca        1 421     -0.093000
     20 C20        -6.4610   -0.1480    6.0670 ca        1 421     -0.178000
     21 C21        -6.6960   -0.5140    4.7350 ca        1 421      0.130100
     22 C22        -5.6350   -0.6530    3.8110 ca        1 421     -0.070300
     23 C23        -5.9250   -1.0730    2.4210 c3        1 421     -0.062800
     24 O24        -7.9600   -0.7550    4.2530 oh        1 421     -0.488100
     25 C25        -3.0500    0.0860   -2.6060 c         1 421      0.634700
     26 O26        -4.2650    0.2520   -2.7360 o         1 421     -0.516000
     27 O27        -2.2850   -0.0750   -3.7260 os        1 421     -0.435900
     28 C28        -2.9770   -0.0440   -4.9800 c3        1 421      0.125700
     29 H2          1.6910   -0.5880   -1.0110 ha        1 421      0.161000
     30 H3          2.9320   -0.6770    1.1390 ha        1 421      0.129000
     31 H5         -0.7100    0.2760    3.2940 ha        1 421      0.166000
     32 H8         -4.1120    0.3050   -0.2170 ha        1 421      0.176000
     33 H10        -0.3630   -0.2900   -2.2640 ha        1 421      0.175000
     34 H121        2.7470    1.5830    3.6240 hn        1 421      0.468133
     35 H122        3.5810    0.4990    4.5940 hn        1 421      0.468133
     36 H13         0.7970   -1.5790    4.6660 hn        1 421      0.501400
     37 H14        -4.0100    0.8240    2.1070 hn        1 421      0.329500
     38 H18        -3.0620    0.1190    5.9450 ha        1 421      0.139000
     39 H19        -4.9650    0.3610    7.5430 ha        1 421      0.149000
     40 H20        -7.3030   -0.0480    6.7690 ha        1 421      0.150000
     41 H231       -6.0950   -0.1770    1.7710 hc        1 421      0.058700
     42 H232       -5.0880   -1.6790    1.9960 hc        1 421      0.058700
     43 H233       -6.8570   -1.6950    2.3900 hc        1 421      0.058700
     44 H24        -8.5860   -0.6820    4.9900 ho        1 421      0.432000
     45 H281       -3.7310   -0.8670   -5.0160 h1        1 421      0.061700
     46 H282       -2.1610   -0.1980   -5.7280 h1        1 421      0.061700
     47 H283       -3.4780    0.9450   -5.1110 h1        1 421      0.061700
     48 H123        3.6790    0.3870    2.9230 hn        1 421      0.468133
@<TRIPOS>BOND
     1    1    2 ar  
     2    1    6 ar  
     3    1   10 ar  
     4    2    3 ar  
     5    2   29 1   
     6    3    4 ar  
     7    3   30 1   
     8    4    5 ar  
     9    4   11 1   
    10    5    6 ar  
    11    5   31 1   
    12    6    7 ar  
    13    7    8 ar  
    14    7   14 1   
    15    8    9 ar  
    16    8   32 1   
    17    9   10 ar  
    18    9   25 1   
    19   10   33 1   
    20   11   12 1   
    21   11   13 2   
    22   12   34 1   
    23   12   35 1   
    24   12   48 1   
    25   13   36 1   
    26   14   15 1   
    27   14   37 1   
    28   15   16 1   
    29   15   17 2   
    30   16   18 ar  
    31   16   22 ar  
    32   18   19 ar  
    33   18   38 1   
    34   19   20 ar  
    35   19   39 1   
    36   20   21 ar  
    37   20   40 1   
    38   21   22 ar  
    39   21   24 1   
    40   22   23 1   
    41   23   41 1   
    42   23   42 1   
    43   23   43 1   
    44   24   44 1   
    45   25   26 2   
    46   25   27 1   
    47   27   28 1   
    48   28   45 1   
    49   28   46 1   
    50   28   47 1   
@<TRIPOS>SUBSTRUCTURE
     1 421         1 TEMP              0 ****  ****    0 ROOT
