@<TRIPOS>MOLECULE
421
   47    49     1     0     0
SMALL
bcc


@<TRIPOS>ATOM
      1 C1          2.9770    0.0070   -0.0150 ca        1 421     -0.032000
      2 C2          4.0840   -0.8890   -0.0330 ca        1 421     -0.113000
      3 C3          3.8940   -2.2470   -0.0300 ca        1 421     -0.114000
      4 C4          2.5760   -2.7690   -0.0050 ca        1 421     -0.129900
      5 C5          1.4880   -1.9240    0.0270 ca        1 421     -0.087000
      6 C6          1.6570   -0.5110    0.0120 ca        1 421     -0.044000
      7 C7          0.5470    0.4180    0.0310 ca        1 421      0.068600
      8 C8          0.8020    1.7860    0.0320 ca        1 421     -0.118000
      9 C9          2.1310    2.2730    0.0110 ca        1 421     -0.096600
     10 C10         3.2010    1.4080   -0.0120 ca        1 421     -0.079000
     11 C11         2.3730   -4.2550    0.0030 ce        1 421      0.651800
     12 N12         3.1640   -4.9530   -0.9340 nh        1 421     -0.960800
     13 N13         1.5630   -4.7620    0.8830 n2        1 421     -0.829100
     14 N14        -0.7670   -0.0760    0.0160 n         1 421     -0.475100
     15 C15        -1.8850    0.5560    0.5560 c         1 421      0.679700
     16 C16        -3.1480   -0.2450    0.4830 ca        1 421     -0.109600
     17 O17        -1.8410    1.6910    1.0570 o         1 421     -0.565100
     18 C18        -3.2020   -1.4600    1.1730 ca        1 421     -0.142000
     19 C19        -4.3680   -2.2230    1.1560 ca        1 421     -0.104000
     20 C20        -5.4810   -1.7870    0.4470 ca        1 421     -0.137000
     21 C21        -5.4190   -0.5670   -0.2470 ca        1 421      0.120100
     22 C22        -4.2530    0.2270   -0.2400 ca        1 421     -0.105300
     23 C23        -4.2270    1.5120   -0.9760 c3        1 421     -0.069800
     24 O24        -6.5620   -0.2220   -0.9300 oh        1 421     -0.497100
     25 C25         2.3210    3.7330    0.0010 c         1 421      0.643700
     26 O26         1.4740    4.6140   -0.1650 o         1 421     -0.530000
     27 O27         3.6210    4.1280    0.1990 os        1 421     -0.441900
     28 C28         3.8620    5.5350    0.2080 c3        1 421      0.127700
     29 H2          5.1000   -0.4640   -0.0420 ha        1 421      0.141000
     30 H3          4.7540   -2.9330   -0.0260 ha        1 421      0.149000
     31 H5          0.4830   -2.3700    0.0880 ha        1 421      0.143000
     32 H8         -0.0190    2.5260    0.0600 ha        1 421      0.189000
     33 H10         4.2350    1.7900   -0.0250 ha        1 421      0.158000
     34 H121        3.5130   -4.4150   -1.6910 hn        1 421      0.402300
     35 H122        2.8680   -5.8690   -1.1790 hn        1 421      0.402300
     36 H13         1.4510   -5.7530    0.8690 hn        1 421      0.385400
     37 H14        -0.8910   -1.0090   -0.3100 hn        1 421      0.324500
     38 H18        -2.3290   -1.8080    1.7450 ha        1 421      0.144000
     39 H19        -4.4090   -3.1750    1.7080 ha        1 421      0.142000
     40 H20        -6.4100   -2.3750    0.4190 ha        1 421      0.155000
     41 H231       -5.0280    2.1940   -0.5920 hc        1 421      0.057033
     42 H232       -3.2490    2.0400   -0.8550 hc        1 421      0.057033
     43 H233       -4.3990    1.3380   -2.0690 hc        1 421      0.057033
     44 H24        -6.4430    0.6600   -1.3120 ho        1 421      0.425000
     45 H281        4.9610    5.6120    0.3930 h1        1 421      0.051700
     46 H282        3.5800    5.9760   -0.7790 h1        1 421      0.051700
     47 H283        3.2730    6.0180    1.0250 h1        1 421      0.051700
@<TRIPOS>BOND
     1    1    2 ar  
     2    1    6 ar  
     3    1   10 ar  
     4    2    3 ar  
     5    2   29 1   
     6    3    4 ar  
     7    3   30 1   
     8    4    5 ar  
     9    4   11 1   
    10    5    6 ar  
    11    5   31 1   
    12    6    7 ar  
    13    7    8 ar  
    14    7   14 1   
    15    8    9 ar  
    16    8   32 1   
    17    9   10 ar  
    18    9   25 1   
    19   10   33 1   
    20   11   12 1   
    21   11   13 2   
    22   12   34 1   
    23   12   35 1   
    24   13   36 1   
    25   14   15 1   
    26   14   37 1   
    27   15   16 1   
    28   15   17 2   
    29   16   18 ar  
    30   16   22 ar  
    31   18   19 ar  
    32   18   38 1   
    33   19   20 ar  
    34   19   39 1   
    35   20   21 ar  
    36   20   40 1   
    37   21   22 ar  
    38   21   24 1   
    39   22   23 1   
    40   23   41 1   
    41   23   42 1   
    42   23   43 1   
    43   24   44 1   
    44   25   26 2   
    45   25   27 1   
    46   27   28 1   
    47   28   45 1   
    48   28   46 1   
    49   28   47 1   
@<TRIPOS>SUBSTRUCTURE
     1 421         1 TEMP              0 ****  ****    0 ROOT
