@<TRIPOS>MOLECULE
422
   53    45     1     0     0
SMALL
bcc


@<TRIPOS>ATOM
      1 C1         -1.8520   -0.4170   -0.0660 c1        1 422     -0.113000
      2 C2         -0.4500   -0.3690   -0.0990 c2        1 422     -0.054000
      3 C3          0.2890   -0.3780    1.1170 c1        1 422     -0.096000
      4 C4         -0.3800   -0.4340    2.3310 c1        1 422     -0.002500
      5 C5         -1.8050   -0.4830    2.3560 c1        1 422     -0.125000
      6 C6         -2.5260   -0.4740    1.1590 c1        1 422     -0.103000
      7 C11         1.6730   -0.3150    1.3890 c1        1 422     -0.166000
      8 C12         1.8420   -0.3330    2.7790 c2        1 422      0.028000
      9 N13         0.5900   -0.4060    3.3650 n1        1 422     -0.197000
     10 C14         3.0800   -0.4740    3.5120 c2        1 422     -0.044000
     11 C15         4.0010   -1.2600    4.2040 c1        1 422     -0.089000
     12 C16         4.9410   -0.4310    4.7440 c1        1 422     -0.002500
     13 N17         4.6150    0.8590    4.3940 n1        1 422     -0.180000
     14 N18         3.4580    0.8170    3.6290 n2        1 422     -0.043000
     15 C19         4.0510   -2.6660    4.4610 c1        1 422     -0.062000
     16 C20         5.0500   -3.1910    5.2550 c1        1 422     -0.127000
     17 C21         6.0030   -2.3580    5.8030 c1        1 422      0.020000
     18 C22         5.9550   -0.9590    5.5490 c1        1 422     -0.125000
     19 C23         7.2180   -2.8760    6.5140 c1        1 422     -0.101000
     20 C7         -2.8570   -0.5670   -1.1920 c2        1 422     -0.024000
     21 N2         -2.4490    0.2990   -2.3460 n3        1 422     -0.254000
     22 C8         -2.4960   -0.4770   -3.5840 c3        1 422     -0.068500
     23 C9         -3.2910    1.4840   -2.3860 c3        1 422     -0.068500
     24 C10        -3.0290    2.3450   -3.6030 c3        1 422     -0.151500
     25 C13        -2.2240    0.3680   -4.8050 c3        1 422     -0.151500
     26 C17        -3.0830    1.5740   -4.8550 c3        1 422     -0.149000
     27 C18        -2.5960    2.5070   -6.0650 c3        1 422     -0.083000
     28 N3         -3.7080    2.7830   -6.9290 n3        1 422     -0.337000
     29 N1          8.1360   -3.2720    7.0480 n1        1 422     -0.029000
     30 H2          0.0330   -0.3260   -0.9890 ha        1 422      0.150000
     31 H5         -2.2920   -0.5250    3.2360 ha        1 422      0.143500
     32 H6         -3.5430   -0.5090    1.1770 ha        1 422      0.130000
     33 H11         2.3700   -0.2690    0.7420 DU        1 422      0.232000
     34 HN13        0.4180   -0.4300    4.2660 DU        1 422      0.232000
     35 HN17        5.0870    1.6260    4.6280 DU        1 422      0.232000
     36 H19         3.3730   -3.2590    4.0720 ha        1 422      0.153000
     37 H20         5.0830   -4.1910    5.4350 ha        1 422      0.150000
     38 H22         6.6420   -0.3570    5.9450 ha        1 422      0.143500
     39 H71        -2.8860   -1.5280   -1.4880 h4        1 422      0.075500
     40 H72        -3.7200   -0.3020   -0.8860 h4        1 422      0.075500
     41 H81        -1.8190   -1.1990   -3.5340 h1        1 422      0.071500
     42 H82        -3.4510   -0.9110   -3.6740 h1        1 422      0.071500
     43 H91        -3.1240    2.0260   -1.5620 h1        1 422      0.071500
     44 H92        -4.2960    1.1820   -2.3970 h1        1 422      0.071500
     45 H101       -3.6950    3.0370   -3.6370 hc        1 422      0.086250
     46 H102       -2.1510    2.7570   -3.5190 hc        1 422      0.086250
     47 H131       -1.2820    0.6480   -4.7950 hc        1 422      0.086250
     48 H132       -2.3800   -0.1550   -5.5860 hc        1 422      0.086250
     49 H17        -4.0530    1.2870   -5.0270 hc        1 422      0.084000
     50 H181       -1.9110    2.0570   -6.5590 h1        1 422      0.091500
     51 H182       -2.2340    3.3690   -5.6990 h1        1 422      0.091500
     52 HN31       -4.4400    2.9980   -6.4240 hn        1 422      0.139500
     53 HN32       -3.8840    2.0770   -7.4050 hn        1 422      0.139500
@<TRIPOS>BOND
     1    1    2 1   
     2    1    6 1   
     3    2    3 1   
     4    2   30 1   
     5    4    5 1   
     6    5   31 1   
     7    6   32 1   
     8    7    8 1   
     9    8    9 1   
    10    8   10 1   
    11   10   11 1   
    12   10   14 1   
    13   11   15 1   
    14   12   18 1   
    15   13   14 1   
    16   15   36 1   
    17   16   17 1   
    18   16   37 1   
    19   17   19 1   
    20   18   38 1   
    21   19   29 1   
    22   20   21 1   
    23   20   39 1   
    24   20   40 1   
    25   21   22 1   
    26   21   23 1   
    27   22   25 1   
    28   22   41 1   
    29   22   42 1   
    30   23   24 1   
    31   23   43 1   
    32   23   44 1   
    33   24   26 1   
    34   24   45 1   
    35   24   46 1   
    36   25   26 1   
    37   25   47 1   
    38   25   48 1   
    39   26   27 1   
    40   26   49 1   
    41   27   28 1   
    42   27   50 1   
    43   27   51 1   
    44   28   52 1   
    45   28   53 1   
@<TRIPOS>SUBSTRUCTURE
     1 422         1 TEMP              0 ****  ****    0 ROOT
