@<TRIPOS>MOLECULE
422
   53    57     1     0     0
SMALL
bcc


@<TRIPOS>ATOM
      1 C1         -1.8220   -1.2170    4.3210 ca        1 422     -0.120300
      2 C2         -2.6220   -0.7160    5.3420 ca        1 422     -0.053000
      3 C3         -3.8110   -1.3770    5.6570 ca        1 422     -0.108800
      4 C4         -4.1900   -2.5600    4.9170 ca        1 422     -0.035200
      5 C5         -3.3730   -3.0570    3.8890 ca        1 422     -0.152000
      6 C6         -2.2010   -2.3750    3.6080 ca        1 422     -0.102000
      7 C11        -4.8520   -1.1500    6.6310 cc        1 422     -0.129200
      8 C12        -5.8020   -2.1590    6.4620 cd        1 422     -0.096700
      9 N13        -5.4310   -2.9970    5.3860 na        1 422     -0.184400
     10 C14        -7.0190   -2.3620    7.2090 cd        1 422      0.405200
     11 C15        -8.2360   -3.0300    6.7480 ca        1 422     -0.184900
     12 C16        -9.1290   -2.9490    7.8830 ca        1 422     -0.058200
     13 N17        -8.4210   -2.2690    8.8840 na        1 422     -0.011100
     14 N18        -7.1940   -1.9290    8.4900 nc        1 422     -0.479100
     15 C19        -8.6760   -3.6370    5.5720 ca        1 422     -0.069000
     16 C20        -9.9560   -4.1660    5.5310 ca        1 422     -0.127000
     17 C21       -10.8160   -4.0960    6.6530 ca        1 422      0.015000
     18 C22       -10.4220   -3.4860    7.8420 ca        1 422     -0.098000
     19 C23       -12.1190   -4.6610    6.5560 cg        1 422      0.228800
     20 C7         -0.5100   -0.5650    3.9940 c3        1 422      0.220100
     21 N2         -0.5920    0.8790    3.8010 n3        1 422     -0.728600
     22 C8          0.7320    1.4810    3.7100 c3        1 422      0.168300
     23 C9         -1.4530    1.2460    2.6840 c3        1 422      0.168300
     24 C10        -1.5470    2.7550    2.4660 c3        1 422     -0.072900
     25 C13         0.6910    2.9950    3.5160 c3        1 422     -0.072900
     26 C17        -0.1670    3.3730    2.3200 c3        1 422     -0.109700
     27 C18        -0.2470    4.9030    2.2090 c3        1 422      0.153800
     28 N3         -0.9080    5.4390    1.0490 n3        1 422     -0.904800
     29 N1        -13.1830   -5.1240    6.4750 n1        1 422     -0.353800
     30 H2         -2.3280    0.1890    5.8940 ha        1 422      0.152000
     31 H5         -3.6550   -3.9560    3.3250 ha        1 422      0.133000
     32 H6         -1.5440   -2.7480    2.8060 ha        1 422      0.130000
     33 H11        -4.8880   -0.3420    7.3560 ha        1 422      0.168000
     34 HN13       -5.8080   -3.8950    5.2320 hn        1 422      0.294700
     35 HN17       -8.7400   -2.0370    9.7950 hn        1 422      0.333700
     36 H19        -8.0290   -3.6830    4.6840 ha        1 422      0.146000
     37 H20       -10.3210   -4.6490    4.6110 ha        1 422      0.149000
     38 H22       -11.0970   -3.4270    8.7080 ha        1 422      0.153000
     39 H71         0.1890   -0.7460    4.8640 h1        1 422      0.036200
     40 H72        -0.0580   -1.0740    3.0900 h1        1 422      0.036200
     41 H81         1.3350    1.0290    2.8680 h1        1 422      0.032200
     42 H82         1.2730    1.2580    4.6730 h1        1 422      0.032200
     43 H91        -2.4810    0.8450    2.9100 h1        1 422      0.032200
     44 H92        -1.1030    0.7690    1.7200 h1        1 422      0.032200
     45 H101       -2.1540    2.9330    1.5420 hc        1 422      0.047450
     46 H102       -2.0830    3.2320    3.3270 hc        1 422      0.047450
     47 H131        0.2840    3.4850    4.4390 hc        1 422      0.047450
     48 H132        1.7390    3.3600    3.3660 hc        1 422      0.047450
     49 H17         0.3150    2.9620    1.3890 hc        1 422      0.044700
     50 H181        0.8050    5.3090    2.2200 h1        1 422      0.052700
     51 H182       -0.7750    5.3010    3.1220 h1        1 422      0.052700
     52 HN31       -1.8700    5.1640    1.0260 hn        1 422      0.344300
     53 HN32       -0.4660    5.1260    0.2070 hn        1 422      0.344300
@<TRIPOS>BOND
     1    1    2 ar  
     2    1    6 ar  
     3    1   20 1   
     4    2    3 ar  
     5    2   30 1   
     6    3    4 ar  
     7    3    7 1   
     8    4    5 ar  
     9    4    9 1   
    10    5    6 ar  
    11    5   31 1   
    12    6   32 1   
    13    7    8 2   
    14    7   33 1   
    15    8    9 1   
    16    8   10 1   
    17    9   34 1   
    18   10   11 1   
    19   10   14 2   
    20   11   12 ar  
    21   11   15 ar  
    22   12   13 1   
    23   12   18 ar  
    24   13   14 1   
    25   13   35 1   
    26   15   16 ar  
    27   15   36 1   
    28   16   17 ar  
    29   16   37 1   
    30   17   18 ar  
    31   17   19 1   
    32   18   38 1   
    33   19   29 3   
    34   20   21 1   
    35   20   39 1   
    36   20   40 1   
    37   21   22 1   
    38   21   23 1   
    39   22   25 1   
    40   22   41 1   
    41   22   42 1   
    42   23   24 1   
    43   23   43 1   
    44   23   44 1   
    45   24   26 1   
    46   24   45 1   
    47   24   46 1   
    48   25   26 1   
    49   25   47 1   
    50   25   48 1   
    51   26   27 1   
    52   26   49 1   
    53   27   28 1   
    54   27   50 1   
    55   27   51 1   
    56   28   52 1   
    57   28   53 1   
@<TRIPOS>SUBSTRUCTURE
     1 422         1 TEMP              0 ****  ****    0 ROOT
