@<TRIPOS>MOLECULE
422
   54    57     1     0     0
SMALL
bcc


@<TRIPOS>ATOM
      1 C1          1.1920    2.5570   -0.2820 ca        1 422     -0.175300
      2 C2          2.0370    1.4500   -0.2390 ca        1 422     -0.069000
      3 C3          2.5710    1.0520    0.9830 ca        1 422     -0.095800
      4 C4          2.2470    1.8000    2.1840 ca        1 422     -0.019200
      5 C5          1.3980    2.9180    2.1260 ca        1 422     -0.127000
      6 C6          0.8810    3.2770    0.8930 ca        1 422     -0.104000
      7 C11         3.4520   -0.0150    1.3880 cc        1 422     -0.155200
      8 C12         3.6370    0.1070    2.7690 cd        1 422     -0.040700
      9 N13         2.9090    1.2110    3.2540 na        1 422     -0.174400
     10 C14         4.4330   -0.7300    3.6340 cd        1 422      0.367200
     11 C15         5.0830   -0.3470    4.8830 ca        1 422     -0.179900
     12 C16         5.7390   -1.5610    5.3170 ca        1 422     -0.060200
     13 N17         5.4510   -2.5280    4.3400 na        1 422      0.003900
     14 N18         4.6930   -2.0440    3.3640 nc        1 422     -0.464100
     15 C19         5.2140    0.8120    5.6490 ca        1 422     -0.082000
     16 C20         5.9550    0.7600    6.8180 ca        1 422     -0.111000
     17 C21         6.5800   -0.4390    7.2420 ca        1 422      0.025000
     18 C22         6.4870   -1.6140    6.5010 ca        1 422     -0.087000
     19 C23         7.3240   -0.4330    8.4550 cg        1 422      0.215800
     20 C7          0.6040    3.0220   -1.5790 c3        1 422     -0.090700
     21 N2         -1.5920    2.0150   -2.1850 nh        1 422     -0.201100
     22 C8         -0.2960    1.9200   -2.0760 c2        1 422      0.409200
     23 C9         -2.4630    0.9180   -2.6030 c3        1 422     -0.022700
     24 C10        -3.6090    1.3740   -3.4860 c3        1 422     -0.123100
     25 C13         1.6720    3.3190   -2.6270 c3        1 422     -0.079400
     26 C17         1.1130    3.6910   -3.9820 c3        1 422     -0.093400
     27 C18         0.1780    4.9010   -3.9490 c3        1 422      0.139800
     28 N3         -1.2160    4.5520   -3.7590 n3        1 422     -0.955800
     29 N1          7.9310   -0.4250    9.4470 n1        1 422     -0.327800
     30 H2          2.2990    0.8940   -1.1520 ha        1 422      0.130000
     31 H5          1.1540    3.4930    3.0300 ha        1 422      0.151000
     32 H6          0.2210    4.1560    0.8280 ha        1 422      0.133000
     33 H11         3.8940   -0.7710    0.7440 ha        1 422      0.176000
     34 HN13        2.8500    1.4850    4.2000 hn        1 422      0.314700
     35 HN17        5.7500   -3.4770    4.3250 hn        1 422      0.341700
     36 H19         4.7560    1.7580    5.3290 ha        1 422      0.138000
     37 H20         6.0700    1.6650    7.4360 ha        1 422      0.155000
     38 H22         6.9800   -2.5410    6.8290 ha        1 422      0.162000
     39 H71         0.0170    3.9720   -1.4040 hc        1 422      0.097700
     40 H72        -2.0560    2.8950   -2.0030 hn        1 422      0.333700
     41 H81         2.3000    4.1640   -2.2310 hc        1 422      0.075700
     42 H82         0.2010    0.9520   -2.3220 h4        1 422      0.060800
     43 H91        -2.8740    0.4470   -1.6600 h1        1 422      0.093700
     44 H92        -1.8470    0.1440   -3.1440 h1        1 422      0.093700
     45 H101       -4.2720    2.1010   -2.9570 hc        1 422      0.073033
     46 H102       -3.2390    1.8450   -4.4290 hc        1 422      0.073033
     47 H131        0.5990    2.8030   -4.4380 hc        1 422      0.055200
     48 H132        2.3500    2.4310   -2.7400 hc        1 422      0.075700
     49 H17         1.9790    3.9440   -4.6530 hc        1 422      0.055200
     50 H181        0.4890    5.5800   -3.1040 h1        1 422      0.050700
     51 H182        0.3340    5.4810   -4.9070 h1        1 422      0.050700
     52 HN31       -4.2180    0.4740   -3.7550 hc        1 422      0.073033
     53 HN32       -1.7490    5.3810   -3.5760 hn        1 422      0.358300
     54 H33        -1.5800    4.1200   -4.5880 hn        1 422      0.358300
@<TRIPOS>BOND
     1    1    2 ar  
     2    1    6 ar  
     3    1   20 1   
     4    2    3 ar  
     5    2   30 1   
     6    3    4 ar  
     7    3    7 1   
     8    4    5 ar  
     9    4    9 1   
    10    5    6 ar  
    11    5   31 1   
    12    6   32 1   
    13    7    8 2   
    14    7   33 1   
    15    8    9 1   
    16    8   10 1   
    17    9   34 1   
    18   10   11 1   
    19   10   14 2   
    20   11   12 ar  
    21   11   15 ar  
    22   12   13 1   
    23   12   18 ar  
    24   13   14 1   
    25   13   35 1   
    26   15   16 ar  
    27   15   36 1   
    28   16   17 ar  
    29   16   37 1   
    30   17   18 ar  
    31   17   19 1   
    32   18   38 1   
    33   19   29 3   
    34   20   22 1   
    35   20   25 1   
    36   20   39 1   
    37   21   22 2   
    38   21   23 1   
    39   21   40 1   
    40   22   42 1   
    41   23   24 1   
    42   23   43 1   
    43   23   44 1   
    44   24   45 1   
    45   24   46 1   
    46   24   52 1   
    47   25   26 1   
    48   25   41 1   
    49   25   48 1   
    50   26   27 1   
    51   26   47 1   
    52   26   49 1   
    53   27   28 1   
    54   27   50 1   
    55   27   51 1   
    56   28   53 1   
    57   28   54 1   
@<TRIPOS>SUBSTRUCTURE
     1 422         1 TEMP              0 ****  ****    0 ROOT
