@<TRIPOS>MOLECULE
422
   54    58     1     0     0
SMALL
bcc


@<TRIPOS>ATOM
      1 C1          0.1190    0.1210    0.0360 ca        1 422     -0.141300
      2 C2          1.5060    0.0170    0.0650 ca        1 422     -0.057000
      3 C3          2.1600    0.0240    1.2970 ca        1 422     -0.105800
      4 C4          1.3860    0.1340    2.5160 ca        1 422     -0.030200
      5 C5         -0.0140    0.2330    2.4730 ca        1 422     -0.143000
      6 C6         -0.6250    0.2250    1.2300 ca        1 422     -0.107000
      7 C11         3.5440   -0.0680    1.6950 cc        1 422     -0.146200
      8 C12         3.5750   -0.0100    3.0910 cd        1 422     -0.070700
      9 N13         2.2680    0.1490    3.5960 na        1 422     -0.181400
     10 C14         4.7310   -0.0780    3.9540 cd        1 422      0.387200
     11 C15         4.8610    0.4680    5.3030 ca        1 422     -0.183900
     12 C16         6.2100    0.1180    5.6890 ca        1 422     -0.060200
     13 N17         6.7660   -0.5570    4.5910 na        1 422     -0.003100
     14 N18         5.8980   -0.6840    3.5910 nc        1 422     -0.473100
     15 C19         4.0630    1.1940    6.1870 ca        1 422     -0.077000
     16 C20         4.5810    1.5420    7.4240 ca        1 422     -0.120000
     17 C21         5.8990    1.1820    7.7970 ca        1 422      0.020000
     18 C22         6.7350    0.4710    6.9400 ca        1 422     -0.092000
     19 C23         6.3770    1.5650    9.0820 cg        1 422      0.220800
     20 C7         -0.6110    0.0630   -1.2730 c3        1 422      0.225100
     21 N2         -0.1840    1.0760   -2.2350 n3        1 422     -0.734600
     22 C8         -0.8290    0.9080   -3.5290 c3        1 422      0.170300
     23 C9         -0.3100    2.4350   -1.7350 c3        1 422      0.170300
     24 C10         0.2480    3.4700   -2.7160 c3        1 422     -0.083900
     25 C13        -0.2910    1.8850   -4.5750 c3        1 422     -0.083900
     26 C17        -0.4040    3.3230   -4.0800 c3        1 422     -0.091700
     27 C18         0.2590    4.2260   -5.1230 c3        1 422      0.097800
     28 N3          0.1410    5.6780   -4.7950 n4        1 422     -0.838600
     29 N1          6.7650    1.8810   10.1320 n1        1 422     -0.338800
     30 H2          2.0830   -0.0750   -0.8670 ha        1 422      0.143000
     31 H5         -0.6070    0.3070    3.3950 ha        1 422      0.141000
     32 H6         -1.7230    0.2920    1.1740 ha        1 422      0.131000
     33 H11         4.4000   -0.1690    1.0350 ha        1 422      0.169000
     34 HN13        2.0150    0.0320    4.5420 hn        1 422      0.303700
     35 HN17        7.6530   -1.0020    4.5470 hn        1 422      0.337700
     36 H19         3.0450    1.5010    5.9100 ha        1 422      0.141000
     37 H20         3.9650    2.1130    8.1360 ha        1 422      0.152000
     38 H22         7.7590    0.1990    7.2310 ha        1 422      0.158000
     39 H71        -0.4050   -0.9420   -1.7470 h1        1 422      0.046700
     40 H72        -1.7240    0.1290   -1.0840 h1        1 422      0.046700
     41 H81        -1.9500    1.0350   -3.4630 h1        1 422      0.052200
     42 H82        -0.6220   -0.1400   -3.8870 h1        1 422      0.052200
     43 H91         0.2730    2.5000   -0.7720 h1        1 422      0.052200
     44 H92        -1.3840    2.7050   -1.5100 h1        1 422      0.052200
     45 H101        0.0480    4.4850   -2.2840 hc        1 422      0.053450
     46 H102        1.3580    3.3380   -2.8060 hc        1 422      0.053450
     47 H131        0.7820    1.6440   -4.7970 hc        1 422      0.053450
     48 H132       -0.8810    1.7570   -5.5190 hc        1 422      0.053450
     49 H17        -1.4980    3.5840   -3.9950 hc        1 422      0.069700
     50 H181        1.3590    3.9820   -5.1970 hx        1 422      0.112200
     51 H182       -0.2210    4.0620   -6.1310 hx        1 422      0.112200
     52 HN31        0.5930    5.8650   -3.8920 hn        1 422      0.460800
     53 HN32       -0.8470    5.9430   -4.7250 hn        1 422      0.460800
     54 H33         0.5900    6.2430   -5.5210 hn        1 422      0.460800
@<TRIPOS>BOND
     1    1    2 ar  
     2    1    6 ar  
     3    1   20 1   
     4    2    3 ar  
     5    2   30 1   
     6    3    4 ar  
     7    3    7 1   
     8    4    5 ar  
     9    4    9 1   
    10    5    6 ar  
    11    5   31 1   
    12    6   32 1   
    13    7    8 2   
    14    7   33 1   
    15    8    9 1   
    16    8   10 1   
    17    9   34 1   
    18   10   11 1   
    19   10   14 2   
    20   11   12 ar  
    21   11   15 ar  
    22   12   13 1   
    23   12   18 ar  
    24   13   14 1   
    25   13   35 1   
    26   15   16 ar  
    27   15   36 1   
    28   16   17 ar  
    29   16   37 1   
    30   17   18 ar  
    31   17   19 1   
    32   18   38 1   
    33   19   29 3   
    34   20   21 1   
    35   20   39 1   
    36   20   40 1   
    37   21   22 1   
    38   21   23 1   
    39   22   25 1   
    40   22   41 1   
    41   22   42 1   
    42   23   24 1   
    43   23   43 1   
    44   23   44 1   
    45   24   26 1   
    46   24   45 1   
    47   24   46 1   
    48   25   26 1   
    49   25   47 1   
    50   25   48 1   
    51   26   27 1   
    52   26   49 1   
    53   27   28 1   
    54   27   50 1   
    55   27   51 1   
    56   28   52 1   
    57   28   53 1   
    58   28   54 1   
@<TRIPOS>SUBSTRUCTURE
     1 422         1 TEMP              0 ****  ****    0 ROOT
