@<TRIPOS>MOLECULE
424
   61    65     1     0     0
SMALL
bcc


@<TRIPOS>ATOM
      1 S1          0.3540    1.0570    1.7340 sy        1 424      1.372300
      2 N2          3.7850   -0.1620    0.8460 n         1 424     -0.464800
      3 Cl2         1.2630    4.1870    1.7390 cl        1 424     -0.067400
      4 C3          4.9120   -0.4510    3.0820 cx        1 424     -0.154700
      5 Cl3         1.5790   -3.4510    7.0160 cl        1 424     -0.065400
      6 C4          1.7020    1.0660    0.5900 c3        1 424     -0.278900
      7 C5          4.6410   -0.8930    1.6730 c         1 424      0.737100
      8 C6          3.0700   -0.8130   -0.2330 c3        1 424      0.050700
      9 C7         -0.5740    2.3030    1.1260 ca        1 424     -0.408500
     10 C8          3.0770    1.0330    1.2840 c3        1 424      0.104000
     11 C9          1.6970   -0.1110   -0.3810 c3        1 424     -0.060400
     12 C10         3.8320   -0.7420   -1.5720 c         1 424      0.537100
     13 C11         6.3510   -0.1440    3.4530 cx        1 424     -0.093900
     14 C12         5.3540    0.9660    3.3680 cx        1 424     -0.093900
     15 C13         6.2250   -1.0490   -2.2660 cx        1 424     -0.099100
     16 N14         5.0180   -1.6770   -1.6860 ny        1 424     -0.647800
     17 C15         6.9360   -0.0950   -1.3440 c2        1 424      0.446200
     18 N16         7.3360   -0.2710   -0.1540 n2        1 424     -0.712100
     19 C17         4.0620   -1.1830    4.0440 ca        1 424     -0.101300
     20 O18        -0.3160   -0.1660    1.5770 o         1 424     -0.636800
     21 O19         0.8710    1.3300    3.0030 o         1 424     -0.636800
     22 C20         7.0960   -1.8630   -3.2190 cx        1 424     -0.086400
     23 C21         6.2720   -0.7400   -3.7560 cx        1 424     -0.086400
     24 O22         5.1850   -1.9100    1.1800 o         1 424     -0.664100
     25 C23        -0.2420    3.6700    1.1430 ca        1 424      0.128400
     26 O24         3.5500   -0.0790   -2.5540 o         1 424     -0.408100
     27 C25         4.3730   -2.5140    4.3550 ca        1 424     -0.101500
     28 C26         2.9700   -0.5650    4.6630 ca        1 424     -0.101500
     29 C27         2.5160   -2.5950    5.8930 ca        1 424      0.033400
     30 C29        -1.8360    1.9560    0.6050 ca        1 424     -0.019000
     31 C30         3.6060   -3.2210    5.2760 ca        1 424     -0.123000
     32 C31         2.1970   -1.2680    5.5860 ca        1 424     -0.123000
     33 C33        -1.1280    4.6440    0.6750 ca        1 424     -0.146000
     34 C34        -2.7230    2.9160    0.1330 ca        1 424     -0.146000
     35 C35        -2.3710    4.2660    0.1710 ca        1 424     -0.037000
     36 H4          1.6600    2.0140   -0.0140 h1        1 424      0.128700
     37 H6          2.9230   -1.9130   -0.0040 h1        1 424      0.105700
     38 H8          3.6840    1.9310    0.9770 h1        1 424      0.094200
     39 H8A         2.9780    1.0430    2.4090 h1        1 424      0.094200
     40 H9          1.5290    0.2420   -1.4300 hc        1 424      0.102200
     41 H9A         0.8900   -0.8520   -0.1300 hc        1 424      0.102200
     42 H11         6.7100   -0.4800    4.4440 hc        1 424      0.093200
     43 H11A        7.1320   -0.2330    2.6760 hc        1 424      0.093200
     44 H12         5.4250    1.6880    2.5350 hc        1 424      0.093200
     45 H12A        4.9900    1.4420    4.2990 hc        1 424      0.093200
     46 HN14        5.2510   -2.0520   -0.7460 hn        1 424      0.472800
     47 H15         7.1520    0.8850   -1.8270 h4        1 424      0.053800
     48 HN16        7.1630   -1.1430    0.3050 hn        1 424      0.415400
     49 H20         8.1940   -1.7460   -3.1240 hc        1 424      0.111200
     50 H20A        6.8180   -2.9060   -3.4640 hc        1 424      0.111200
     51 H21         5.3890   -0.9600   -4.3850 hc        1 424      0.111200
     52 H21A        6.7630    0.2050   -4.0630 hc        1 424      0.111200
     53 H25         5.2310   -3.0010    3.8660 ha        1 424      0.152500
     54 H26         2.7020    0.4800    4.4310 ha        1 424      0.152500
     55 H29        -2.1330    0.8890    0.5840 ha        1 424      0.174000
     56 H30         3.8590   -4.2650    5.5190 ha        1 424      0.160000
     57 H31         1.3380   -0.7740    6.0690 ha        1 424      0.160000
     58 H33        -0.8470    5.7100    0.7110 ha        1 424      0.169000
     59 H34        -3.7050    2.6110   -0.2620 ha        1 424      0.161000
     60 H35        -3.0720    5.0340   -0.1930 ha        1 424      0.160000
     61 H142        4.7440   -2.4640   -2.2870 hn        1 424      0.472800
@<TRIPOS>BOND
     1    1    6 1   
     2    1    9 1   
     3    1   20 2   
     4    1   21 2   
     5    2    7 1   
     6    2    8 1   
     7    2   10 1   
     8    3   25 1   
     9    4    7 1   
    10    4   13 1   
    11    4   14 1   
    12    4   19 1   
    13    5   29 1   
    14    6   10 1   
    15    6   11 1   
    16    6   36 1   
    17    7   24 2   
    18    8   11 1   
    19    8   12 1   
    20    8   37 1   
    21    9   25 ar  
    22    9   30 ar  
    23   10   38 1   
    24   10   39 1   
    25   11   40 1   
    26   11   41 1   
    27   12   16 1   
    28   12   26 2   
    29   13   14 1   
    30   13   42 1   
    31   13   43 1   
    32   14   44 1   
    33   14   45 1   
    34   15   16 1   
    35   15   17 1   
    36   15   22 1   
    37   15   23 1   
    38   16   46 1   
    39   16   61 1   
    40   17   18 2   
    41   17   47 1   
    42   18   48 1   
    43   19   27 ar  
    44   19   28 ar  
    45   22   23 1   
    46   22   49 1   
    47   22   50 1   
    48   23   51 1   
    49   23   52 1   
    50   25   33 ar  
    51   27   31 ar  
    52   27   53 1   
    53   28   32 ar  
    54   28   54 1   
    55   29   31 ar  
    56   29   32 ar  
    57   30   34 ar  
    58   30   55 1   
    59   31   56 1   
    60   32   57 1   
    61   33   35 ar  
    62   33   58 1   
    63   34   35 ar  
    64   34   59 1   
    65   35   60 1   
@<TRIPOS>SUBSTRUCTURE
     1 424         1 TEMP              0 ****  ****    0 ROOT
