@<TRIPOS>MOLECULE
424
   60    64     1     0     0
SMALL
bcc


@<TRIPOS>ATOM
      1 S1          1.2460    2.3910   -0.1960 sy        1 424      1.367300
      2 N2         -0.8290   -0.7870   -0.1090 n         1 424     -0.456800
      3 CL2         0.7460    3.2660   -3.3160 cl        1 424     -0.066400
      4 C3          0.5670   -2.8150   -0.4930 cx        1 424     -0.153700
      5 CL3         5.7180   -2.5270    2.5100 cl        1 424     -0.093400
      6 C4         -0.2070    1.5150   -0.5360 c3        1 424     -0.296900
      7 C5         -0.5530   -2.1050    0.2240 c         1 424      0.708100
      8 C6         -1.7370    0.0270    0.6880 c3        1 424      0.036700
      9 C7          0.7890    3.9390   -0.6980 ca        1 424     -0.367500
     10 C8          0.0630    0.0390   -0.8980 c3        1 424      0.128000
     11 C9         -1.2080    1.4760    0.6200 c3        1 424     -0.057400
     12 C10        -3.2000   -0.0490    0.1790 c         1 424      0.660100
     13 C11         0.2010   -4.1120   -1.1860 cx        1 424     -0.101900
     14 C12         0.5300   -2.9020   -2.0010 cx        1 424     -0.101900
     15 C13        -5.0700   -1.5680   -0.3460 cx        1 424     -0.020900
     16 N14        -3.7960   -1.2900    0.2320 n         1 424     -0.508900
     17 C15        -5.0800   -2.2820   -1.6710 c2        1 424      0.449200
     18 N16        -4.0460   -2.8130   -2.2030 n2        1 424     -0.770100
     19 C17         1.8460   -2.7210    0.2370 ca        1 424     -0.067300
     20 O18         1.4750    2.4140    1.1900 o         1 424     -0.643300
     21 O19         2.2850    1.8810   -0.9820 o         1 424     -0.643300
     22 C20        -6.2390   -1.9510    0.5680 cx        1 424     -0.110400
     23 C21        -6.2520   -0.6280   -0.1260 cx        1 424     -0.110400
     24 O22        -1.2570   -2.6910    1.0720 o         1 424     -0.612100
     25 C23         0.5890    4.3570   -2.0230 ca        1 424      0.127400
     26 O24        -3.8100    0.9820   -0.1670 o         1 424     -0.619100
     27 C25         1.9460   -3.2890    1.5160 ca        1 424     -0.107500
     28 C26         2.9600   -2.0820   -0.3200 ca        1 424     -0.107500
     29 C27         4.2520   -2.5970    1.6520 ca        1 424      0.023400
     30 C29         0.6310    4.9060    0.3120 ca        1 424     -0.023000
     31 C30         3.1430   -3.2310    2.2230 ca        1 424     -0.123500
     32 C31         4.1620   -2.0180    0.3830 ca        1 424     -0.123500
     33 C33         0.2510    5.6800   -2.3290 ca        1 424     -0.152000
     34 C34         0.2930    6.2220    0.0210 ca        1 424     -0.152000
     35 C35         0.1030    6.6110   -1.3050 ca        1 424     -0.056000
     36 H4         -0.7390    1.9710   -1.4180 h1        1 424      0.128700
     37 H6         -1.7410   -0.3390    1.7580 h1        1 424      0.095700
     38 H8          1.1410   -0.2370   -0.7030 h1        1 424      0.068200
     39 H8A        -0.1470   -0.1340   -1.9910 h1        1 424      0.068200
     40 H9         -0.7070    1.7290    1.5910 hc        1 424      0.089200
     41 H9A        -2.0470    2.1970    0.4510 hc        1 424      0.089200
     42 H11         0.9210   -4.9490   -1.1430 hc        1 424      0.085450
     43 H11A       -0.8480   -4.4570   -1.1240 hc        1 424      0.085450
     44 H12        -0.2830   -2.3820   -2.5420 hc        1 424      0.085450
     45 H12A        1.4850   -2.8680   -2.5550 hc        1 424      0.085450
     46 HN14       -3.2290   -2.0920    0.4170 hn        1 424      0.348500
     47 H15        -6.1000   -2.2960   -2.1210 h4        1 424     -0.036200
     48 HN16       -4.2020   -3.2580   -3.0840 hn        1 424      0.386400
     49 H20        -6.9200   -2.7510    0.2270 hc        1 424      0.084200
     50 H20A       -6.0710   -1.9860    1.6590 hc        1 424      0.084200
     51 H21        -6.0810    0.2970    0.4560 hc        1 424      0.084200
     52 H21A       -6.9440   -0.4610   -0.9700 hc        1 424      0.084200
     53 H25         1.0610   -3.7740    1.9610 ha        1 424      0.150500
     54 H26         2.8930   -1.6210   -1.3180 ha        1 424      0.150500
     55 H29         0.7880    4.6070    1.3670 ha        1 424      0.173000
     56 H30         3.2130   -3.6790    3.2260 ha        1 424      0.151000
     57 H31         5.0300   -1.5070   -0.0600 ha        1 424      0.151000
     58 H33         0.1040    5.9830   -3.3780 ha        1 424      0.157000
     59 H34         0.1780    6.9540    0.8350 ha        1 424      0.149000
     60 H35        -0.1640    7.6530   -1.5450 ha        1 424      0.146000
@<TRIPOS>BOND
     1    1    6 1   
     2    1    9 1   
     3    1   20 2   
     4    1   21 2   
     5    2    7 1   
     6    2    8 1   
     7    2   10 1   
     8    3   25 1   
     9    4    7 1   
    10    4   13 1   
    11    4   14 1   
    12    4   19 1   
    13    5   29 1   
    14    6   10 1   
    15    6   11 1   
    16    6   36 1   
    17    7   24 2   
    18    8   11 1   
    19    8   12 1   
    20    8   37 1   
    21    9   25 ar  
    22    9   30 ar  
    23   10   38 1   
    24   10   39 1   
    25   11   40 1   
    26   11   41 1   
    27   12   16 1   
    28   12   26 2   
    29   13   14 1   
    30   13   42 1   
    31   13   43 1   
    32   14   44 1   
    33   14   45 1   
    34   15   16 1   
    35   15   17 1   
    36   15   22 1   
    37   15   23 1   
    38   16   46 1   
    39   17   18 2   
    40   17   47 1   
    41   18   48 1   
    42   19   27 ar  
    43   19   28 ar  
    44   22   23 1   
    45   22   49 1   
    46   22   50 1   
    47   23   51 1   
    48   23   52 1   
    49   25   33 ar  
    50   27   31 ar  
    51   27   53 1   
    52   28   32 ar  
    53   28   54 1   
    54   29   31 ar  
    55   29   32 ar  
    56   30   34 ar  
    57   30   55 1   
    58   31   56 1   
    59   32   57 1   
    60   33   35 ar  
    61   33   58 1   
    62   34   35 ar  
    63   34   59 1   
    64   35   60 1   
@<TRIPOS>SUBSTRUCTURE
     1 424         1 TEMP              0 ****  ****    0 ROOT
