@<TRIPOS>MOLECULE
424
   61    65     1     0     0
SMALL
bcc


@<TRIPOS>ATOM
      1 S1          0.3580    1.0820    1.7190 sy        1 424      1.372300
      2 N2          3.7840   -0.1660    0.8480 n         1 424     -0.464800
      3 CL2         1.3170    4.1960    1.8250 cl        1 424     -0.067400
      4 C3          4.8740   -0.5320    3.0910 cx        1 424     -0.154700
      5 CL3         1.4400   -3.5850    6.8960 cl        1 424     -0.065400
      6 C4          1.7240    1.1010    0.5960 c3        1 424     -0.278900
      7 C5          4.6170   -0.9320    1.6670 c         1 424      0.737100
      8 C6          3.0750   -0.7760   -0.2580 c3        1 424      0.050700
      9 C7         -0.5400    2.3600    1.1330 ca        1 424     -0.408500
     10 C8          3.0870    1.0280    1.3080 c3        1 424      0.104000
     11 C9          1.7150   -0.0490   -0.4070 c3        1 424     -0.060400
     12 C10         3.8570   -0.6820   -1.5830 c         1 424      0.537100
     13 C11         6.3110   -0.2570    3.4900 cx        1 424     -0.093900
     14 C12         5.3330    0.8700    3.4220 cx        1 424     -0.093900
     15 C13         6.2550   -1.0110   -2.2520 cx        1 424     -0.099100
     16 N14         5.0300   -1.6330   -1.7060 n4        1 424     -0.647800
     17 C15         6.9680   -0.0920   -1.2960 c2        1 424      0.446200
     18 N16         7.3480   -0.3050   -0.1050 n2        1 424     -0.712100
     19 C17         3.9990   -1.2760    4.0210 ca        1 424     -0.101300
     20 O18        -0.3290   -0.1240    1.5180 o         1 424     -0.636800
     21 O19         0.8610    1.3110    3.0020 o         1 424     -0.636800
     22 C20         7.1260   -1.8150   -3.2130 cx        1 424     -0.086400
     23 C21         6.3290   -0.6640   -3.7330 cx        1 424     -0.086400
     24 O22         5.1510   -1.9440    1.1540 o         1 424     -0.664100
     25 C23        -0.1870    3.7200    1.1940 ca        1 424      0.128400
     26 O24         3.6010    0.0130   -2.5510 o         1 424     -0.408100
     27 C25         4.2860   -2.6190    4.3010 ca        1 424     -0.101500
     28 C26         2.9070   -0.6590    4.6410 ca        1 424     -0.101500
     29 C27         2.4060   -2.7130    5.8100 ca        1 424      0.033400
     30 C29        -1.8000    2.0480    0.5850 ca        1 424     -0.019000
     31 C30         3.4960   -3.3390    5.1920 ca        1 424     -0.123000
     32 C31         2.1110   -1.3740    5.5340 ca        1 424     -0.123000
     33 C33        -1.0500    4.7210    0.7410 ca        1 424     -0.146000
     34 C34        -2.6650    3.0350    0.1280 ca        1 424     -0.146000
     35 C35        -2.2910    4.3770    0.2080 ca        1 424     -0.037000
     36 H4          1.7040    2.0650    0.0170 h1        1 424      0.128700
     37 H6          2.9080   -1.8800   -0.0610 h1        1 424      0.105700
     38 H8          3.7120    1.9250    1.0340 h1        1 424      0.094200
     39 H8A         2.9710    1.0100    2.4320 h1        1 424      0.094200
     40 H9          0.8930   -0.7840   -0.1890 hc        1 424      0.102700
     41 H9A         1.5690    0.3340   -1.4480 hc        1 424      0.102700
     42 H11         6.6510   -0.6240    4.4770 hc        1 424      0.093200
     43 H11A        7.1020   -0.3370    2.7220 hc        1 424      0.093200
     44 H12         5.4260    1.6140    2.6090 hc        1 424      0.093200
     45 H12A        4.9630    1.3270    4.3600 hc        1 424      0.093200
     46 HN14        4.7510   -2.4000   -2.3310 hn        1 424      0.472800
     47 H15         7.2060    0.8960   -1.7500 h4        1 424      0.053800
     48 HN16        7.1540   -1.1860    0.3280 hn        1 424      0.415400
     49 H20         6.8350   -2.8460   -3.4890 hc        1 424      0.111200
     50 H20A        8.2240   -1.7180   -3.1000 hc        1 424      0.111200
     51 H21         5.4510   -0.8530   -4.3800 hc        1 424      0.111200
     52 H21A        6.8400    0.2800   -4.0090 hc        1 424      0.111200
     53 H25         5.1450   -3.1050    3.8120 ha        1 424      0.152500
     54 H26         2.6570    0.3960    4.4320 ha        1 424      0.152500
     55 H29        -2.1140    0.9870    0.5300 ha        1 424      0.174000
     56 H30         3.7300   -4.3920    5.4110 ha        1 424      0.160000
     57 H31         1.2520   -0.8800    6.0170 ha        1 424      0.160000
     58 H33        -0.7530    5.7810    0.8100 ha        1 424      0.169000
     59 H34        -3.6460    2.7570   -0.2900 ha        1 424      0.161000
     60 H35        -2.9750    5.1670   -0.1450 ha        1 424      0.160000
     61 H142        5.2430   -2.0370   -0.7730 hn        1 424      0.472800
@<TRIPOS>BOND
     1    1    6 1   
     2    1    9 1   
     3    1   20 2   
     4    1   21 2   
     5    2    7 1   
     6    2    8 1   
     7    2   10 1   
     8    3   25 1   
     9    4    7 1   
    10    4   13 1   
    11    4   14 1   
    12    4   19 1   
    13    5   29 1   
    14    6   10 1   
    15    6   11 1   
    16    6   36 1   
    17    7   24 2   
    18    8   11 1   
    19    8   12 1   
    20    8   37 1   
    21    9   25 ar  
    22    9   30 ar  
    23   10   38 1   
    24   10   39 1   
    25   11   40 1   
    26   11   41 1   
    27   12   16 1   
    28   12   26 2   
    29   13   14 1   
    30   13   42 1   
    31   13   43 1   
    32   14   44 1   
    33   14   45 1   
    34   15   16 1   
    35   15   17 1   
    36   15   22 1   
    37   15   23 1   
    38   16   46 1   
    39   16   61 1   
    40   17   18 2   
    41   17   47 1   
    42   18   48 1   
    43   19   27 ar  
    44   19   28 ar  
    45   22   23 1   
    46   22   49 1   
    47   22   50 1   
    48   23   51 1   
    49   23   52 1   
    50   25   33 ar  
    51   27   31 ar  
    52   27   53 1   
    53   28   32 ar  
    54   28   54 1   
    55   29   31 ar  
    56   29   32 ar  
    57   30   34 ar  
    58   30   55 1   
    59   31   56 1   
    60   32   57 1   
    61   33   35 ar  
    62   33   58 1   
    63   34   35 ar  
    64   34   59 1   
    65   35   60 1   
@<TRIPOS>SUBSTRUCTURE
     1 424         1 TEMP              0 ****  ****    0 ROOT
