@<TRIPOS>MOLECULE
424
   61    65     1     0     0
SMALL
bcc


@<TRIPOS>ATOM
      1 S1          0.3520    1.0450    1.7500 sy        1 424      1.372300
      2 N2          3.7830   -0.1590    0.8390 n         1 424     -0.464800
      3 CL2         1.2540    4.1770    1.7720 cl        1 424     -0.067400
      4 C3          4.9210   -0.4590    3.0680 cx        1 424     -0.154700
      5 CL3         1.6130   -3.4950    6.9970 cl        1 424     -0.065400
      6 C4          1.6960    1.0650    0.6010 c3        1 424     -0.278900
      7 C5          4.6450   -0.8920    1.6580 c         1 424      0.737100
      8 C6          3.0650   -0.8050   -0.2400 c3        1 424      0.050700
      9 C7         -0.5810    2.2930    1.1540 ca        1 424     -0.408500
     10 C8          3.0730    1.0320    1.2880 c3        1 424      0.104000
     11 C9          1.6900   -0.1060   -0.3780 c3        1 424     -0.060400
     12 C10         3.8210   -0.7230   -1.5820 c         1 424      0.537100
     13 C11         6.3590   -0.1500    3.4360 cx        1 424     -0.093900
     14 C12         5.3600    0.9580    3.3630 cx        1 424     -0.093900
     15 C13         6.2120   -1.0170   -2.2880 cx        1 424     -0.099100
     16 N14         5.0100   -1.6530   -1.7080 n4        1 424     -0.647800
     17 C15         6.9230   -0.0660   -1.3630 c2        1 424      0.446200
     18 N16         7.3290   -0.2480   -0.1750 n2        1 424     -0.712100
     19 C17         4.0770   -1.2000    4.0300 ca        1 424     -0.101300
     20 O18        -0.3160   -0.1780    1.5880 o         1 424     -0.636800
     21 O19         0.8740    1.3110    3.0180 o         1 424     -0.636800
     22 C20         7.0820   -1.8210   -3.2500 cx        1 424     -0.086400
     23 C21         6.2520   -0.6970   -3.7760 cx        1 424     -0.086400
     24 O22         5.1900   -1.9040    1.1560 o         1 424     -0.664100
     25 C23        -0.2530    3.6600    1.1790 ca        1 424      0.128400
     26 O24         3.5320   -0.0540   -2.5590 o         1 424     -0.408100
     27 C25         4.3930   -2.5320    4.3310 ca        1 424     -0.101500
     28 C26         2.9850   -0.5890    4.6580 ca        1 424     -0.101500
     29 C27         2.5430   -2.6290    5.8750 ca        1 424      0.033400
     30 C29        -1.8450    1.9470    0.6370 ca        1 424     -0.019000
     31 C30         3.6320   -3.2470    5.2500 ca        1 424     -0.123000
     32 C31         2.2180   -1.3010    5.5790 ca        1 424     -0.123000
     33 C33        -1.1420    4.6360    0.7220 ca        1 424     -0.146000
     34 C34        -2.7360    2.9080    0.1750 ca        1 424     -0.146000
     35 C35        -2.3860    4.2580    0.2200 ca        1 424     -0.037000
     36 H4          1.6480    2.0160    0.0020 h1        1 424      0.128700
     37 H6          2.9230   -1.9070   -0.0180 h1        1 424      0.105700
     38 H8          2.9780    1.0340    2.4140 h1        1 424      0.094200
     39 H8A         3.6760    1.9340    0.9850 h1        1 424      0.094200
     40 H9          1.5160    0.2520   -1.4230 hc        1 424      0.102700
     41 H9A         0.8860   -0.8510   -0.1280 hc        1 424      0.102700
     42 H11         7.1380   -0.2310    2.6550 hc        1 424      0.093200
     43 H11A        6.7240   -0.4900    4.4230 hc        1 424      0.093200
     44 H12         5.4240    1.6860    2.5340 hc        1 424      0.093200
     45 H12A        4.9980    1.4270    4.2980 hc        1 424      0.093200
     46 HN14        5.2480   -2.0330   -0.7710 hn        1 424      0.472800
     47 H15         7.1330    0.9180   -1.8400 h4        1 424      0.053800
     48 HN16        7.1620   -1.1240    0.2780 hn        1 424      0.415400
     49 H20         6.8070   -2.8630   -3.5010 hc        1 424      0.111200
     50 H20A        8.1800   -1.7010   -3.1590 hc        1 424      0.111200
     51 H21         5.3670   -0.9160   -4.4030 hc        1 424      0.111200
     52 H21A        6.7380    0.2520   -4.0800 hc        1 424      0.111200
     53 H25         5.2510   -3.0120    3.8350 ha        1 424      0.152500
     54 H26         2.7130    0.4560    4.4330 ha        1 424      0.152500
     55 H29        -2.1390    0.8790    0.6100 ha        1 424      0.174000
     56 H30         3.8890   -4.2920    5.4860 ha        1 424      0.160000
     57 H31         1.3600   -0.8130    6.0680 ha        1 424      0.160000
     58 H33        -0.8640    5.7020    0.7630 ha        1 424      0.169000
     59 H34        -3.7200    2.6030   -0.2180 ha        1 424      0.161000
     60 H35        -3.0910    5.0270   -0.1360 ha        1 424      0.160000
     61 H142        4.7360   -2.4370   -2.3120 hn        1 424      0.472800
@<TRIPOS>BOND
     1    1    6 1   
     2    1    9 1   
     3    1   20 2   
     4    1   21 2   
     5    2    7 1   
     6    2    8 1   
     7    2   10 1   
     8    3   25 1   
     9    4    7 1   
    10    4   13 1   
    11    4   14 1   
    12    4   19 1   
    13    5   29 1   
    14    6   10 1   
    15    6   11 1   
    16    6   36 1   
    17    7   24 2   
    18    8   11 1   
    19    8   12 1   
    20    8   37 1   
    21    9   25 ar  
    22    9   30 ar  
    23   10   38 1   
    24   10   39 1   
    25   11   40 1   
    26   11   41 1   
    27   12   16 1   
    28   12   26 2   
    29   13   14 1   
    30   13   42 1   
    31   13   43 1   
    32   14   44 1   
    33   14   45 1   
    34   15   16 1   
    35   15   17 1   
    36   15   22 1   
    37   15   23 1   
    38   16   46 1   
    39   16   61 1   
    40   17   18 2   
    41   17   47 1   
    42   18   48 1   
    43   19   27 ar  
    44   19   28 ar  
    45   22   23 1   
    46   22   49 1   
    47   22   50 1   
    48   23   51 1   
    49   23   52 1   
    50   25   33 ar  
    51   27   31 ar  
    52   27   53 1   
    53   28   32 ar  
    54   28   54 1   
    55   29   31 ar  
    56   29   32 ar  
    57   30   34 ar  
    58   30   55 1   
    59   31   56 1   
    60   32   57 1   
    61   33   35 ar  
    62   33   58 1   
    63   34   35 ar  
    64   34   59 1   
    65   35   60 1   
@<TRIPOS>SUBSTRUCTURE
     1 424         1 TEMP              0 ****  ****    0 ROOT
