@<TRIPOS>MOLECULE
426
   53    56     1     0     0
SMALL
bcc


@<TRIPOS>ATOM
      1 N18         3.1490    2.4270   -0.5400 n2        1 426     -0.659100
      2 C17         2.7300    1.2540   -0.7580 ce        1 426      0.614800
      3 N19         2.0510    0.3460    0.2680 n4        1 426     -0.884600
      4 C4          2.8350    0.5760   -2.0780 ca        1 426     -0.178900
      5 C5          2.2790    1.1700   -3.1910 ca        1 426     -0.037000
      6 C6          2.4240    0.5560   -4.4670 ca        1 426     -0.018000
      7 C10         1.8560    1.1360   -5.6370 ca        1 426     -0.080000
      8 C11         2.0080    0.5330   -6.8620 ca        1 426     -0.108000
      9 C12         2.7340   -0.6820   -6.9700 ca        1 426     -0.157600
     10 C13         3.2880   -1.2740   -5.8490 ca        1 426     -0.015000
     11 C1          3.1480   -0.6580   -4.5750 ca        1 426     -0.031000
     12 C2          3.7220   -1.2370   -3.4080 ca        1 426     -0.068000
     13 C3          3.5720   -0.6340   -2.1840 ca        1 426     -0.126000
     14 C20         2.8610   -1.3950   -8.2510 c         1 426      0.569700
     15 O23         2.7730   -2.6000   -8.4380 o         1 426     -0.400100
     16 N21         3.1410   -0.5620   -9.4860 n4        1 426     -0.538200
     17 C22         4.5840   -0.4660   -9.7570 ca        1 426     -0.025400
     18 C28         5.3060   -1.6300  -10.0390 ca        1 426     -0.138000
     19 C27         6.6710   -1.5210  -10.3360 ca        1 426     -0.075000
     20 C26         7.3000   -0.2880  -10.3540 ca        1 426     -0.102000
     21 C25         6.5570    0.8850  -10.0660 ca        1 426      0.180100
     22 O33         7.2870    2.0370  -10.1020 os        1 426     -0.302900
     23 C34         6.6110    3.2920   -9.8740 c3        1 426      0.134100
     24 C38         7.7350    4.3320   -9.7800 c3        1 426     -0.092900
     25 C37         7.5330    5.3190  -10.9190 c3        1 426     -0.079900
     26 C36         6.1570    5.0590  -11.5150 c3        1 426     -0.079900
     27 C35         5.7140    3.6790  -11.0520 c3        1 426     -0.092900
     28 C24         5.1920    0.8050   -9.7660 ca        1 426     -0.215000
     29 H18         3.0880    2.9030    0.3350 hn        1 426      0.477400
     30 H191        1.0610    0.2480    0.0210 hn        1 426      0.464800
     31 H192        2.1210    0.7100    1.2220 hn        1 426      0.464800
     32 H5          1.7300    2.1250   -3.1220 ha        1 426      0.171000
     33 H10         1.2870    2.0760   -5.5430 ha        1 426      0.171000
     34 H11         1.5300    0.9850   -7.7450 ha        1 426      0.147000
     35 H13         3.8370   -2.2300   -5.9250 ha        1 426      0.177000
     36 H2          4.2980   -2.1740   -3.5040 ha        1 426      0.174000
     37 H3          4.0590   -1.0690   -1.2970 ha        1 426      0.150000
     38 H21         2.6980   -1.0160  -10.3000 hn        1 426      0.466300
     39 H28         4.8280   -2.6230  -10.0370 ha        1 426      0.168000
     40 H27         7.2440   -2.4360  -10.5670 ha        1 426      0.178000
     41 H26         8.3730   -0.1930  -10.5940 ha        1 426      0.190000
     42 H34         6.0390    3.2190   -8.9120 h1        1 426      0.040700
     43 H381        8.7350    3.8330   -9.8520 hc        1 426      0.058950
     44 H382        7.6800    4.8450   -8.7870 hc        1 426      0.058950
     45 H371        7.6150    6.3730  -10.5510 hc        1 426      0.061200
     46 H372        8.3250    5.1760  -11.6980 hc        1 426      0.061200
     47 H361        6.1890    5.1110  -12.6320 hc        1 426      0.061200
     48 H362        5.4290    5.8350  -11.1660 hc        1 426      0.061200
     49 H351        4.6400    3.6900  -10.7430 hc        1 426      0.058950
     50 H352        5.8290    2.9320  -11.8780 hc        1 426      0.058950
     51 H24         4.6170    1.7210   -9.5660 ha        1 426      0.155000
     52 H193        2.4870   -0.5820    0.2340 hn        1 426      0.464800
     53 H212        2.7540    0.3810   -9.3730 hn        1 426      0.466300
@<TRIPOS>BOND
     1    1    2 2   
     2    1   29 1   
     3    2    3 1   
     4    2    4 1   
     5    3   30 1   
     6    3   31 1   
     7    3   52 1   
     8    4    5 ar  
     9    4   13 ar  
    10    5    6 ar  
    11    5   32 1   
    12    6    7 ar  
    13    6   11 ar  
    14    7    8 ar  
    15    7   33 1   
    16    8    9 ar  
    17    8   34 1   
    18    9   10 ar  
    19    9   14 1   
    20   10   11 ar  
    21   10   35 1   
    22   11   12 ar  
    23   12   13 ar  
    24   12   36 1   
    25   13   37 1   
    26   14   15 2   
    27   14   16 1   
    28   16   17 1   
    29   16   38 1   
    30   16   53 1   
    31   17   18 ar  
    32   17   28 ar  
    33   18   19 ar  
    34   18   39 1   
    35   19   20 ar  
    36   19   40 1   
    37   20   21 ar  
    38   20   41 1   
    39   21   22 1   
    40   21   28 ar  
    41   22   23 1   
    42   23   24 1   
    43   23   27 1   
    44   23   42 1   
    45   24   25 1   
    46   24   43 1   
    47   24   44 1   
    48   25   26 1   
    49   25   45 1   
    50   25   46 1   
    51   26   27 1   
    52   26   47 1   
    53   26   48 1   
    54   27   49 1   
    55   27   50 1   
    56   28   51 1   
@<TRIPOS>SUBSTRUCTURE
     1 426         1 TEMP              0 ****  ****    0 ROOT
