@<TRIPOS>MOLECULE
426
   51    54     1     0     0
SMALL
bcc


@<TRIPOS>ATOM
      1 N18         0.5780    1.3030    8.1970 n2        1 426     -0.830100
      2 C17         0.7350    0.1870    7.5470 ce        1 426      0.635800
      3 N19         1.0100   -1.0250    8.2140 nh        1 426     -0.892800
      4 C4          0.7140    0.0770    6.0520 ca        1 426     -0.181900
      5 C5         -0.3350    0.6140    5.3400 ca        1 426     -0.104000
      6 C6         -0.3580    0.5310    3.9220 ca        1 426     -0.029000
      7 C10        -1.4280    1.0800    3.1610 ca        1 426     -0.116000
      8 C11        -1.4340    0.9840    1.7920 ca        1 426     -0.113000
      9 C12        -0.3670    0.3350    1.1190 ca        1 426     -0.144600
     10 C13         0.6910   -0.1890    1.8300 ca        1 426     -0.057000
     11 C1          0.7140   -0.1070    3.2480 ca        1 426     -0.040000
     12 C2          1.7880   -0.6470    4.0080 ca        1 426     -0.113000
     13 C3          1.7880   -0.5600    5.3780 ca        1 426     -0.102000
     14 C20        -0.3440    0.2360   -0.3740 c         1 426      0.681700
     15 O23         0.7050    0.4430   -1.0110 o         1 426     -0.585100
     16 N21        -1.5470   -0.1130   -0.9710 n         1 426     -0.467100
     17 C22        -1.8060   -0.2920   -2.3410 ca        1 426      0.101600
     18 C28        -3.0660   -0.8140   -2.7190 ca        1 426     -0.222000
     19 C27        -3.3720   -1.0000   -4.0630 ca        1 426     -0.074000
     20 C26        -2.4610   -0.6770   -5.0600 ca        1 426     -0.186000
     21 C25        -1.2080   -0.1560   -4.6870 ca        1 426      0.156100
     22 O33        -0.3650    0.1150   -5.7440 os        1 426     -0.331900
     23 C34         0.8320    0.8610   -5.4620 c3        1 426      0.140100
     24 C38         1.9380   -0.0410   -4.9060 c3        1 426     -0.095900
     25 C37         3.1620    0.1580   -5.7850 c3        1 426     -0.077400
     26 C36         2.6990    0.8300   -7.0690 c3        1 426     -0.077400
     27 C35         1.3100    1.3970   -6.8180 c3        1 426     -0.095900
     28 C24        -0.8710    0.0370   -3.3430 ca        1 426     -0.233000
     29 H18         0.4940    2.1080    7.6150 hn        1 426      0.396400
     30 H191        0.8760   -1.0090    9.2030 hn        1 426      0.400300
     31 H192        0.6030   -1.8180    7.7710 hn        1 426      0.400300
     32 H5         -1.1720    1.1130    5.8540 ha        1 426      0.142000
     33 H10        -2.2480    1.5870    3.6920 ha        1 426      0.140000
     34 H11        -2.2560    1.4290    1.2110 ha        1 426      0.140000
     35 H13         1.5330   -0.6680    1.3030 ha        1 426      0.157000
     36 H2          2.6190   -1.1330    3.4740 ha        1 426      0.143000
     37 H3          2.6220   -0.9730    5.9670 ha        1 426      0.155000
     38 H21        -2.3080   -0.3230   -0.3620 hn        1 426      0.320500
     39 H28        -3.8150   -1.0800   -1.9580 ha        1 426      0.129000
     40 H27        -4.3560   -1.4090   -4.3400 ha        1 426      0.133000
     41 H26        -2.6950   -0.8230   -6.1230 ha        1 426      0.150000
     42 H34         0.5900    1.7010   -4.7590 h1        1 426      0.057700
     43 H381        1.6000   -1.1080   -4.9310 hc        1 426      0.059450
     44 H382        2.1630    0.2200   -3.8410 hc        1 426      0.059450
     45 H371        3.6580   -0.8200   -6.0020 hc        1 426      0.043200
     46 H372        3.9130    0.8030   -5.2600 hc        1 426      0.043200
     47 H361        2.6640    0.0840   -7.9040 hc        1 426      0.043200
     48 H362        3.4090    1.6380   -7.3740 hc        1 426      0.043200
     49 H351        0.5990    1.0920   -7.6270 hc        1 426      0.059450
     50 H352        1.3340    2.5140   -6.7870 hc        1 426      0.059450
     51 H24         0.1210    0.4300   -3.0740 ha        1 426      0.178000
@<TRIPOS>BOND
     1    1    2 2   
     2    1   29 1   
     3    2    3 1   
     4    2    4 1   
     5    3   30 1   
     6    3   31 1   
     7    4    5 ar  
     8    4   13 ar  
     9    5    6 ar  
    10    5   32 1   
    11    6    7 ar  
    12    6   11 ar  
    13    7    8 ar  
    14    7   33 1   
    15    8    9 ar  
    16    8   34 1   
    17    9   10 ar  
    18    9   14 1   
    19   10   11 ar  
    20   10   35 1   
    21   11   12 ar  
    22   12   13 ar  
    23   12   36 1   
    24   13   37 1   
    25   14   15 2   
    26   14   16 1   
    27   16   17 1   
    28   16   38 1   
    29   17   18 ar  
    30   17   28 ar  
    31   18   19 ar  
    32   18   39 1   
    33   19   20 ar  
    34   19   40 1   
    35   20   21 ar  
    36   20   41 1   
    37   21   22 1   
    38   21   28 ar  
    39   22   23 1   
    40   23   24 1   
    41   23   27 1   
    42   23   42 1   
    43   24   25 1   
    44   24   43 1   
    45   24   44 1   
    46   25   26 1   
    47   25   45 1   
    48   25   46 1   
    49   26   27 1   
    50   26   47 1   
    51   26   48 1   
    52   27   49 1   
    53   27   50 1   
    54   28   51 1   
@<TRIPOS>SUBSTRUCTURE
     1 426         1 TEMP              0 ****  ****    0 ROOT
