@<TRIPOS>MOLECULE
426
   52    55     1     0     0
SMALL
bcc


@<TRIPOS>ATOM
      1 N18         0.7850   -1.4130    0.2470 n2        1 426     -0.676100
      2 C17         1.5210   -0.4240   -0.0300 ce        1 426      0.636800
      3 N19         1.8470    0.7330    0.9300 n4        1 426     -0.892600
      4 C4          2.1930   -0.1940   -1.3290 ca        1 426     -0.220900
      5 C5          1.4400   -0.1190   -2.4830 ca        1 426     -0.023000
      6 C6          2.0820    0.0920   -3.7330 ca        1 426     -0.043000
      7 C10         1.3370    0.1930   -4.9390 ca        1 426     -0.111000
      8 C11         1.9770    0.4000   -6.1380 ca        1 426     -0.090000
      9 C12         3.3890    0.5170   -6.1810 ca        1 426     -0.107600
     10 C13         4.1360    0.4290   -5.0250 ca        1 426     -0.070000
     11 C1          3.4960    0.2080   -3.7770 ca        1 426     -0.020000
     12 C2          4.2440    0.0960   -2.5700 ca        1 426     -0.069000
     13 C3          3.6110   -0.1010   -1.3700 ca        1 426     -0.150000
     14 C20         4.1040    0.7950   -7.4730 c         1 426      0.669700
     15 O23         4.9920    1.6670   -7.5080 o         1 426     -0.572100
     16 N21         3.7090    0.0330   -8.5540 n         1 426     -0.456100
     17 C22         4.2490    0.0640   -9.8580 ca        1 426      0.083600
     18 C28         3.9050   -0.9830  -10.7430 ca        1 426     -0.214000
     19 C27         4.3990   -0.9850  -12.0450 ca        1 426     -0.073000
     20 C26         5.2290    0.0300  -12.5000 ca        1 426     -0.172000
     21 C25         5.5710    1.0740  -11.6190 ca        1 426      0.159100
     22 O33         6.4090    2.0220  -12.1590 os        1 426     -0.325900
     23 C34         6.6420    3.2200  -11.3970 c3        1 426      0.140100
     24 C38         7.6890    2.9960  -10.3020 c3        1 426     -0.095900
     25 C37         8.7660    4.0520  -10.4910 c3        1 426     -0.077900
     26 C36         8.6040    4.6240  -11.8930 c3        1 426     -0.077900
     27 C35         7.2230    4.2320  -12.3930 c3        1 426     -0.095900
     28 C24         5.0910    1.1010  -10.3050 ca        1 426     -0.227000
     29 H18         0.3250   -1.5500    1.1200 hn        1 426      0.463400
     30 H191        2.8620    0.8750    0.9350 hn        1 426      0.457467
     31 H192        1.4040    1.5840    0.5720 hn        1 426      0.457467
     32 H5          0.3430   -0.2250   -2.4610 ha        1 426      0.157000
     33 H10         0.2400    0.1030   -4.8980 ha        1 426      0.152000
     34 H11         1.3920    0.4950   -7.0680 ha        1 426      0.161000
     35 H13         5.2330    0.5420   -5.0620 ha        1 426      0.172000
     36 H2          5.3440    0.1640   -2.6220 ha        1 426      0.164000
     37 H3          4.2020   -0.2310   -0.4510 ha        1 426      0.132000
     38 H21         3.0460   -0.6910   -8.3860 hn        1 426      0.320500
     39 H28         3.2480   -1.8040  -10.4190 ha        1 426      0.130000
     40 H27         4.1240   -1.8080  -12.7230 ha        1 426      0.141000
     41 H26         5.6230    0.0340  -13.5250 ha        1 426      0.157000
     42 H34         5.6690    3.5840  -10.9730 h1        1 426      0.053700
     43 H381        8.1200    1.9670  -10.4010 hc        1 426      0.059700
     44 H382        7.2250    3.0750   -9.2880 hc        1 426      0.059700
     45 H371        8.6510    4.8620   -9.7270 hc        1 426      0.045700
     46 H372        9.7840    3.6090  -10.3560 hc        1 426      0.045700
     47 H361        9.3910    4.2090  -12.5720 hc        1 426      0.045700
     48 H362        8.7230    5.7360  -11.8840 hc        1 426      0.045700
     49 H351        6.5500    5.1230  -12.4520 hc        1 426      0.059700
     50 H352        7.2800    3.7790  -13.4160 hc        1 426      0.059700
     51 H24         5.3840    1.9170   -9.6260 ha        1 426      0.174000
     52 H193        1.5270    0.5630    1.8840 hn        1 426      0.457467
@<TRIPOS>BOND
     1    1    2 2   
     2    1   29 1   
     3    2    3 1   
     4    2    4 1   
     5    3   30 1   
     6    3   31 1   
     7    3   52 1   
     8    4    5 ar  
     9    4   13 ar  
    10    5    6 ar  
    11    5   32 1   
    12    6    7 ar  
    13    6   11 ar  
    14    7    8 ar  
    15    7   33 1   
    16    8    9 ar  
    17    8   34 1   
    18    9   10 ar  
    19    9   14 1   
    20   10   11 ar  
    21   10   35 1   
    22   11   12 ar  
    23   12   13 ar  
    24   12   36 1   
    25   13   37 1   
    26   14   15 2   
    27   14   16 1   
    28   16   17 1   
    29   16   38 1   
    30   17   18 ar  
    31   17   28 ar  
    32   18   19 ar  
    33   18   39 1   
    34   19   20 ar  
    35   19   40 1   
    36   20   21 ar  
    37   20   41 1   
    38   21   22 1   
    39   21   28 ar  
    40   22   23 1   
    41   23   24 1   
    42   23   27 1   
    43   23   42 1   
    44   24   25 1   
    45   24   43 1   
    46   24   44 1   
    47   25   26 1   
    48   25   45 1   
    49   25   46 1   
    50   26   27 1   
    51   26   47 1   
    52   26   48 1   
    53   27   49 1   
    54   27   50 1   
    55   28   51 1   
@<TRIPOS>SUBSTRUCTURE
     1 426         1 TEMP              0 ****  ****    0 ROOT
