@<TRIPOS>MOLECULE
426
   52    55     1     0     0
SMALL
bcc


@<TRIPOS>ATOM
      1 N18         0.7870   -1.4100    0.2470 n2        1 426     -0.676100
      2 C17         1.5320   -0.4260   -0.0270 ce        1 426      0.636800
      3 N19         1.8730    0.7210    0.9380 nz        1 426     -0.892600
      4 C4          2.2010   -0.1960   -1.3280 ca        1 426     -0.220900
      5 C5          1.4440   -0.1060   -2.4780 ca        1 426     -0.023000
      6 C6          2.0830    0.1050   -3.7300 ca        1 426     -0.043000
      7 C10         1.3340    0.2200   -4.9320 ca        1 426     -0.111000
      8 C11         1.9710    0.4270   -6.1330 ca        1 426     -0.090000
      9 C12         3.3840    0.5300   -6.1810 ca        1 426     -0.107600
     10 C13         4.1350    0.4280   -5.0280 ca        1 426     -0.070000
     11 C1          3.4980    0.2070   -3.7790 ca        1 426     -0.020000
     12 C2          4.2490    0.0820   -2.5760 ca        1 426     -0.069000
     13 C3          3.6200   -0.1160   -1.3740 ca        1 426     -0.150000
     14 C20         4.0970    0.8080   -7.4740 c         1 426      0.669700
     15 O23         4.9940    1.6700   -7.5070 o         1 426     -0.573100
     16 N21         3.6890    0.0570   -8.5580 ns        1 426     -0.456100
     17 C22         4.2230    0.0900   -9.8640 ca        1 426      0.083600
     18 C28         3.8610   -0.9460  -10.7550 ca        1 426     -0.214000
     19 C27         4.3490   -0.9450  -12.0590 ca        1 426     -0.073000
     20 C26         5.1900    0.0620  -12.5110 ca        1 426     -0.172000
     21 C25         5.5500    1.0960  -11.6240 ca        1 426      0.159100
     22 O33         6.3970    2.0370  -12.1620 os        1 426     -0.325900
     23 C34         6.6500    3.2250  -11.3920 c3        1 426      0.140100
     24 C38         7.6990    2.9790  -10.3040 c3        1 426     -0.095900
     25 C37         8.7900    4.0210  -10.4910 c3        1 426     -0.077900
     26 C36         8.6300    4.6050  -11.8870 c3        1 426     -0.077900
     27 C35         7.2400    4.2370  -12.3840 c3        1 426     -0.095900
     28 C24         5.0760    1.1190  -10.3070 ca        1 426     -0.227000
     29 H18         0.3300   -1.5470    1.1210 hn        1 426      0.463400
     30 H191        1.5560    0.5480    1.8930 hn        1 426      0.457467
     31 H192        2.8900    0.8540    0.9390 hn        1 426      0.457467
     32 H5          0.3460   -0.2020   -2.4520 ha        1 426      0.157000
     33 H10         0.2360    0.1410   -4.8860 ha        1 426      0.152000
     34 H11         1.3830    0.5320   -7.0600 ha        1 426      0.161000
     35 H13         5.2330    0.5310   -5.0690 ha        1 426      0.172000
     36 H2          5.3500    0.1390   -2.6320 ha        1 426      0.164000
     37 H3          4.2130   -0.2570   -0.4580 ha        1 426      0.132000
     38 H21         3.0180   -0.6610   -8.3920 hn        1 426      0.320500
     39 H28         3.1960   -1.7610  -10.4330 ha        1 426      0.130000
     40 H27         4.0600   -1.7590  -12.7420 ha        1 426      0.141000
     41 H26         5.5800    0.0680  -13.5380 ha        1 426      0.157000
     42 H34         5.6840    3.5990  -10.9600 h1        1 426      0.053700
     43 H381        7.2410    3.0570   -9.2870 hc        1 426      0.059700
     44 H382        8.1150    1.9450  -10.4120 hc        1 426      0.059700
     45 H371        9.8030    3.5630  -10.3640 hc        1 426      0.045700
     46 H372        8.6900    4.8270   -9.7200 hc        1 426      0.045700
     47 H361        8.7650    5.7150  -11.8720 hc        1 426      0.045700
     48 H362        9.4070    4.1830  -12.5740 hc        1 426      0.045700
     49 H351        7.2850    3.7910  -13.4100 hc        1 426      0.059700
     50 H352        6.5800    5.1380  -12.4320 hc        1 426      0.059700
     51 H24         5.3830    1.9270   -9.6250 ha        1 426      0.174000
     52 H193        1.4370    1.5790    0.5880 hn        1 426      0.457467
@<TRIPOS>BOND
     1    1    2 2   
     2    1   29 1   
     3    2    3 1   
     4    2    4 1   
     5    3   30 1   
     6    3   31 1   
     7    3   52 1   
     8    4    5 ar  
     9    4   13 ar  
    10    5    6 ar  
    11    5   32 1   
    12    6    7 ar  
    13    6   11 ar  
    14    7    8 ar  
    15    7   33 1   
    16    8    9 ar  
    17    8   34 1   
    18    9   10 ar  
    19    9   14 1   
    20   10   11 ar  
    21   10   35 1   
    22   11   12 ar  
    23   12   13 ar  
    24   12   36 1   
    25   13   37 1   
    26   14   15 2   
    27   14   16 1   
    28   16   17 1   
    29   16   38 1   
    30   17   18 ar  
    31   17   28 ar  
    32   18   19 ar  
    33   18   39 1   
    34   19   20 ar  
    35   19   40 1   
    36   20   21 ar  
    37   20   41 1   
    38   21   22 1   
    39   21   28 ar  
    40   22   23 1   
    41   23   24 1   
    42   23   27 1   
    43   23   42 1   
    44   24   25 1   
    45   24   43 1   
    46   24   44 1   
    47   25   26 1   
    48   25   45 1   
    49   25   46 1   
    50   26   27 1   
    51   26   47 1   
    52   26   48 1   
    53   27   49 1   
    54   27   50 1   
    55   28   51 1   
@<TRIPOS>SUBSTRUCTURE
     1 426         1 TEMP              0 ****  ****    0 ROOT
