@<TRIPOS>MOLECULE
426
   51    47     1     0     0
SMALL
bcc


@<TRIPOS>ATOM
      1 N18        -2.6360   -0.1190    8.7200 n1        1 426     -0.295000
      2 C17        -2.2600   -1.2600    8.1970 c1        1 426      0.129000
      3 N19        -2.5180   -2.4970    8.9020 n2        1 426     -0.400000
      4 C4         -1.5660   -1.2830    6.8730 c2        1 426     -0.042000
      5 C5         -2.3190   -1.2410    5.7060 c1        1 426     -0.070000
      6 C6         -1.6600   -1.2770    4.4130 c1        1 426     -0.029000
      7 C10        -2.4270   -1.2600    3.2250 c2        1 426     -0.112000
      8 C11        -1.7900   -1.3190    1.9790 c1        1 426     -0.114000
      9 C12        -0.3770   -1.3990    1.9070 c1        1 426     -0.124000
     10 C13         0.3880   -1.4170    3.0880 c1        1 426     -0.058000
     11 C1         -0.2500   -1.3560    4.3410 c1        1 426     -0.042000
     12 C2          0.5150   -1.3980    5.5290 c2        1 426     -0.109000
     13 C3         -0.1430   -1.3620    6.8050 c2        1 426     -0.122000
     14 C20         0.4280   -1.3070    0.6340 c2        1 426      0.354000
     15 O23         1.6280   -1.3820    0.6770 o         1 426     -0.342000
     16 N21        -0.2280   -1.0230   -0.6070 n         1 426     -0.322000
     17 C22         0.5680   -0.8250   -1.8300 c2        1 426      0.108000
     18 C28         1.3210   -1.8490   -2.3130 c2        1 426     -0.188000
     19 C27         2.1590   -1.6450   -3.4250 c1        1 426     -0.074000
     20 C26         2.2160   -0.4120   -4.0230 c1        1 426     -0.228000
     21 C25         1.4510    0.6310   -3.5340 c1        1 426      0.109000
     22 O33         1.6180    1.9600   -4.0730 o         1 426     -0.217000
     23 C34         0.9360    2.0640   -5.2730 c3        1 426      0.031000
     24 C38         0.2690    3.2500   -5.3280 c3        1 426     -0.173500
     25 C37         0.3100    3.7290   -6.9160 c3        1 426     -0.156000
     26 C36         1.5340    3.3760   -7.3910 c3        1 426     -0.156000
     27 C35         1.9780    2.1150   -6.5050 c3        1 426     -0.173500
     28 C24         0.6250    0.4290   -2.4370 c2        1 426     -0.220000
     29 H18        -3.0890   -0.1040    9.5830 DU        1 426      0.140000
     30 H191       -1.9320   -3.2750    8.7600 hn        1 426      0.197500
     31 H192       -3.1110   -2.5310    9.4630 hn        1 426      0.197500
     32 H5         -3.3160   -1.2380    5.7560 ha        1 426      0.155000
     33 H10        -3.4680   -1.2030    3.2730 ha        1 426      0.142000
     34 H11        -2.3520   -1.3080    1.1140 ha        1 426      0.140000
     35 H13         1.3070   -1.4680    3.0430 ha        1 426      0.156000
     36 H2          1.4810   -1.4510    5.4840 ha        1 426      0.140000
     37 H3          0.3620   -1.3950    7.5950 ha        1 426      0.133000
     38 H21        -1.0850   -0.8350   -0.6100 hn        1 426      0.235000
     39 H28         1.2780   -2.7490   -1.8730 ha        1 426      0.173000
     40 H27         2.7280   -2.4140   -3.7880 ha        1 426      0.134000
     41 H26         2.7550   -0.2820   -4.7370 ha        1 426      0.139000
     42 H34         0.3670    1.3770   -5.3730 h1        1 426      0.093000
     43 H381       -0.7410    3.1220   -5.0090 hc        1 426      0.096250
     44 H382        0.7360    3.9450   -4.7400 hc        1 426      0.096250
     45 H371        0.1850    4.7200   -6.9820 hc        1 426      0.083000
     46 H372       -0.3740    3.2780   -7.4120 hc        1 426      0.083000
     47 H361        1.4790    3.1460   -8.2640 hc        1 426      0.083000
     48 H362        2.1710    4.1170   -7.2710 hc        1 426      0.083000
     49 H351        1.9100    1.2420   -7.0680 hc        1 426      0.096250
     50 H352        2.8490    2.2300   -6.1900 hc        1 426      0.096250
     51 H24         0.0950    1.1520   -2.0960 ha        1 426      0.145000
@<TRIPOS>BOND
     1    1    2 1   
     2    2    4 1   
     3    3   30 1   
     4    3   31 1   
     5    4    5 1   
     6    4   13 1   
     7    5   32 1   
     8    6    7 1   
     9    6   11 1   
    10    7    8 1   
    11    7   33 1   
    12    8   34 1   
    13    9   10 1   
    14    9   14 1   
    15   10   35 1   
    16   11   12 1   
    17   12   13 1   
    18   12   36 1   
    19   13   37 1   
    20   14   15 1   
    21   14   16 1   
    22   16   17 1   
    23   16   38 1   
    24   17   18 1   
    25   17   28 1   
    26   18   19 1   
    27   18   39 1   
    28   19   40 1   
    29   20   21 1   
    30   20   41 1   
    31   21   28 1   
    32   22   23 1   
    33   23   24 1   
    34   23   27 1   
    35   23   42 1   
    36   24   25 1   
    37   24   43 1   
    38   24   44 1   
    39   25   26 1   
    40   25   45 1   
    41   25   46 1   
    42   26   27 1   
    43   26   47 1   
    44   26   48 1   
    45   27   49 1   
    46   27   50 1   
    47   28   51 1   
@<TRIPOS>SUBSTRUCTURE
     1 426         1 TEMP              0 ****  ****    0 ROOT
