@<TRIPOS>MOLECULE
428
   24    25     1     0     0
SMALL
bcc


@<TRIPOS>ATOM
      1 CAA        -0.0090   -0.1430   -0.0010 cc        1 428     -0.101300
      2 NAB         1.3940    0.2200   -0.0710 na        1 428      0.190200
      3 NAC        -0.4120   -0.2430    1.2950 nd        1 428     -0.252600
      4 CAD        -0.7120   -0.3300   -1.2400 cc        1 428     -0.021000
      5 CAE         1.8330    0.3380    1.2490 cc        1 428     -0.165100
      6 NAF         2.0730    0.3930   -1.2000 nc        1 428     -0.563800
      7 CAG         0.7060    0.0490    2.0660 cd        1 428      0.047400
      8 CAH        -0.0300   -0.1570   -2.4080 cd        1 428     -0.242300
      9 CAI         1.3730    0.2080   -2.3340 cd        1 428      0.599600
     10 CAJ         0.6910    0.0550    3.5560 c3        1 428      0.010500
     11 OAK         1.9880    0.3630   -3.5510 oh        1 428     -0.600300
     12 CAL         0.4600   -1.3450    4.0950 c3        1 428     -0.091100
     13 CAM         1.9740    0.6340    4.1170 c3        1 428     -0.091100
     14 HAD        -1.7760   -0.6050   -1.2010 ha        1 428      0.172000
     15 HAE         2.8550    0.6060    1.5100 h4        1 428      0.195000
     16 HOAK        2.9210    0.6060   -3.4210 ho        1 428      0.444000
     17 HAH        -0.4850   -0.2780   -3.3990 ha        1 428      0.171000
     18 HAJ        -0.1680    0.7090    3.8910 hc        1 428      0.067700
     19 H1AL        0.4340   -1.3210    5.2110 hc        1 428      0.038700
     20 H2AL        1.2800   -2.0310    3.7730 hc        1 428      0.038700
     21 H3AL       -0.5110   -1.7510    3.7220 hc        1 428      0.038700
     22 H1AM        1.9050    0.6940    5.2300 hc        1 428      0.038700
     23 H2AM        2.1520    1.6600    3.7150 hc        1 428      0.038700
     24 H3AM        2.8480   -0.0090    3.8530 hc        1 428      0.038700
@<TRIPOS>BOND
     1    1    2 1   
     2    1    3 2   
     3    1    4 1   
     4    2    5 1   
     5    2    6 1   
     6    3    7 1   
     7    4    8 2   
     8    4   14 1   
     9    5    7 2   
    10    5   15 1   
    11    6    9 2   
    12    7   10 1   
    13    8    9 1   
    14    8   17 1   
    15    9   11 1   
    16   10   12 1   
    17   10   13 1   
    18   10   18 1   
    19   11   16 1   
    20   12   19 1   
    21   12   20 1   
    22   12   21 1   
    23   13   22 1   
    24   13   23 1   
    25   13   24 1   
@<TRIPOS>SUBSTRUCTURE
     1 428         1 TEMP              0 ****  ****    0 ROOT
