@<TRIPOS>MOLECULE
428
   24    25     1     0     0
SMALL
bcc


@<TRIPOS>ATOM
      1 CAA        -0.0120   -0.0670   -0.0010 cc        1 428     -0.101300
      2 NAB         1.4140    0.1920   -0.0700 na        1 428      0.190200
      3 NAC        -0.4210   -0.1420    1.2950 nd        1 428     -0.252600
      4 CAD        -0.7270   -0.1950   -1.2400 cc        1 428     -0.021000
      5 CAE         1.8600    0.2720    1.2510 cc        1 428     -0.165100
      6 NAF         2.1030    0.3190   -1.1980 nc        1 428     -0.563800
      7 CAG         0.7160    0.0630    2.0670 cd        1 428      0.047400
      8 CAH        -0.0340   -0.0680   -2.4080 cd        1 428     -0.242300
      9 CAI         1.3920    0.1920   -2.3330 cd        1 428      0.599600
     10 CAJ         0.7010    0.0630    3.5570 c3        1 428      0.009500
     11 OAK         2.0170    0.3070   -3.5490 oh        1 428     -0.600300
     12 CAL         0.3690   -1.3190    4.0890 c3        1 428     -0.091100
     13 CAM         2.0230    0.5440    4.1200 c3        1 428     -0.091100
     14 HAD        -1.8090   -0.3920   -1.2020 ha        1 428      0.172000
     15 HAE         2.8990    0.4620    1.5120 h4        1 428      0.195000
     16 HOAK        2.9650    0.4790   -3.4190 ho        1 428      0.444000
     17 HAH        -0.4970   -0.1500   -3.3990 ha        1 428      0.171000
     18 HAJ        -0.1080    0.7760    3.8950 hc        1 428      0.067700
     19 H1AL        0.3440   -1.2980    5.2050 hc        1 428      0.038700
     20 H2AL        1.1360   -2.0610    3.7640 hc        1 428      0.038700
     21 H3AL       -0.6290   -1.6520    3.7150 hc        1 428      0.038700
     22 H1AM        1.9590    0.6040    5.2330 hc        1 428      0.038700
     23 H2AM        2.2750    1.5560    3.7220 hc        1 428      0.038700
     24 H3AM        2.8480   -0.1600    3.8520 hc        1 428      0.038700
@<TRIPOS>BOND
     1    1    2 1   
     2    1    3 2   
     3    1    4 1   
     4    2    5 1   
     5    2    6 1   
     6    3    7 1   
     7    4    8 2   
     8    4   14 1   
     9    5    7 2   
    10    5   15 1   
    11    6    9 2   
    12    7   10 1   
    13    8    9 1   
    14    8   17 1   
    15    9   11 1   
    16   10   12 1   
    17   10   13 1   
    18   10   18 1   
    19   11   16 1   
    20   12   19 1   
    21   12   20 1   
    22   12   21 1   
    23   13   22 1   
    24   13   23 1   
    25   13   24 1   
@<TRIPOS>SUBSTRUCTURE
     1 428         1 TEMP              0 ****  ****    0 ROOT
