@<TRIPOS>MOLECULE
428
   24    25     1     0     0
SMALL
bcc


@<TRIPOS>ATOM
      1 CAA         0.3970   -0.9370    0.0170 cc        1 428     -0.101300
      2 NAB         0.5290    0.5000   -0.1370 na        1 428      0.190200
      3 NAC        -0.9150   -1.2990    0.0050 nd        1 428     -0.252600
      4 CAD         1.6020   -1.7070    0.1480 cc        1 428     -0.021000
      5 CAE        -0.7700    1.0020   -0.2430 cc        1 428     -0.165100
      6 NAF         1.6860    1.1520   -0.1650 nc        1 428     -0.563800
      7 CAG        -1.6350   -0.1220   -0.1530 cd        1 428      0.047400
      8 CAH         2.7990   -1.0530    0.1220 cd        1 428     -0.242300
      9 CAI         2.7880    0.3900   -0.0380 cd        1 428      0.599600
     10 CAJ        -3.1230   -0.0780   -0.2200 c3        1 428      0.010500
     11 OAK         4.0290    0.9730   -0.0550 oh        1 428     -0.600300
     12 CAL        -3.7310   -0.4860    1.1090 c3        1 428     -0.091100
     13 CAM        -3.6150    1.2960   -0.6290 c3        1 428     -0.091100
     14 HAD         1.5160   -2.7970    0.2660 ha        1 428      0.172000
     15 HAE        -0.9850    2.0610   -0.3700 h4        1 428      0.195000
     16 HOAK        3.9420    1.9350   -0.1650 ho        1 428      0.444000
     17 HAH         3.7680   -1.5590    0.2150 ha        1 428      0.171000
     18 HAJ        -3.4560   -0.8210   -1.0040 hc        1 428      0.067700
     19 H1AL       -3.4140    0.2150    1.9190 hc        1 428      0.038700
     20 H2AL       -4.8450   -0.4640    1.0370 hc        1 428      0.038700
     21 H3AL       -3.4090   -1.5180    1.3850 hc        1 428      0.038700
     22 H1AM       -4.7260    1.2790   -0.7430 hc        1 428      0.038700
     23 H2AM       -3.3510    2.0580    0.1430 hc        1 428      0.038700
     24 H3AM       -3.1620    1.6030   -1.6020 hc        1 428      0.038700
@<TRIPOS>BOND
     1    1    2 1   
     2    1    3 2   
     3    1    4 1   
     4    2    5 1   
     5    2    6 1   
     6    3    7 1   
     7    4    8 2   
     8    4   14 1   
     9    5    7 2   
    10    5   15 1   
    11    6    9 2   
    12    7   10 1   
    13    8    9 1   
    14    8   17 1   
    15    9   11 1   
    16   10   12 1   
    17   10   13 1   
    18   10   18 1   
    19   11   16 1   
    20   12   19 1   
    21   12   20 1   
    22   12   21 1   
    23   13   22 1   
    24   13   23 1   
    25   13   24 1   
@<TRIPOS>SUBSTRUCTURE
     1 428         1 TEMP              0 ****  ****    0 ROOT
