@<TRIPOS>MOLECULE
428
   24    17     1     0     0
SMALL
bcc


@<TRIPOS>ATOM
      1 CAA        -0.6830   -0.0560   -1.2230 c1        1 428      0.011500
      2 NAB         0.6700   -0.0560   -1.2230 n1        1 428     -0.080500
      3 NAC        -1.1080   -0.0560    0.0850 n1        1 428     -0.109000
      4 CAD        -1.3770   -0.0560   -2.4270 c1        1 428     -0.099500
      5 CAE         1.0890   -0.0560    0.0670 c1        1 428     -0.137000
      6 NAF         1.3660   -0.0560   -2.4270 n1        1 428     -0.080500
      7 CAG        -0.0230   -0.0560    0.8740 c1        1 428     -0.089000
      8 CAH        -0.6940   -0.0560   -3.6070 c1        1 428     -0.099500
      9 CAI         0.6880   -0.0560   -3.6040 c1        1 428      0.011500
     10 CAJ        -0.5520   -0.0050    2.2910 c2        1 428     -0.037000
     11 OAK         1.7650   -0.2030   -4.4980 o         1 428     -0.228000
     12 CAL        -0.1070    1.2820    2.9490 c3        1 428     -0.208000
     13 CAM        -0.0140   -1.1840    3.0720 c3        1 428     -0.208000
     14 HAD        -2.3530   -0.0560   -2.4280 ha        1 428      0.171500
     15 HAE         2.0170   -0.0560    0.3690 DU        1 428      0.194000
     16 HOAK        1.7520    0.4590   -5.0880 ho        1 428      0.243000
     17 HAH        -1.1800   -0.0560   -4.4530 ha        1 428      0.171500
     18 HAJ        -1.5270   -0.0430    2.2760 ha        1 428      0.113000
     19 H1AL        0.8660    1.2900    3.0240 hc        1 428      0.077000
     20 H2AL       -0.3980    2.0410    2.4090 hc        1 428      0.077000
     21 H3AL       -0.5030    1.3460    3.8390 hc        1 428      0.077000
     22 H1AM        0.9560   -1.1040    3.1540 hc        1 428      0.077000
     23 H2AM       -0.4150   -1.1950    3.9620 hc        1 428      0.077000
     24 H3AM       -0.2340   -2.0120    2.6050 hc        1 428      0.077000
@<TRIPOS>BOND
     1    1    4 1   
     2    2    6 1   
     3    3    7 1   
     4    4   14 1   
     5    5    7 1   
     6    8    9 1   
     7    8   17 1   
     8   10   12 1   
     9   10   13 1   
    10   10   18 1   
    11   11   16 1   
    12   12   19 1   
    13   12   20 1   
    14   12   21 1   
    15   13   22 1   
    16   13   23 1   
    17   13   24 1   
@<TRIPOS>SUBSTRUCTURE
     1 428         1 TEMP              0 ****  ****    0 ROOT
