@<TRIPOS>MOLECULE
429
   68    69     1     0     0
SMALL
bcc


@<TRIPOS>ATOM
      1 C1          0.0320    1.3310    0.6190 ca        1 429      0.170100
      2 C2          0.7130    0.1150    0.3840 ca        1 429      0.009100
      3 C3          0.6380   -0.9280    1.3090 ca        1 429     -0.101000
      4 C4         -0.1240   -0.7700    2.4650 ca        1 429     -0.151000
      5 C5         -0.8200    0.4220    2.6960 ca        1 429     -0.086300
      6 C6         -0.7480    1.4720    1.7780 ca        1 429     -0.168000
      7 O5          1.3290   -0.0470   -0.8500 os        1 429     -0.312900
      8 C9         -1.1470    1.6760    4.8320 c3        1 429      0.054700
      9 N1          0.0030    1.3590    5.6260 n         1 429     -0.573900
     10 C10         0.1630    0.1900    6.3650 c         1 429      0.679100
     11 C11        -2.3340    2.1800    5.6840 c         1 429      0.513100
     12 N2         -2.9190    1.2060    6.6650 n4        1 429     -0.667800
     13 C12        -4.3510    1.4490    7.0080 c3        1 429      0.101800
     14 C13        -5.3180    0.9800    5.9260 c3        1 429     -0.094400
     15 C14        -7.7550    0.8760    5.3540 c3        1 429      0.138400
     16 C15        -6.7270    1.2510    6.4060 c3        1 429     -0.126400
     17 O1         -9.0560    1.2790    5.7940 os        1 429     -0.329900
     18 O4         -0.8360   -0.5050    6.6560 o         1 429     -0.658100
     19 C23         1.5450   -0.1560    6.8440 c3        1 429     -0.177100
     20 C8          2.7440   -0.2070   -0.8090 c3        1 429      0.078400
     21 O8         -2.8320    3.2910    5.6010 o         1 429     -0.402100
     22 C7         -1.6780    0.5620    3.9050 c3        1 429     -0.062100
     23 C24         3.4210    1.1360   -0.7900 c         1 429      0.608100
     24 O6          2.9070    2.2580   -0.7440 o         1 429     -0.554000
     25 O7          4.7760    1.0630   -0.8330 oh        1 429     -0.592100
     26 C32        -9.6890    0.3740    6.6380 ca        1 429      0.159100
     27 C33       -10.1820   -0.8310    6.1220 ca        1 429     -0.197000
     28 C34       -10.9400   -1.6670    6.9400 ca        1 429     -0.049000
     29 C35       -11.2010   -1.3210    8.2610 ca        1 429     -0.224000
     30 C36       -10.6970   -0.1150    8.7760 ca        1 429      0.188100
     31 C37        -9.9260    0.7480    7.9720 ca        1 429     -0.166600
     32 C38        -9.3860    2.0070    8.5150 c         1 429      0.685700
     33 O11        -8.1980    2.3230    8.6480 o         1 429     -0.581000
     34 O12       -10.3440    2.8950    8.9010 os        1 429     -0.402900
     35 C39        -9.8890    4.1280    9.4660 c3        1 429      0.124700
     36 O13       -10.8920    0.2630   10.0800 oh        1 429     -0.482100
     37 O2          0.0590    2.3860   -0.2430 oh        1 429     -0.478100
     38 H3          1.1640   -1.8740    1.1110 ha        1 429      0.154000
     39 H4         -0.1920   -1.6010    3.1840 ha        1 429      0.141000
     40 H6         -1.3030    2.4090    1.9280 ha        1 429      0.152000
     41 H9         -0.8750    2.5710    4.1800 h1        1 429      0.133700
     42 HN1         5.1550    1.9600   -0.8560 ho        1 429      0.459000
     43 HN2        -2.3500    1.2470    7.5220 hn        1 429      0.475300
     44 H121       -4.5650    0.8990    7.9700 hx        1 429      0.118200
     45 H122       -4.4880    2.5560    7.1880 hx        1 429      0.118200
     46 H131       -5.1880   -0.1160    5.7250 hc        1 429      0.058200
     47 H132       -5.1270    1.5340    4.9690 hc        1 429      0.058200
     48 H141       -7.6090    1.4680    4.4100 h1        1 429      0.058700
     49 H142       -7.7310   -0.2210    5.1270 h1        1 429      0.058700
     50 H151       -6.8530    2.3380    6.6620 hc        1 429      0.086200
     51 H152       -6.9380    0.6810    7.3510 hc        1 429      0.086200
     52 H231        2.2090   -0.3800    5.9720 hc        1 429      0.091033
     53 H232        1.4850   -1.0630    7.4960 hc        1 429      0.091033
     54 H233        1.9870    0.6860    7.4320 hc        1 429      0.091033
     55 H81         2.9890   -0.7370   -1.7720 h1        1 429      0.102700
     56 H82         3.0750   -0.8170    0.0700 h1        1 429      0.102700
     57 H71        -1.7330   -0.4160    4.4550 hc        1 429      0.076200
     58 H72        -2.7180    0.8410    3.5810 hc        1 429      0.076200
     59 H33        -9.9890   -1.0940    5.0720 ha        1 429      0.152000
     60 H34       -11.3430   -2.6090    6.5330 ha        1 429      0.149000
     61 H35       -11.8040   -1.9800    8.9020 ha        1 429      0.151000
     62 H391       -9.2810    4.6880    8.7160 h1        1 429      0.054367
     63 H392       -9.2830    3.9260   10.3810 h1        1 429      0.054367
     64 H393      -10.8380    4.6660    9.7110 h1        1 429      0.054367
     65 H13       -11.5140   -0.3600   10.4880 ho        1 429      0.435000
     66 HO2         0.7640    2.2330   -0.9020 ho        1 429      0.467000
     67 H12         0.8320    1.8600    5.3850 hn        1 429      0.343500
     68 H22        -2.8010    0.2520    6.2810 hn        1 429      0.475300
@<TRIPOS>BOND
     1    1    2 ar  
     2    1    6 ar  
     3    1   37 1   
     4    2    3 ar  
     5    2    7 1   
     6    3    4 ar  
     7    3   38 1   
     8    4    5 ar  
     9    4   39 1   
    10    5    6 ar  
    11    5   22 1   
    12    6   40 1   
    13    7   20 1   
    14    8    9 1   
    15    8   11 1   
    16    8   22 1   
    17    8   41 1   
    18    9   10 1   
    19    9   67 1   
    20   10   18 2   
    21   10   19 1   
    22   11   12 1   
    23   11   21 2   
    24   12   13 1   
    25   12   43 1   
    26   12   68 1   
    27   13   14 1   
    28   13   44 1   
    29   13   45 1   
    30   14   16 1   
    31   14   46 1   
    32   14   47 1   
    33   15   16 1   
    34   15   17 1   
    35   15   48 1   
    36   15   49 1   
    37   16   50 1   
    38   16   51 1   
    39   17   26 1   
    40   19   52 1   
    41   19   53 1   
    42   19   54 1   
    43   20   23 1   
    44   20   55 1   
    45   20   56 1   
    46   22   57 1   
    47   22   58 1   
    48   23   24 2   
    49   23   25 1   
    50   25   42 1   
    51   26   27 ar  
    52   26   31 ar  
    53   27   28 ar  
    54   27   59 1   
    55   28   29 ar  
    56   28   60 1   
    57   29   30 ar  
    58   29   61 1   
    59   30   31 ar  
    60   30   36 1   
    61   31   32 1   
    62   32   33 2   
    63   32   34 1   
    64   34   35 1   
    65   35   62 1   
    66   35   63 1   
    67   35   64 1   
    68   36   65 1   
    69   37   66 1   
@<TRIPOS>SUBSTRUCTURE
     1 429         1 TEMP              0 ****  ****    0 ROOT
