@<TRIPOS>MOLECULE
429
   68    69     1     0     0
SMALL
bcc


@<TRIPOS>ATOM
      1 C1         -0.0740    1.3640    0.5090 ca        1 429      0.170100
      2 C2          0.6180    0.1560    0.2670 ca        1 429      0.009100
      3 C3          0.5760   -0.8830    1.1990 ca        1 429     -0.102000
      4 C4         -0.1650   -0.7300    2.3690 ca        1 429     -0.151000
      5 C5         -0.8720    0.4540    2.6080 ca        1 429     -0.086300
      6 C6         -0.8330    1.5000    1.6840 ca        1 429     -0.168000
      7 O5          1.2120   -0.0040   -0.9780 os        1 429     -0.312900
      8 C9         -1.1750    1.7140    4.7440 c3        1 429      0.054700
      9 N1         -0.0020    1.4200    5.5130 ns        1 429     -0.573900
     10 C10         0.1930    0.2560    6.2510 c         1 429      0.679100
     11 C11        -2.3510    2.2030    5.6190 c         1 429      0.513100
     12 N2         -2.8940    1.2260    6.6210 ny        1 429     -0.667800
     13 C12        -4.3180    1.4520    7.0070 c3        1 429      0.101800
     14 C13        -5.3120    0.9680    5.9570 c3        1 429     -0.094400
     15 C14        -7.7640    0.8300    5.4620 c3        1 429      0.138400
     16 C15        -6.7080    1.2190    6.4810 c3        1 429     -0.126400
     17 O1         -9.0560    1.2140    5.9440 os        1 429     -0.329900
     18 O4         -0.7870   -0.4530    6.5680 o         1 429     -0.658100
     19 C23         1.5920   -0.0650    6.7000 c3        1 429     -0.177100
     20 C8          2.6290   -0.1450   -0.9650 c3        1 429      0.078400
     21 O8         -2.8720    3.3030    5.5390 o         1 429     -0.402100
     22 C7         -1.7080    0.5890    3.8330 c3        1 429     -0.062100
     23 C24         3.2880    1.2080   -0.9650 c         1 429      0.608100
     24 O6          2.7600    2.3220   -0.9150 o         1 429     -0.554000
     25 O7          4.6420    1.1530   -1.0350 oh        1 429     -0.592100
     26 C32        -9.6480    0.3000    6.8070 ca        1 429      0.159100
     27 C33       -10.1400   -0.9110    6.3060 ca        1 429     -0.197000
     28 C34       -10.8600   -1.7590    7.1470 ca        1 429     -0.049000
     29 C35       -11.0840   -1.4170    8.4760 ca        1 429     -0.224000
     30 C36       -10.5810   -0.2040    8.9760 ca        1 429      0.188100
     31 C37        -9.8480    0.6710    8.1480 ca        1 429     -0.166600
     32 C38        -9.3100    1.9370    8.6750 c         1 429      0.685700
     33 O11        -8.1230    2.2700    8.7700 o         1 429     -0.581000
     34 O12       -10.2680    2.8120    9.0910 os        1 429     -0.402900
     35 C39        -9.8130    4.0500    9.6420 c3        1 429      0.124700
     36 O13       -10.7390    0.1710   10.2850 oh        1 429     -0.482100
     37 O2         -0.0800    2.4150   -0.3570 oh        1 429     -0.478100
     38 H3          1.1110   -1.8230    0.9950 ha        1 429      0.154000
     39 H4         -0.2070   -1.5580    3.0930 ha        1 429      0.141000
     40 H6         -1.3990    2.4300    1.8400 ha        1 429      0.152000
     41 H9         -0.9320    2.6110    4.0820 h1        1 429      0.133700
     42 HN1         5.0090    2.0550   -1.0700 ho        1 429      0.459000
     43 HN2        -2.3000    1.2780    7.4600 hn        1 429      0.475300
     44 H121       -4.4950    0.9020    7.9770 hx        1 429      0.118200
     45 H122       -4.4630    2.5580    7.1880 hx        1 429      0.118200
     46 H131       -5.1600    1.5240    4.9940 hc        1 429      0.058700
     47 H132       -5.1720   -0.1260    5.7530 hc        1 429      0.058700
     48 H141       -7.6560    1.4240    4.5150 h1        1 429      0.058700
     49 H142       -7.7310   -0.2660    5.2340 h1        1 429      0.058700
     50 H151       -6.8410    2.3050    6.7420 hc        1 429      0.086200
     51 H152       -6.8810    0.6460    7.4320 hc        1 429      0.086200
     52 H231        2.0340    0.7860    7.2740 hc        1 429      0.091033
     53 H232        2.2390   -0.2820    5.8140 hc        1 429      0.091033
     54 H233        1.5610   -0.9710    7.3560 hc        1 429      0.091033
     55 H81         2.9860   -0.7460   -0.0890 h1        1 429      0.103200
     56 H82         2.8610   -0.6750   -1.9300 h1        1 429      0.103200
     57 H71        -2.7590    0.8500    3.5290 hc        1 429      0.076200
     58 H72        -1.7380   -0.3870    4.3900 hc        1 429      0.076200
     59 H33        -9.9770   -1.1720    5.2510 ha        1 429      0.152000
     60 H34       -11.2620   -2.7060    6.7530 ha        1 429      0.149000
     61 H35       -11.6570   -2.0850    9.1360 ha        1 429      0.151000
     62 H391      -10.7610    4.5750    9.9170 h1        1 429      0.054367
     63 H392       -9.2370    4.6190    8.8730 h1        1 429      0.054367
     64 H393       -9.1750    3.8570   10.5370 h1        1 429      0.054367
     65 H13       -11.3390   -0.4610   10.7120 ho        1 429      0.435000
     66 HO2         0.6140    2.2680   -1.0300 ho        1 429      0.467000
     67 H12         0.8130    1.9330    5.2500 hn        1 429      0.343500
     68 H22        -2.7760    0.2720    6.2370 hn        1 429      0.475300
@<TRIPOS>BOND
     1    1    2 ar  
     2    1    6 ar  
     3    1   37 1   
     4    2    3 ar  
     5    2    7 1   
     6    3    4 ar  
     7    3   38 1   
     8    4    5 ar  
     9    4   39 1   
    10    5    6 ar  
    11    5   22 1   
    12    6   40 1   
    13    7   20 1   
    14    8    9 1   
    15    8   11 1   
    16    8   22 1   
    17    8   41 1   
    18    9   10 1   
    19    9   67 1   
    20   10   18 2   
    21   10   19 1   
    22   11   12 1   
    23   11   21 2   
    24   12   13 1   
    25   12   43 1   
    26   12   68 1   
    27   13   14 1   
    28   13   44 1   
    29   13   45 1   
    30   14   16 1   
    31   14   46 1   
    32   14   47 1   
    33   15   16 1   
    34   15   17 1   
    35   15   48 1   
    36   15   49 1   
    37   16   50 1   
    38   16   51 1   
    39   17   26 1   
    40   19   52 1   
    41   19   53 1   
    42   19   54 1   
    43   20   23 1   
    44   20   55 1   
    45   20   56 1   
    46   22   57 1   
    47   22   58 1   
    48   23   24 2   
    49   23   25 1   
    50   25   42 1   
    51   26   27 ar  
    52   26   31 ar  
    53   27   28 ar  
    54   27   59 1   
    55   28   29 ar  
    56   28   60 1   
    57   29   30 ar  
    58   29   61 1   
    59   30   31 ar  
    60   30   36 1   
    61   31   32 1   
    62   32   33 2   
    63   32   34 1   
    64   34   35 1   
    65   35   62 1   
    66   35   63 1   
    67   35   64 1   
    68   36   65 1   
    69   37   66 1   
@<TRIPOS>SUBSTRUCTURE
     1 429         1 TEMP              0 ****  ****    0 ROOT
