@<TRIPOS>MOLECULE
429
   66    62     1     0     0
SMALL
bcc


@<TRIPOS>ATOM
      1 C1          6.1160   -3.0600   -3.3270 c1        1 429      0.136500
      2 C2          5.6760   -2.5230   -4.5360 c1        1 429      0.018000
      3 C3          4.3540   -2.1410   -4.6850 c1        1 429     -0.131000
      4 C4          3.4550   -2.2930   -3.6180 c1        1 429     -0.169000
      5 C5          3.8880   -2.8220   -2.4250 c1        1 429     -0.088000
      6 C6          5.2270   -3.2090   -2.2730 c1        1 429     -0.215000
      7 O5          6.6120   -2.3340   -5.6300 os        1 429     -0.238000
      8 C9          2.5760   -1.5270   -0.6920 c3        1 429      0.014000
      9 N1          3.7000   -1.0180    0.0430 n         1 429     -0.356000
     10 C10         4.1050   -1.6550    1.3040 c2        1 429      0.314000
     11 C11         1.3820   -1.5940    0.2030 c2        1 429      0.296000
     12 N2          0.3270   -0.5610    0.1050 n         1 429     -0.367000
     13 C12        -0.8330   -0.6240    0.9810 c3        1 429     -0.024000
     14 C13        -1.7300    0.6710    0.7740 c3        1 429     -0.188000
     15 C14        -3.7120    1.8750    1.6070 c3        1 429     -0.021000
     16 C15        -2.8240    0.7070    1.8440 c3        1 429     -0.162000
     17 O1         -4.9920    1.6160    2.1570 os        1 429     -0.204000
     18 O4          3.3540   -2.4720    1.8540 o         1 429     -0.418000
     19 C23         5.4630   -1.2720    1.9730 c3        1 429     -0.265000
     20 C8          7.0370   -1.0120   -5.7870 c3        1 429     -0.094000
     21 O8          1.3040   -2.4610    1.0450 o         1 429     -0.398000
     22 C7          2.9060   -2.9430   -1.2300 c3        1 429     -0.135000
     23 C24         8.1010   -0.9360   -6.9330 c2        1 429      0.313000
     24 O6          9.3280   -0.7730   -6.6460 o         1 429     -0.574000
     25 O7          7.7220   -0.8880   -8.1470 o         1 429     -0.574000
     26 C32        -5.9540    2.6400    1.8870 c2        1 429      0.168000
     27 C33        -5.7460    3.5240    0.8360 c2        1 429     -0.247000
     28 C34        -6.6210    4.5980    0.6420 c1        1 429     -0.036000
     29 C35        -7.6970    4.7810    1.5000 c1        1 429     -0.215000
     30 C36        -7.9090    3.8910    2.5590 c1        1 429      0.136500
     31 C37        -7.0420    2.8250    2.7530 c1        1 429     -0.159000
     32 C38        -7.3060    1.8290    3.8640 c2        1 429      0.381000
     33 O11        -7.7940    0.7710    3.6110 o         1 429     -0.341000
     34 O12        -6.9180    2.1310    5.1890 os        1 429     -0.263000
     35 C39        -7.5140    1.2820    6.1830 c3        1 429     -0.064000
     36 O13        -8.9690    4.1070    3.4580 oh        1 429     -0.260000
     37 O2          7.4190   -3.5940   -3.2270 oh        1 429     -0.260000
     38 H3          4.0480   -1.7750   -5.5260 ha        1 429      0.132000
     39 H4          2.5200   -2.0230   -3.7240 ha        1 429      0.118000
     40 H6          5.5270   -3.6240   -1.4330 ha        1 429      0.144000
     41 H9          2.3790   -0.9190   -1.4590 h1        1 429      0.124000
     42 HN1         4.1590   -0.3000   -0.2700 hn        1 429      0.230000
     43 HN2         0.3680    0.0730   -0.5550 hn        1 429      0.260000
     44 H121       -1.3530   -1.4130    0.7690 h1        1 429      0.094500
     45 H122       -0.5330   -0.6700    1.9190 h1        1 429      0.094500
     46 H131       -1.1650    1.4810    0.8520 hc        1 429      0.091000
     47 H132       -2.1460    0.6460   -0.1200 hc        1 429      0.091000
     48 H141       -3.3360    2.6500    2.0230 h1        1 429      0.085000
     49 H142       -3.7950    2.0290    0.6490 h1        1 429      0.085000
     50 H151       -3.3560   -0.1280    1.8000 hc        1 429      0.099000
     51 H152       -2.4080    0.7870    2.7350 hc        1 429      0.099000
     52 H231        5.3500   -0.4480    2.4970 hc        1 429      0.129667
     53 H232        5.7510   -1.9970    2.5640 hc        1 429      0.129667
     54 H233        6.1410   -1.1280    1.2800 hc        1 429      0.129667
     55 H81         7.4340   -0.6980   -4.9540 h1        1 429      0.079000
     56 H82         6.2870   -0.4610   -6.0110 h1        1 429      0.079000
     57 H71         2.0660   -3.3880   -1.5330 hc        1 429      0.102000
     58 H72         3.3270   -3.4850   -0.5080 hc        1 429      0.102000
     59 H33        -4.9890    3.3970    0.2320 ha        1 429      0.150000
     60 H34        -6.4750    5.2150   -0.0910 ha        1 429      0.137000
     61 H35        -8.2980    5.5200    1.3660 ha        1 429      0.144000
     62 H391       -7.1390    0.3520    6.0990 h1        1 429      0.086667
     63 H392       -7.3120    1.6400    7.0880 h1        1 429      0.086667
     64 H393       -8.4980    1.2550    6.0490 h1        1 429      0.086667
     65 H13        -8.9440    4.9670    3.7550 ho        1 429      0.250500
     66 HO2         7.9010   -3.0880   -2.7080 ho        1 429      0.250500
@<TRIPOS>BOND
     1    1    6 1   
     2    1   37 1   
     3    2    3 1   
     4    2    7 1   
     5    3   38 1   
     6    4    5 1   
     7    4   39 1   
     8    5   22 1   
     9    6   40 1   
    10    7   20 1   
    11    8    9 1   
    12    8   11 1   
    13    8   22 1   
    14    8   41 1   
    15    9   10 1   
    16    9   42 1   
    17   10   18 1   
    18   10   19 1   
    19   11   12 1   
    20   11   21 1   
    21   12   13 1   
    22   12   43 1   
    23   13   14 1   
    24   13   44 1   
    25   13   45 1   
    26   14   16 1   
    27   14   46 1   
    28   14   47 1   
    29   15   16 1   
    30   15   17 1   
    31   15   48 1   
    32   15   49 1   
    33   16   50 1   
    34   16   51 1   
    35   17   26 1   
    36   19   52 1   
    37   19   53 1   
    38   19   54 1   
    39   20   23 1   
    40   20   55 1   
    41   20   56 1   
    42   22   57 1   
    43   22   58 1   
    44   23   24 1   
    45   23   25 1   
    46   26   27 1   
    47   26   31 1   
    48   27   28 1   
    49   27   59 1   
    50   28   60 1   
    51   29   30 1   
    52   29   61 1   
    53   30   36 1   
    54   31   32 1   
    55   32   33 1   
    56   32   34 1   
    57   34   35 1   
    58   35   62 1   
    59   35   63 1   
    60   35   64 1   
    61   36   65 1   
    62   37   66 1   
@<TRIPOS>SUBSTRUCTURE
     1 429         1 TEMP              0 ****  ****    0 ROOT
