@<TRIPOS>MOLECULE
429
   68    69     1     0     0
SMALL
bcc


@<TRIPOS>ATOM
      1 C1          0.0480    1.3620    0.5930 ca        1 429      0.170100
      2 C2          0.7350    0.1490    0.3590 ca        1 429      0.009100
      3 C3          0.6560   -0.8980    1.2800 ca        1 429     -0.102000
      4 C4         -0.1140   -0.7470    2.4310 ca        1 429     -0.151000
      5 C5         -0.8160    0.4420    2.6610 ca        1 429     -0.086300
      6 C6         -0.7410    1.4950    1.7470 ca        1 429     -0.168000
      7 O5          1.3610   -0.0060   -0.8720 os        1 429     -0.312900
      8 C9         -1.1640    1.6870    4.7980 c3        1 429      0.054700
      9 N1         -0.0150    1.3740    5.5950 n         1 429     -0.573900
     10 C10         0.1510    0.2010    6.3260 c         1 429      0.679100
     11 C11        -2.3580    2.1790    5.6470 c         1 429      0.513100
     12 N2         -2.9330    1.2000    6.6290 n4        1 429     -0.667800
     13 C12        -4.3600    1.4400    6.9900 c3        1 429      0.101800
     14 C13        -5.3410    0.9800    5.9180 c3        1 429     -0.094400
     15 C14        -7.7850    0.8750    5.3780 c3        1 429      0.138400
     16 C15        -6.7430    1.2400    6.4200 c3        1 429     -0.126400
     17 O1         -9.0810    1.2660    5.8430 os        1 429     -0.329900
     18 O4         -0.8440   -0.5020    6.6110 o         1 429     -0.658100
     19 C23         1.5350   -0.1380    6.8060 c3        1 429     -0.178100
     20 C8          2.7750   -0.1610   -0.8200 c3        1 429      0.078400
     21 O8         -2.8690    3.2830    5.5610 o         1 429     -0.402100
     22 C7         -1.6830    0.5750    3.8640 c3        1 429     -0.062100
     23 C24         3.4480    1.1850   -0.7910 c         1 429      0.608100
     24 O6          2.9290    2.3040   -0.7450 o         1 429     -0.554000
     25 O7          4.8020    1.1170   -0.8240 oh        1 429     -0.592100
     26 C32        -9.6970    0.3470    6.6830 ca        1 429      0.159100
     27 C33       -10.1930   -0.8520    6.1580 ca        1 429     -0.197000
     28 C34       -10.9360   -1.7040    6.9750 ca        1 429     -0.049000
     29 C35       -11.1780   -1.3770    8.3050 ca        1 429     -0.224000
     30 C36       -10.6720   -0.1760    8.8290 ca        1 429      0.188100
     31 C37        -9.9170    0.7020    8.0260 ca        1 429     -0.166600
     32 C38        -9.3750    1.9560    8.5780 c         1 429      0.685700
     33 O11        -8.1860    2.2750    8.6990 o         1 429     -0.581000
     34 O12       -10.3300    2.8350    8.9890 os        1 429     -0.402900
     35 C39        -9.8730    4.0610    9.5640 c3        1 429      0.124700
     36 O13       -10.8490    0.1830   10.1400 oh        1 429     -0.482100
     37 O2          0.0760    2.4200   -0.2650 oh        1 429     -0.478100
     38 H3          1.1880   -1.8410    1.0820 ha        1 429      0.154000
     39 H4         -0.1850   -1.5800    3.1460 ha        1 429      0.141000
     40 H6         -1.3020    2.4300    1.8960 ha        1 429      0.152000
     41 H9         -0.8950    2.5870    4.1520 h1        1 429      0.133700
     42 HN1         5.1780    2.0150   -0.8400 ho        1 429      0.459000
     43 HN2        -2.3530    1.2350    7.4800 hn        1 429      0.475300
     44 H121       -4.4950    2.5450    7.1810 hx        1 429      0.118200
     45 H122       -4.5620    0.8820    7.9520 hx        1 429      0.118200
     46 H131       -5.2090   -0.1130    5.7020 hc        1 429      0.058700
     47 H132       -5.1650    1.5450    4.9640 hc        1 429      0.058700
     48 H141       -7.7600   -0.2180    5.1350 h1        1 429      0.058700
     49 H142       -7.6550    1.4820    4.4410 h1        1 429      0.058700
     50 H151       -6.8690    2.3240    6.6930 hc        1 429      0.085700
     51 H152       -6.9400    0.6570    7.3600 hc        1 429      0.085700
     52 H231        1.4790   -1.0490    7.4530 hc        1 429      0.091033
     53 H232        2.2020   -0.3530    5.9350 hc        1 429      0.091033
     54 H233        1.9700    0.7040    7.3990 hc        1 429      0.091033
     55 H81         3.0290   -0.6860   -1.7840 h1        1 429      0.103200
     56 H82         3.1020   -0.7730    0.0590 h1        1 429      0.103200
     57 H71        -1.7380   -0.4050    4.4100 hc        1 429      0.076700
     58 H72        -2.7230    0.8500    3.5330 hc        1 429      0.076700
     59 H33       -10.0150   -1.1000    5.1020 ha        1 429      0.152000
     60 H34       -11.3400   -2.6410    6.5610 ha        1 429      0.149000
     61 H35       -11.7690   -2.0480    8.9450 ha        1 429      0.151000
     62 H391       -9.2780    4.6340    8.8130 h1        1 429      0.054367
     63 H392      -10.8200    4.5920    9.8290 h1        1 429      0.054367
     64 H393       -9.2530    3.8500   10.4680 h1        1 429      0.054367
     65 H13       -11.4620   -0.4480   10.5490 ho        1 429      0.435000
     66 HO2         0.7860    2.2720   -0.9190 ho        1 429      0.467000
     67 H12         0.8120    1.8820    5.3580 hn        1 429      0.343500
     68 H22        -2.8190    0.2470    6.2380 hn        1 429      0.475300
@<TRIPOS>BOND
     1    1    2 ar  
     2    1    6 ar  
     3    1   37 1   
     4    2    3 ar  
     5    2    7 1   
     6    3    4 ar  
     7    3   38 1   
     8    4    5 ar  
     9    4   39 1   
    10    5    6 ar  
    11    5   22 1   
    12    6   40 1   
    13    7   20 1   
    14    8    9 1   
    15    8   11 1   
    16    8   22 1   
    17    8   41 1   
    18    9   10 1   
    19    9   67 1   
    20   10   18 2   
    21   10   19 1   
    22   11   12 1   
    23   11   21 2   
    24   12   13 1   
    25   12   43 1   
    26   12   68 1   
    27   13   14 1   
    28   13   44 1   
    29   13   45 1   
    30   14   16 1   
    31   14   46 1   
    32   14   47 1   
    33   15   16 1   
    34   15   17 1   
    35   15   48 1   
    36   15   49 1   
    37   16   50 1   
    38   16   51 1   
    39   17   26 1   
    40   19   52 1   
    41   19   53 1   
    42   19   54 1   
    43   20   23 1   
    44   20   55 1   
    45   20   56 1   
    46   22   57 1   
    47   22   58 1   
    48   23   24 2   
    49   23   25 1   
    50   25   42 1   
    51   26   27 ar  
    52   26   31 ar  
    53   27   28 ar  
    54   27   59 1   
    55   28   29 ar  
    56   28   60 1   
    57   29   30 ar  
    58   29   61 1   
    59   30   31 ar  
    60   30   36 1   
    61   31   32 1   
    62   32   33 2   
    63   32   34 1   
    64   34   35 1   
    65   35   62 1   
    66   35   63 1   
    67   35   64 1   
    68   36   65 1   
    69   37   66 1   
@<TRIPOS>SUBSTRUCTURE
     1 429         1 TEMP              0 ****  ****    0 ROOT
