@<TRIPOS>MOLECULE
429
   66    67     1     0     0
SMALL
bcc


@<TRIPOS>ATOM
      1 C1          2.9230   -0.9010    1.3550 ca        1 429      0.167100
      2 C2          3.2260   -1.6070    0.1650 ca        1 429      0.057100
      3 C3          3.8590   -0.9530   -0.8920 ca        1 429     -0.127000
      4 C4          4.1690    0.4030   -0.7830 ca        1 429     -0.167000
      5 C5          3.8420    1.1170    0.3730 ca        1 429     -0.091300
      6 C6          3.2580    0.4550    1.4600 ca        1 429     -0.186000
      7 O5          2.9500   -2.9620    0.1360 os        1 429     -0.346900
      8 C9          3.4260    3.3600   -0.6810 c3        1 429      0.035700
      9 N1          3.9520    4.6970   -0.8730 n         1 429     -0.533900
     10 C10         4.3560    5.5430    0.1530 c         1 429      0.647100
     11 C11         1.8690    3.3910   -0.6690 c         1 429      0.622100
     12 N2          1.1660    2.6480    0.2410 n         1 429     -0.528900
     13 C12        -0.2430    2.3730    0.0910 c3        1 429      0.079000
     14 C13        -0.5540    0.9140   -0.2490 c3        1 429     -0.115400
     15 C14        -2.3010   -0.8310   -0.3080 c3        1 429      0.105400
     16 C15        -2.0420    0.6580   -0.1510 c3        1 429     -0.070400
     17 O1         -3.7250   -0.9870   -0.1180 os        1 429     -0.332900
     18 O4          4.6420    5.1440    1.2980 o         1 429     -0.604100
     19 C23         4.5300    7.0020   -0.2140 c3        1 429     -0.180100
     20 C8          1.9320   -3.3420   -0.8010 c3        1 429      0.015400
     21 O8          1.2960    4.1300   -1.5060 o         1 429     -0.655100
     22 C7          4.0860    2.5840    0.4680 c3        1 429     -0.038100
     23 C24         0.5300   -2.8550   -0.4280 c         1 429      0.891600
     24 O6         -0.3850   -3.0240   -1.2840 o         1 429     -0.844800
     25 O7          0.3220   -2.3120    0.6980 o         1 429     -0.844800
     26 C32        -4.1940   -2.2700   -0.0780 ca        1 429      0.230100
     27 C33        -3.3910   -3.4050   -0.2840 ca        1 429     -0.238000
     28 C34        -3.9730   -4.6650   -0.2550 ca        1 429     -0.039000
     29 C35        -5.3400   -4.8280   -0.0390 ca        1 429     -0.232000
     30 C36        -6.1430   -3.6960    0.1590 ca        1 429      0.195100
     31 C37        -5.5870   -2.4010    0.1620 ca        1 429     -0.262600
     32 C38        -6.3840   -1.2020    0.4150 c         1 429      0.668700
     33 O11        -6.1560   -0.2250    1.1280 o         1 429     -0.522000
     34 O12        -7.5980   -1.1970   -0.2520 os        1 429     -0.474900
     35 C39        -8.4180   -0.0460   -0.0800 c3        1 429      0.130700
     36 O13        -7.4740   -3.9570    0.3800 oh        1 429     -0.515100
     37 O2          2.3250   -1.5060    2.4210 oh        1 429     -0.521100
     38 H3          4.0970   -1.5080   -1.8100 ha        1 429      0.134000
     39 H4          4.6680    0.9090   -1.6220 ha        1 429      0.120000
     40 H6          3.0340    0.9880    2.3960 ha        1 429      0.143000
     41 H9          3.6620    2.8050   -1.6460 h1        1 429      0.079700
     42 HN1         3.5250    5.1540   -1.6550 hn        1 429      0.310500
     43 HN2         1.6620    1.9960    0.8080 hn        1 429      0.325500
     44 H121       -0.6710    3.0450   -0.7060 h1        1 429      0.056200
     45 H122       -0.7380    2.6350    1.0720 h1        1 429      0.056200
     46 H131       -0.0140    0.2100    0.4450 hc        1 429      0.072200
     47 H132       -0.2010    0.6810   -1.2870 hc        1 429      0.072200
     48 H141       -1.7310   -1.4310    0.4570 h1        1 429      0.095700
     49 H142       -2.0220   -1.2010   -1.3300 h1        1 429      0.095700
     50 H151       -2.5930    1.2290   -0.9420 hc        1 429      0.042200
     51 H152       -2.4350    0.9990    0.8430 hc        1 429      0.042200
     52 H231        5.2310    7.1120   -1.0760 hc        1 429      0.062367
     53 H232        3.5440    7.4490   -0.4840 hc        1 429      0.062367
     54 H233        4.9480    7.5460    0.6670 hc        1 429      0.062367
     55 H81         2.2070   -2.9830   -1.8250 h1        1 429      0.046200
     56 H82         1.9650   -4.4620   -0.7620 h1        1 429      0.046200
     57 H71         5.1960    2.7690    0.4350 hc        1 429      0.075200
     58 H72         3.7270    2.9860    1.4530 hc        1 429      0.075200
     59 H33        -2.3000   -3.3000   -0.4750 ha        1 429      0.229000
     60 H34        -3.3400   -5.5520   -0.4130 ha        1 429      0.136000
     61 H35        -5.8020   -5.8240   -0.0210 ha        1 429      0.139000
     62 H391       -9.3060   -0.2480   -0.7270 h1        1 429      0.042700
     63 H392       -8.7100    0.0590    0.9930 h1        1 429      0.042700
     64 H393       -7.8700    0.8680   -0.4140 h1        1 429      0.042700
     65 H13        -7.9670   -3.1240    0.3900 ho        1 429      0.433000
     66 HO2         1.7630   -2.2320    2.0640 ho        1 429      0.486000
@<TRIPOS>BOND
     1    1    2 ar  
     2    1    6 ar  
     3    1   37 1   
     4    2    3 ar  
     5    2    7 1   
     6    3    4 ar  
     7    3   38 1   
     8    4    5 ar  
     9    4   39 1   
    10    5    6 ar  
    11    5   22 1   
    12    6   40 1   
    13    7   20 1   
    14    8    9 1   
    15    8   11 1   
    16    8   22 1   
    17    8   41 1   
    18    9   10 1   
    19    9   42 1   
    20   10   18 2   
    21   10   19 1   
    22   11   12 1   
    23   11   21 2   
    24   12   13 1   
    25   12   43 1   
    26   13   14 1   
    27   13   44 1   
    28   13   45 1   
    29   14   16 1   
    30   14   46 1   
    31   14   47 1   
    32   15   16 1   
    33   15   17 1   
    34   15   48 1   
    35   15   49 1   
    36   16   50 1   
    37   16   51 1   
    38   17   26 1   
    39   19   52 1   
    40   19   53 1   
    41   19   54 1   
    42   20   23 1   
    43   20   55 1   
    44   20   56 1   
    45   22   57 1   
    46   22   58 1   
    47   23   24 1   
    48   23   25 1   
    49   26   27 ar  
    50   26   31 ar  
    51   27   28 ar  
    52   27   59 1   
    53   28   29 ar  
    54   28   60 1   
    55   29   30 ar  
    56   29   61 1   
    57   30   31 ar  
    58   30   36 1   
    59   31   32 1   
    60   32   33 2   
    61   32   34 1   
    62   34   35 1   
    63   35   62 1   
    64   35   63 1   
    65   35   64 1   
    66   36   65 1   
    67   37   66 1   
@<TRIPOS>SUBSTRUCTURE
     1 429         1 TEMP              0 ****  ****    0 ROOT
