@<TRIPOS>MOLECULE
42A
   16    17     1     0     0
SMALL
bcc


@<TRIPOS>ATOM
      1 NAA        -1.5470   -0.1930    2.0540 n1        1 42A     -0.376800
      2 CAB        -0.8430   -0.1620    1.1270 cg        1 42A      0.230500
      3 CAI         0.0100   -0.1240    0.0160 cc        1 42A     -0.048900
      4 CAJ         1.4540   -0.1170    0.0400 ca        1 42A     -0.166100
      5 CAE         2.4410   -0.1410    1.0280 ca        1 42A     -0.046000
      6 CAC         3.7670   -0.1210    0.6200 ca        1 42A     -0.264300
      7 CAD         4.0810   -0.0780   -0.7640 ca        1 42A      0.414200
      8 NAG         3.1870   -0.0540   -1.7580 nb        1 42A     -0.663000
      9 CAK         1.8820   -0.0730   -1.3520 ca        1 42A      0.416800
     10 NAH         0.7270   -0.0560   -2.1570 na        1 42A     -0.277100
     11 CAF        -0.3860   -0.0870   -1.3290 cd        1 42A     -0.042100
     12 H1          2.1670   -0.1740    2.0930 ha        1 42A      0.150000
     13 H2          4.5830   -0.1380    1.3540 ha        1 42A      0.147000
     14 H3          5.1380   -0.0630   -1.0880 h4        1 42A      0.026100
     15 H4          0.7220   -0.0270   -3.1440 hn        1 42A      0.317700
     16 H5         -1.3970   -0.0800   -1.7470 h4        1 42A      0.182000
@<TRIPOS>BOND
     1    1    2 3   
     2    2    3 1   
     3    3    4 1   
     4    3   11 2   
     5    4    5 ar  
     6    4    9 ar  
     7    5    6 ar  
     8    5   12 1   
     9    6    7 ar  
    10    6   13 1   
    11    7    8 ar  
    12    7   14 1   
    13    8    9 ar  
    14    9   10 1   
    15   10   11 1   
    16   10   15 1   
    17   11   16 1   
@<TRIPOS>SUBSTRUCTURE
     1 42A         1 TEMP              0 ****  ****    0 ROOT
