@<TRIPOS>MOLECULE
42A
   16    17     1     0     0
SMALL
bcc


@<TRIPOS>ATOM
      1 NAA        -1.5500   -0.0040    2.0780 n1        1 42A     -0.376800
      2 CAB        -0.8480   -0.0050    1.1490 cg        1 42A      0.230500
      3 CAI         0.0010   -0.0050    0.0350 cc        1 42A     -0.048900
      4 CAJ         1.4460   -0.0020    0.0550 ca        1 42A     -0.166100
      5 CAE         2.4350    0.0030    1.0410 ca        1 42A     -0.046000
      6 CAC         3.7600    0.0050    0.6290 ca        1 42A     -0.264300
      7 CAD         4.0710    0.0020   -0.7560 ca        1 42A      0.414200
      8 NAG         3.1740   -0.0020   -1.7490 nb        1 42A     -0.663000
      9 CAK         1.8710   -0.0040   -1.3390 ca        1 42A      0.416800
     10 NAH         0.7130   -0.0090   -2.1410 na        1 42A     -0.277100
     11 CAF        -0.3980   -0.0090   -1.3100 cd        1 42A     -0.042100
     12 H1          2.1640    0.0050    2.1070 ha        1 42A      0.150000
     13 H2          4.5780    0.0090    1.3610 ha        1 42A      0.147000
     14 H3          5.1270    0.0040   -1.0830 h4        1 42A      0.026100
     15 H4          0.7060   -0.0110   -3.1280 hn        1 42A      0.317700
     16 H5         -1.4100   -0.0130   -1.7250 h4        1 42A      0.182000
@<TRIPOS>BOND
     1    1    2 3   
     2    2    3 1   
     3    3    4 1   
     4    3   11 2   
     5    4    5 ar  
     6    4    9 ar  
     7    5    6 ar  
     8    5   12 1   
     9    6    7 ar  
    10    6   13 1   
    11    7    8 ar  
    12    7   14 1   
    13    8    9 ar  
    14    9   10 1   
    15   10   11 1   
    16   10   15 1   
    17   11   16 1   
@<TRIPOS>SUBSTRUCTURE
     1 42A         1 TEMP              0 ****  ****    0 ROOT
