@<TRIPOS>MOLECULE
42B
   16    14     1     0     0
SMALL
bcc


@<TRIPOS>ATOM
      1 N1         -2.2240   -0.1280   -1.3870 n3        1 42B     -0.341000
      2 C3          1.5030   -0.5720    1.6330 c1        1 42B      0.312000
      3 O3          1.3570    0.0080    2.7410 o         1 42B     -0.571000
      4 C4          1.0590    0.1100    0.3590 c2        1 42B     -0.043000
      5 O4          1.4130    1.4710    0.4080 oh        1 42B     -0.377000
      6 C5         -0.4410   -0.0170    0.2150 c3        1 42B     -0.199000
      7 C6         -0.8090   -0.0180   -1.2520 c3        1 42B     -0.099000
      8 O31         2.0180   -1.7200    1.5860 o         1 42B     -0.571000
      9 H1N1       -2.5090   -0.9020   -0.9890 hn        1 42B      0.123000
     10 H1N2       -2.6260    0.5890   -0.9840 hn        1 42B      0.123000
     11 H4          1.4960   -0.3130   -0.4070 h4        1 42B      0.076000
     12 HA          2.2600    1.5670    0.1540 ho        1 42B      0.223000
     13 H5C1       -0.7380   -0.8530    0.6260 hc        1 42B      0.083000
     14 H5C2       -0.8760    0.7380    0.6600 hc        1 42B      0.083000
     15 H6C1       -0.3780   -0.7770   -1.6970 h1        1 42B      0.088000
     16 H6C2       -0.5050    0.8170   -1.6650 h1        1 42B      0.088000
@<TRIPOS>BOND
     1    1    7 1   
     2    1    9 1   
     3    1   10 1   
     4    2    3 1   
     5    2    8 1   
     6    4    5 1   
     7    4    6 1   
     8    4   11 1   
     9    5   12 1   
    10    6    7 1   
    11    6   13 1   
    12    6   14 1   
    13    7   15 1   
    14    7   16 1   
@<TRIPOS>SUBSTRUCTURE
     1 42B         1 TEMP              0 ****  ****    0 ROOT
