@<TRIPOS>MOLECULE
42B
   16    15     1     0     0
SMALL
bcc


@<TRIPOS>ATOM
      1 N1         -1.7930    2.1140   -0.6410 n3        1 42B     -0.914800
      2 C3         -0.7770   -0.8190    2.4730 c         1 42B      0.930600
      3 O3         -2.0050   -0.5400    2.5230 o         1 42B     -0.832300
      4 C4          0.2400    0.2770    2.0270 c3        1 42B      0.008100
      5 O4          0.2480    1.3080    3.0020 oh        1 42B     -0.583800
      6 C5         -0.0820    0.8090    0.6340 c3        1 42B     -0.094400
      7 C6         -1.2780    1.7550    0.6680 c3        1 42B      0.122800
      8 H1N1       -2.7610    2.3620   -0.5540 hn        1 42B      0.326800
      9 H1N2       -1.7360    1.3280   -1.2610 hn        1 42B      0.326800
     10 H4          1.2660   -0.1910    1.9960 h1        1 42B      0.015700
     11 HA          0.8110    2.0070    2.6490 ho        1 42B      0.357000
     12 H5C1        0.8100    1.3420    0.2130 hc        1 42B      0.023700
     13 H5C2       -0.2960   -0.0720   -0.0250 hc        1 42B      0.023700
     14 H6C1       -0.9640    2.7150    1.1690 h1        1 42B      0.061700
     15 H6C2       -2.0610    1.2720    1.3310 h1        1 42B      0.061700
     16 O31        -0.2880   -1.9570    2.7160 o         1 42B     -0.832300
@<TRIPOS>BOND
     1    1    7 1   
     2    1    8 1   
     3    1    9 1   
     4    2    3 1   
     5    2    4 1   
     6    2   16 1   
     7    4    5 1   
     8    4    6 1   
     9    4   10 1   
    10    5   11 1   
    11    6    7 1   
    12    6   12 1   
    13    6   13 1   
    14    7   14 1   
    15    7   15 1   
@<TRIPOS>SUBSTRUCTURE
     1 42B         1 TEMP              0 ****  ****    0 ROOT
