@<TRIPOS>MOLECULE
42C
   21    22     1     0     0
SMALL
bcc


@<TRIPOS>ATOM
      1 C1          0.0040    0.1900    0.0320 ca        1 42C      0.642200
      2 C2          1.4220    0.0480    0.0540 ca        1 42C     -0.314800
      3 C3          2.1150   -0.0050    1.3490 ca        1 42C      0.553300
      4 C5          0.0910    0.2020    2.3650 ca        1 42C      0.627900
      5 C8          3.6230   -0.1980   -0.2330 cc        1 42C      0.434700
      6 C11        -2.0050   -0.3440   -1.2280 c3        1 42C      0.159100
      7 C12        -0.5590    1.4630   -1.9260 c3        1 42C      0.159100
      8 N10        -0.6570    0.1890   -1.2400 nh        1 42C     -0.734300
      9 N6         -0.6510    0.2690    1.2180 nb        1 42C     -0.725000
     10 N4          1.4250    0.0780    2.5230 nb        1 42C     -0.635000
     11 N9          3.5050   -0.1560    1.1060 nd        1 42C     -0.625700
     12 N7          2.4070   -0.0650   -0.9220 na        1 42C     -0.256300
     13 H5         -0.5000    0.2680    3.3040 h5        1 42C      0.057100
     14 H8          4.5770   -0.3110   -0.7660 h5        1 42C      0.074800
     15 H11        -2.7480    0.3350   -0.7300 h1        1 42C      0.044367
     16 H11A       -2.0070   -1.3320   -0.6990 h1        1 42C      0.044367
     17 H11B       -2.3170   -0.5000   -2.2950 h1        1 42C      0.044367
     18 H12        -1.2090    2.2590   -1.4700 h1        1 42C      0.044367
     19 H12A        0.5040    1.8180   -1.9130 h1        1 42C      0.044367
     20 H12B       -0.8780    1.3060   -2.9900 h1        1 42C      0.044367
     21 HN7         2.2490   -0.1560   -1.8910 hn        1 42C      0.318700
@<TRIPOS>BOND
     1    1    2 ar  
     2    1    8 1   
     3    1    9 ar  
     4    2    3 ar  
     5    2   12 1   
     6    3   10 ar  
     7    3   11 1   
     8    4    9 ar  
     9    4   10 ar  
    10    4   13 1   
    11    5   11 2   
    12    5   12 1   
    13    5   14 1   
    14    6    8 1   
    15    6   15 1   
    16    6   16 1   
    17    6   17 1   
    18    7    8 1   
    19    7   18 1   
    20    7   19 1   
    21    7   20 1   
    22   12   21 1   
@<TRIPOS>SUBSTRUCTURE
     1 42C         1 TEMP              0 ****  ****    0 ROOT
