@<TRIPOS>MOLECULE
42C
   21    22     1     0     0
SMALL
bcc


@<TRIPOS>ATOM
      1 C1          0.0040    0.1930    0.0330 ca        1 42C      0.642200
      2 C2          1.4220    0.0490    0.0550 ca        1 42C     -0.314800
      3 C3          2.1160    0.0040    1.3490 ca        1 42C      0.553300
      4 C5          0.0930    0.2220    2.3660 ca        1 42C      0.627900
      5 C8          3.6230   -0.2020   -0.2320 cc        1 42C      0.434700
      6 C11        -2.0060   -0.3470   -1.2220 c3        1 42C      0.159100
      7 C12        -0.5580    1.4530   -1.9340 c3        1 42C      0.159100
      8 N10        -0.6580    0.1830   -1.2390 nh        1 42C     -0.734300
      9 N6         -0.6500    0.2810    1.2190 nb        1 42C     -0.725000
     10 N4          1.4270    0.0970    2.5230 nb        1 42C     -0.635000
     11 N9          3.5050   -0.1500    1.1070 nd        1 42C     -0.625700
     12 N7          2.4060   -0.0720   -0.9210 na        1 42C     -0.256300
     13 H5         -0.4970    0.2950    3.3040 h5        1 42C      0.057100
     14 H8          4.5760   -0.3200   -0.7650 h5        1 42C      0.074800
     15 H11        -2.3200   -0.5100   -2.2870 h1        1 42C      0.044367
     16 H11A       -2.0100   -1.3310   -0.6860 h1        1 42C      0.044367
     17 H11B       -2.7480    0.3360   -0.7280 h1        1 42C      0.044367
     18 H12        -1.2070    2.2520   -1.4840 h1        1 42C      0.044367
     19 H12A        0.5050    1.8060   -1.9240 h1        1 42C      0.044367
     20 H12B       -0.8780    1.2880   -2.9970 h1        1 42C      0.044367
     21 HN7         2.2470   -0.1700   -1.8890 hn        1 42C      0.318700
@<TRIPOS>BOND
     1    1    2 ar  
     2    1    8 1   
     3    1    9 ar  
     4    2    3 ar  
     5    2   12 1   
     6    3   10 ar  
     7    3   11 1   
     8    4    9 ar  
     9    4   10 ar  
    10    4   13 1   
    11    5   11 2   
    12    5   12 1   
    13    5   14 1   
    14    6    8 1   
    15    6   15 1   
    16    6   16 1   
    17    6   17 1   
    18    7    8 1   
    19    7   18 1   
    20    7   19 1   
    21    7   20 1   
    22   12   21 1   
@<TRIPOS>SUBSTRUCTURE
     1 42C         1 TEMP              0 ****  ****    0 ROOT
