@<TRIPOS>MOLECULE
42C
   22    23     1     0     0
SMALL
bcc


@<TRIPOS>ATOM
      1 C1          0.1540    0.3270   -0.0720 ca        1 42C      0.487200
      2 C2          1.4840   -0.1210   -0.0540 ca        1 42C     -0.292800
      3 C3          2.1730   -0.1180    1.2760 ca        1 42C      0.601300
      4 C5          0.2610    0.6980    2.2190 ca        1 42C      0.654900
      5 C8          3.5950   -0.8670   -0.2230 cc        1 42C      0.496700
      6 C11        -1.8180   -0.5280   -1.2530 c3        1 42C      0.090100
      7 C12        -1.0410    1.7650   -1.6600 c3        1 42C      0.090100
      8 N10        -0.6300    0.3690   -1.3340 n4        1 42C     -0.657100
      9 N6         -0.4610    0.7390    1.0710 nb        1 42C     -0.674000
     10 N4          1.5480    0.2930    2.3970 nb        1 42C     -0.566000
     11 N9          3.4960   -0.6010    1.0830 nd        1 42C     -0.579700
     12 N7          2.4170   -0.5990   -0.9630 na        1 42C     -0.292300
     13 H5         -0.2740    1.0420    3.1360 h5        1 42C      0.101100
     14 H8          4.5000   -1.2610   -0.7160 h5        1 42C      0.110800
     15 H11        -2.5350   -0.1400   -0.4790 hx        1 42C      0.111367
     16 H11A       -2.3210   -0.5480   -2.2570 hx        1 42C      0.111367
     17 H11B       -1.4850   -1.5600   -0.9650 hx        1 42C      0.111367
     18 H12        -1.7620    2.1400   -0.8840 hx        1 42C      0.111367
     19 H12A       -0.1330    2.4250   -1.6730 hx        1 42C      0.111367
     20 H12B       -1.5360    1.7670   -2.6680 hx        1 42C      0.111367
     21 HN7         2.3010   -0.7320   -1.9330 hn        1 42C      0.319700
     22 H101       -0.0210    0.0290   -2.0870 hn        1 42C      0.441800
@<TRIPOS>BOND
     1    1    2 ar  
     2    1    8 1   
     3    1    9 ar  
     4    2    3 ar  
     5    2   12 1   
     6    3   10 ar  
     7    3   11 1   
     8    4    9 ar  
     9    4   10 ar  
    10    4   13 1   
    11    5   11 2   
    12    5   12 1   
    13    5   14 1   
    14    6    8 1   
    15    6   15 1   
    16    6   16 1   
    17    6   17 1   
    18    7    8 1   
    19    7   18 1   
    20    7   19 1   
    21    7   20 1   
    22    8   22 1   
    23   12   21 1   
@<TRIPOS>SUBSTRUCTURE
     1 42C         1 TEMP              0 ****  ****    0 ROOT
