@<TRIPOS>MOLECULE
42C
   21    15     1     0     0
SMALL
bcc


@<TRIPOS>ATOM
      1 C1         -0.2190    0.0170    0.3020 c1        1 42C      0.121000
      2 C2          1.1680   -0.0260    0.3270 c1        1 42C     -0.066500
      3 C3          1.8180   -0.0750    1.5090 c1        1 42C     -0.066500
      4 C5         -0.2430   -0.0410    2.6480 c1        1 42C     -0.035000
      5 C8          3.3170    0.0460   -0.0790 c1        1 42C     -0.021000
      6 C11        -1.6940    1.2320   -1.3480 c3        1 42C     -0.117000
      7 C12        -1.9530   -1.2180   -1.0170 c3        1 42C     -0.117000
      8 N10        -1.2590   -0.0060   -0.7340 n3        1 42C     -0.225000
      9 N6         -0.9070    0.0090    1.4500 n1        1 42C     -0.199000
     10 N4          1.1160   -0.0830    2.6710 n1        1 42C     -0.109000
     11 N9          3.1480   -0.0300    1.2560 n1        1 42C     -0.166000
     12 N7          2.0940    0.0490   -0.6550 n1        1 42C     -0.166000
     13 H5         -0.7520   -0.0470    3.4950 ha        1 42C      0.194000
     14 H8          4.1710    0.0390   -0.5500 DU        1 42C      0.237000
     15 H11        -2.5390    1.0730   -1.8460 h1        1 42C      0.083667
     16 H11A       -1.0030    1.5510   -1.9680 h1        1 42C      0.083667
     17 H11B       -1.8470    1.9040   -0.6550 h1        1 42C      0.083667
     18 H12        -2.2490   -1.2140   -1.9560 h1        1 42C      0.083667
     19 H12A       -1.3560   -1.9800   -0.8660 h1        1 42C      0.083667
     20 H12B       -2.7330   -1.2930   -0.4290 h1        1 42C      0.083667
     21 HN7         1.9230    0.0930   -1.5540 DU        1 42C      0.237000
@<TRIPOS>BOND
     1    1    8 1   
     2    1    9 1   
     3    2    3 1   
     4    4   10 1   
     5    4   13 1   
     6    5   11 1   
     7    5   12 1   
     8    6    8 1   
     9    6   15 1   
    10    6   16 1   
    11    6   17 1   
    12    7    8 1   
    13    7   18 1   
    14    7   19 1   
    15    7   20 1   
@<TRIPOS>SUBSTRUCTURE
     1 42C         1 TEMP              0 ****  ****    0 ROOT
