@<TRIPOS>MOLECULE
42C
   21    22     1     0     0
SMALL
bcc


@<TRIPOS>ATOM
      1 C1          0.7980   -0.1900   -0.0710 ca        1 42C      0.642200
      2 C2         -0.5110    0.3430    0.1110 ca        1 42C     -0.314800
      3 C3         -1.6690   -0.5570    0.0110 ca        1 42C      0.553300
      4 C5         -0.2230   -2.2650   -0.3940 ca        1 42C      0.627900
      5 C8         -2.4150    1.4570    0.4600 cc        1 42C      0.434700
      6 C11         3.1300    0.0690    0.5640 c3        1 42C      0.159100
      7 C12         2.1360    1.5270   -1.0880 c3        1 42C      0.159100
      8 N10         1.9160    0.6950    0.0800 nh        1 42C     -0.734300
      9 N6          0.9210   -1.5170   -0.3290 nb        1 42C     -0.725000
     10 N4         -1.5100   -1.8870   -0.2500 nb        1 42C     -0.635000
     11 N9         -2.8460    0.2030    0.2360 nd        1 42C     -0.625700
     12 N7         -1.0210    1.6080    0.3830 na        1 42C     -0.256300
     13 H5         -0.0590   -3.3440   -0.6030 h5        1 42C      0.057100
     14 H8         -3.0750    2.3090    0.6730 h5        1 42C      0.074800
     15 H11         3.6260   -0.5910   -0.1980 h1        1 42C      0.044367
     16 H11A        3.8420    0.8870    0.8520 h1        1 42C      0.044367
     17 H11B        2.8930   -0.5450    1.4720 h1        1 42C      0.044367
     18 H12         1.1680    1.9910   -1.4090 h1        1 42C      0.044367
     19 H12A        2.8540    2.3400   -0.7990 h1        1 42C      0.044367
     20 H12B        2.5670    0.9590   -1.9570 h1        1 42C      0.044367
     21 HN7        -0.4880    2.4080    0.5980 hn        1 42C      0.319700
@<TRIPOS>BOND
     1    1    2 ar  
     2    1    8 1   
     3    1    9 ar  
     4    2    3 ar  
     5    2   12 1   
     6    3   10 ar  
     7    3   11 1   
     8    4    9 ar  
     9    4   10 ar  
    10    4   13 1   
    11    5   11 2   
    12    5   12 1   
    13    5   14 1   
    14    6    8 1   
    15    6   15 1   
    16    6   16 1   
    17    6   17 1   
    18    7    8 1   
    19    7   18 1   
    20    7   19 1   
    21    7   20 1   
    22   12   21 1   
@<TRIPOS>SUBSTRUCTURE
     1 42C         1 TEMP              0 ****  ****    0 ROOT
