@<TRIPOS>MOLECULE
42D
   41    41     1     0     0
SMALL
bcc


@<TRIPOS>ATOM
      1 O3          0.6360   -0.6280   -0.7010 o         1 42D     -0.811800
      2 C1          1.8490   -0.4430   -0.4660 c         1 42D      0.908600
      3 O1          2.7360   -0.1940   -1.3400 o         1 42D     -0.811800
      4 C2          2.2730   -0.5160    1.0410 c3        1 42D      0.214600
      5 O2          1.2250   -0.8860    1.8850 oh        1 42D     -0.580800
      6 C3          3.4830   -1.4010    1.3260 c3        1 42D     -0.107400
      7 C4          4.6710   -0.9010    0.5270 c3        1 42D      0.133100
      8 O4          5.9070   -1.3970    1.0090 oh        1 42D     -0.614800
      9 O6          2.5920    0.7900    1.5850 os        1 42D     -0.435600
     10 C6          3.5210    1.4900    0.7940 c3        1 42D      0.117100
     11 C7          3.9010    2.7720    1.5710 c3        1 42D      0.144100
     12 C8          3.6100    4.0080    0.6940 c3        1 42D      0.110100
     13 C9          3.9720    5.2880    1.4510 c3        1 42D      0.098400
     14 O9          3.7320    6.3580    0.5500 oh        1 42D     -0.619800
     15 O8          4.4070    3.8780   -0.4790 oh        1 42D     -0.660800
     16 O7          3.2290    2.8980    2.8020 oh        1 42D     -0.583800
     17 C5          4.7920    0.6530    0.4610 c3        1 42D      0.113500
     18 N5          5.2110    1.0420   -0.9460 ny        1 42D     -0.643800
     19 C10         6.5610    0.5510   -1.2680 c         1 42D      0.621100
     20 O10         7.6000    1.0500   -0.8470 o         1 42D     -0.466000
     21 O11         6.5310   -0.5060   -2.1170 os        1 42D     -0.384900
     22 C22         7.8030   -1.1330   -2.3740 c3        1 42D      0.129700
     23 H2          0.3950   -0.7070    1.4080 ho        1 42D      0.448000
     24 H31C        3.2510   -2.4570    1.0320 hc        1 42D      0.077700
     25 H32C        3.7000   -1.3830    2.4260 hc        1 42D      0.077700
     26 H4          4.5850   -1.3290   -0.5220 h1        1 42D      0.123700
     27 HA          5.8710   -1.4210    1.9740 ho        1 42D      0.416000
     28 H5          5.6410    0.9560    1.1450 hx        1 42D      0.097700
     29 H6          2.9950    1.7790   -0.1710 h1        1 42D      0.093700
     30 H7          4.9930    2.7740    1.8470 h1        1 42D      0.072700
     31 H8          2.5240    4.0370    0.3990 h1        1 42D      0.071700
     32 HB          2.3210    2.5770    2.6980 ho        1 42D      0.439000
     33 H91C        5.0550    5.2780    1.7440 h1        1 42D      0.049700
     34 H92C        3.3320    5.3750    2.3670 h1        1 42D      0.049700
     35 HC          4.3320    4.7140   -0.9610 ho        1 42D      0.446000
     36 H9          3.8200    7.1750    1.0540 ho        1 42D      0.417000
     37 HD          4.4910    0.6250   -1.5930 hn        1 42D      0.511300
     38 H221        8.2160   -1.5370   -1.4190 h1        1 42D      0.076033
     39 H222        8.5000   -0.3930   -2.8320 h1        1 42D      0.076033
     40 H223        7.5250   -1.9490   -3.0890 h1        1 42D      0.076033
     41 H52         5.2010    2.0700   -1.0290 hn        1 42D      0.511300
@<TRIPOS>BOND
     1    1    2 1   
     2    2    3 1   
     3    2    4 1   
     4    4    5 1   
     5    4    6 1   
     6    4    9 1   
     7    5   23 1   
     8    6    7 1   
     9    6   24 1   
    10    6   25 1   
    11    7    8 1   
    12    7   17 1   
    13    7   26 1   
    14    8   27 1   
    15    9   10 1   
    16   10   11 1   
    17   10   17 1   
    18   10   29 1   
    19   11   12 1   
    20   11   16 1   
    21   11   30 1   
    22   12   13 1   
    23   12   15 1   
    24   12   31 1   
    25   13   14 1   
    26   13   33 1   
    27   13   34 1   
    28   14   36 1   
    29   15   35 1   
    30   16   32 1   
    31   17   18 1   
    32   17   28 1   
    33   18   19 1   
    34   18   37 1   
    35   18   41 1   
    36   19   20 2   
    37   19   21 1   
    38   21   22 1   
    39   22   38 1   
    40   22   39 1   
    41   22   40 1   
@<TRIPOS>SUBSTRUCTURE
     1 42D         1 TEMP              0 ****  ****    0 ROOT
