@<TRIPOS>MOLECULE
42D
   41    41     1     0     0
SMALL
bcc


@<TRIPOS>ATOM
      1 O3          0.6160   -0.5130   -0.7050 o         1 42D     -0.811300
      2 C1          1.8350   -0.3680   -0.4720 c         1 42D      0.907600
      3 O1          2.7270   -0.1310   -1.3430 o         1 42D     -0.811300
      4 C2          2.2590   -0.4730    1.0340 c3        1 42D      0.214600
      5 O2          1.2060   -0.8310    1.8750 oh        1 42D     -0.580800
      6 C3          3.4510   -1.3870    1.3040 c3        1 42D     -0.107400
      7 C4          4.6490   -0.9000    0.5120 c3        1 42D      0.133100
      8 O4          5.8740   -1.4270    0.9870 oh        1 42D     -0.614800
      9 O6          2.6070    0.8190    1.5950 os        1 42D     -0.436600
     10 C6          3.5480    1.5100    0.8100 c3        1 42D      0.117100
     11 C7          3.9530    2.7770    1.5990 c3        1 42D      0.146100
     12 C8          3.6790    4.0270    0.7380 c3        1 42D      0.072100
     13 C9          4.0690    5.3000    1.4960 c3        1 42D      0.094400
     14 O9          3.9250    6.4210    0.6470 oh        1 42D     -0.603800
     15 O8          4.4520    3.8940   -0.4510 oh        1 42D     -0.658800
     16 O7          3.2900    2.9040    2.8350 oh        1 42D     -0.584800
     17 C5          4.8020    0.6520    0.4660 c3        1 42D      0.113500
     18 N5          5.2280    1.0510   -0.9360 n4        1 42D     -0.643800
     19 C10         6.5670    0.5350   -1.2670 c         1 42D      0.621100
     20 O10         7.6170    1.0110   -0.8440 o         1 42D     -0.465000
     21 O11         6.5130   -0.5140   -2.1240 os        1 42D     -0.384900
     22 C22         7.7710   -1.1650   -2.3890 c3        1 42D      0.129700
     23 H2          0.3790   -0.6280    1.4010 ho        1 42D      0.448000
     24 H31C        3.1970   -2.4320    0.9950 hc        1 42D      0.077700
     25 H32C        3.6700   -1.3900    2.4040 hc        1 42D      0.077700
     26 H4          4.5540   -1.3120   -0.5430 h1        1 42D      0.123700
     27 HA          5.8380   -1.4630    1.9510 ho        1 42D      0.417000
     28 H5          5.6570    0.9290    1.1540 hx        1 42D      0.097700
     29 H6          3.0270    1.8200   -0.1510 h1        1 42D      0.093700
     30 H7          5.0480    2.7580    1.8690 h1        1 42D      0.072700
     31 H8          2.5910    4.0700    0.4510 h1        1 42D      0.059700
     32 HB          2.3820    2.5810    2.7390 ho        1 42D      0.439000
     33 H91C        3.4510    5.3920    2.4250 h1        1 42D      0.073200
     34 H92C        5.1600    5.2800    1.7640 h1        1 42D      0.073200
     35 HC          4.5570    4.7820   -0.8220 ho        1 42D      0.443000
     36 H9          2.9820    6.6130    0.5760 ho        1 42D      0.407000
     37 HD          4.4980    0.6590   -1.5870 hn        1 42D      0.511300
     38 H221        8.4830   -0.4350   -2.8420 h1        1 42D      0.076033
     39 H222        8.1790   -1.5850   -1.4380 h1        1 42D      0.076033
     40 H223        7.4760   -1.9690   -3.1100 h1        1 42D      0.076033
     41 H52         5.2400    2.0800   -1.0050 hn        1 42D      0.511300
@<TRIPOS>BOND
     1    1    2 1   
     2    2    3 1   
     3    2    4 1   
     4    4    5 1   
     5    4    6 1   
     6    4    9 1   
     7    5   23 1   
     8    6    7 1   
     9    6   24 1   
    10    6   25 1   
    11    7    8 1   
    12    7   17 1   
    13    7   26 1   
    14    8   27 1   
    15    9   10 1   
    16   10   11 1   
    17   10   17 1   
    18   10   29 1   
    19   11   12 1   
    20   11   16 1   
    21   11   30 1   
    22   12   13 1   
    23   12   15 1   
    24   12   31 1   
    25   13   14 1   
    26   13   33 1   
    27   13   34 1   
    28   14   36 1   
    29   15   35 1   
    30   16   32 1   
    31   17   18 1   
    32   17   28 1   
    33   18   19 1   
    34   18   37 1   
    35   18   41 1   
    36   19   20 2   
    37   19   21 1   
    38   21   22 1   
    39   22   38 1   
    40   22   39 1   
    41   22   40 1   
@<TRIPOS>SUBSTRUCTURE
     1 42D         1 TEMP              0 ****  ****    0 ROOT
