@<TRIPOS>MOLECULE
42D
   40    40     1     0     0
SMALL
bcc


@<TRIPOS>ATOM
      1 O3          1.0480    2.3310   -1.7960 o         1 42D     -0.812800
      2 C1          1.7500    2.5750   -0.7810 c         1 42D      0.900600
      3 O1          2.8620    3.1640   -0.7690 o         1 42D     -0.812800
      4 C2          1.2160    2.1280    0.6240 c3        1 42D      0.218600
      5 O2          2.0350    2.5810    1.6710 oh        1 42D     -0.610800
      6 C3         -0.2180    2.5720    0.9100 c3        1 42D     -0.111400
      7 C4         -1.1820    1.7890    0.0340 c3        1 42D      0.098100
      8 O4         -2.5350    2.1070    0.3500 oh        1 42D     -0.621800
      9 O6          1.3390    0.7060    0.8230 os        1 42D     -0.461600
     10 C6          0.4890   -0.0850    0.0080 c3        1 42D      0.127100
     11 C7          0.7910   -1.5390    0.4250 c3        1 42D      0.121100
     12 C8          2.0490   -2.0490   -0.3110 c3        1 42D      0.105100
     13 C9          2.4700   -3.4090    0.2590 c3        1 42D      0.095400
     14 O9          3.8510   -3.5810   -0.0170 oh        1 42D     -0.591800
     15 O8          1.8130   -2.1420   -1.7040 oh        1 42D     -0.574800
     16 O7          0.9440   -1.6690    1.8250 oh        1 42D     -0.610800
     17 C5         -1.0060    0.2670    0.2680 c3        1 42D      0.063700
     18 N5         -1.8700   -0.5270   -0.5950 n         1 42D     -0.485900
     19 C10        -3.0670   -1.0020   -0.0860 c         1 42D      0.729100
     20 O10        -3.3710   -1.3180    1.0750 o         1 42D     -0.585000
     21 O11        -4.0050   -1.2580   -1.0810 os        1 42D     -0.458900
     22 C22        -5.2050   -1.8830   -0.6380 c3        1 42D      0.142700
     23 H2          2.9120    2.7460    1.2840 ho        1 42D      0.437000
     24 H31C       -0.4570    2.4130    1.9920 hc        1 42D      0.053700
     25 H32C       -0.3020    3.6660    0.6860 hc        1 42D      0.053700
     26 H4         -0.9800    2.0360   -1.0520 h1        1 42D      0.100700
     27 HA         -2.5990    3.0680    0.3260 ho        1 42D      0.398000
     28 H5         -1.2500    0.0280    1.3450 h1        1 42D      0.101700
     29 H6          0.7470    0.0840   -1.0780 h1        1 42D      0.106700
     30 H7         -0.0770   -2.2110    0.1750 h1        1 42D      0.070700
     31 H8          2.8910   -1.3050   -0.2170 h1        1 42D      0.118700
     32 HB          1.4990   -0.9390    2.1340 ho        1 42D      0.431000
     33 H91C        2.2890   -3.4330    1.3670 h1        1 42D      0.029200
     34 H92C        1.8840   -4.2330   -0.2320 h1        1 42D      0.029200
     35 HC          1.0160   -2.6720   -1.8250 ho        1 42D      0.384000
     36 H9          4.1260   -4.3670    0.4680 ho        1 42D      0.384000
     37 HD         -1.9130   -0.2030   -1.5400 hn        1 42D      0.311500
     38 H221       -5.7220   -1.2360    0.1110 h1        1 42D      0.041367
     39 H222       -5.8080   -1.9880   -1.5730 h1        1 42D      0.041367
     40 H223       -4.9760   -2.8780   -0.1860 h1        1 42D      0.041367
@<TRIPOS>BOND
     1    1    2 1   
     2    2    3 1   
     3    2    4 1   
     4    4    5 1   
     5    4    6 1   
     6    4    9 1   
     7    5   23 1   
     8    6    7 1   
     9    6   24 1   
    10    6   25 1   
    11    7    8 1   
    12    7   17 1   
    13    7   26 1   
    14    8   27 1   
    15    9   10 1   
    16   10   11 1   
    17   10   17 1   
    18   10   29 1   
    19   11   12 1   
    20   11   16 1   
    21   11   30 1   
    22   12   13 1   
    23   12   15 1   
    24   12   31 1   
    25   13   14 1   
    26   13   33 1   
    27   13   34 1   
    28   14   36 1   
    29   15   35 1   
    30   16   32 1   
    31   17   18 1   
    32   17   28 1   
    33   18   19 1   
    34   18   37 1   
    35   19   20 2   
    36   19   21 1   
    37   21   22 1   
    38   22   38 1   
    39   22   39 1   
    40   22   40 1   
@<TRIPOS>SUBSTRUCTURE
     1 42D         1 TEMP              0 ****  ****    0 ROOT
