@<TRIPOS>MOLECULE
42D
   41    41     1     0     0
SMALL
bcc


@<TRIPOS>ATOM
      1 O3         -0.6330    0.1560    0.6730 o         1 42D     -0.811300
      2 C1          0.5600    0.3910    0.3070 c         1 42D      0.907600
      3 O1          0.9370    0.5460   -0.8740 o         1 42D     -0.811300
      4 C2          1.6810    0.4810    1.3990 c3        1 42D      0.214600
      5 O2          2.9240    0.8400    0.8780 oh        1 42D     -0.580800
      6 C3          1.3530    1.3860    2.5840 c3        1 42D     -0.107400
      7 C4          0.0840    0.8980    3.2540 c3        1 42D      0.133100
      8 O4         -0.0820    1.4140    4.5620 oh        1 42D     -0.614800
      9 O6          2.0030   -0.8170    1.9610 os        1 42D     -0.436600
     10 C6          0.8610   -1.5080    2.4070 c3        1 42D      0.117100
     11 C7          1.3560   -2.7830    3.1270 c3        1 42D      0.146100
     12 C8          0.7260   -4.0250    2.4640 c3        1 42D      0.072100
     13 C9          1.2000   -5.3050    3.1560 c3        1 42D      0.094400
     14 O9          0.5190   -6.4190    2.6140 oh        1 42D     -0.603800
     15 O8         -0.6880   -3.8860    2.5770 oh        1 42D     -0.658800
     16 O7          2.7590   -2.9160    3.1330 oh        1 42D     -0.584800
     17 C5         -0.0360   -0.6550    3.3520 c3        1 42D      0.113500
     18 N5         -1.4720   -1.0450    3.0540 n4        1 42D     -0.643800
     19 C10        -2.4000   -0.5350    4.0780 c         1 42D      0.621100
     20 O10        -2.5320   -1.0210    5.1970 o         1 42D     -0.465000
     21 O11        -3.1240    0.5210    3.6320 os        1 42D     -0.384900
     22 C22        -3.9540    1.1660    4.6170 c3        1 42D      0.129700
     23 H2          2.9020    0.6460   -0.0770 ho        1 42D      0.448000
     24 H31C        1.2080    2.4360    2.2230 hc        1 42D      0.077700
     25 H32C        2.2160    1.3790    3.3010 hc        1 42D      0.077700
     26 H4         -0.7960    1.3190    2.6710 h1        1 42D      0.123700
     27 HA          0.7830    1.4420    4.9910 ho        1 42D      0.417000
     28 H5          0.1600   -0.9420    4.4290 hx        1 42D      0.097700
     29 H6          0.2640   -1.8060    1.4880 h1        1 42D      0.093700
     30 H7          1.0710   -2.7730    4.2180 h1        1 42D      0.072700
     31 H8          0.9920   -4.0580    1.3710 h1        1 42D      0.059700
     32 HB          3.1090   -2.5870    2.2920 ho        1 42D      0.439000
     33 H91C        0.9150   -5.2950    4.2430 h1        1 42D      0.073200
     34 H92C        2.3120   -5.4010    3.0560 h1        1 42D      0.073200
     35 HC         -1.0670   -4.7720    2.4830 ho        1 42D      0.443000
     36 H9          0.9060   -6.6050    1.7500 ho        1 42D      0.407000
     37 HD         -1.6960   -0.6430    2.1060 hn        1 42D      0.511300
     38 H221       -3.3120    1.5760    5.4330 h1        1 42D      0.076033
     39 H222       -4.4430    1.9780    4.0210 h1        1 42D      0.076033
     40 H223       -4.6960    0.4350    5.0190 h1        1 42D      0.076033
     41 H52        -1.5440   -2.0730    3.0220 hn        1 42D      0.511300
@<TRIPOS>BOND
     1    1    2 1   
     2    2    3 1   
     3    2    4 1   
     4    4    5 1   
     5    4    6 1   
     6    4    9 1   
     7    5   23 1   
     8    6    7 1   
     9    6   24 1   
    10    6   25 1   
    11    7    8 1   
    12    7   17 1   
    13    7   26 1   
    14    8   27 1   
    15    9   10 1   
    16   10   11 1   
    17   10   17 1   
    18   10   29 1   
    19   11   12 1   
    20   11   16 1   
    21   11   30 1   
    22   12   13 1   
    23   12   15 1   
    24   12   31 1   
    25   13   14 1   
    26   13   33 1   
    27   13   34 1   
    28   14   36 1   
    29   15   35 1   
    30   16   32 1   
    31   17   18 1   
    32   17   28 1   
    33   18   19 1   
    34   18   37 1   
    35   18   41 1   
    36   19   20 2   
    37   19   21 1   
    38   21   22 1   
    39   22   38 1   
    40   22   39 1   
    41   22   40 1   
@<TRIPOS>SUBSTRUCTURE
     1 42D         1 TEMP              0 ****  ****    0 ROOT
