@<TRIPOS>MOLECULE
42D
   40    40     1     0     0
SMALL
bcc


@<TRIPOS>ATOM
      1 O3         -2.4060   -2.7430   -1.9280 o         1 42D     -0.815300
      2 C1         -1.1490   -2.8160   -1.9390 c         1 42D      0.888600
      3 O1         -0.5290   -2.8330   -3.0350 o         1 42D     -0.815300
      4 C2         -0.3830   -2.8790   -0.6360 c3        1 42D      0.205600
      5 O2         -0.6290   -4.1620   -0.2420 oh        1 42D     -0.600800
      6 C3          1.1170   -2.6320   -0.8520 c3        1 42D     -0.102400
      7 C4          1.4310   -1.2190   -1.1750 c3        1 42D      0.102100
      8 O4          2.8810   -1.0550   -1.2050 oh        1 42D     -0.617800
      9 O6         -0.9190   -1.8620    0.3810 os        1 42D     -0.444600
     10 C6         -0.5880   -0.4760    0.0510 c3        1 42D      0.152100
     11 C7         -1.0250    0.4150    1.1970 c3        1 42D      0.124100
     12 C8         -2.5330    0.4980    1.2250 c3        1 42D      0.082100
     13 C9         -2.9590    1.6310    2.1310 c3        1 42D      0.132400
     14 O9         -4.3670    1.6690    2.2070 oh        1 42D     -0.616800
     15 O8         -3.0140    0.7320   -0.0770 oh        1 42D     -0.633800
     16 O7         -0.5620   -0.1230    2.4120 oh        1 42D     -0.577800
     17 C5          0.8640   -0.2680   -0.1900 c3        1 42D      0.070700
     18 N5          1.0680    1.1040   -0.6870 n         1 42D     -0.482900
     19 C10         2.2800    1.7870   -0.4080 c         1 42D      0.733100
     20 O10         3.1000    1.2880    0.3360 o         1 42D     -0.580000
     21 O11         2.5200    3.0510   -0.9720 os        1 42D     -0.461900
     22 C22         3.7700    3.6040   -0.6250 c3        1 42D      0.143700
     23 H2         -0.1890   -4.7250   -0.7720 ho        1 42D      0.430000
     24 H31C        1.4270   -3.1990   -1.5870 hc        1 42D      0.058200
     25 H32C        1.5980   -2.8820   -0.0380 hc        1 42D      0.058200
     26 H4          1.0710   -1.0100   -2.0580 h1        1 42D      0.084700
     27 HA          3.2160   -1.5020   -1.8980 ho        1 42D      0.400000
     28 H5          1.3410   -0.3700    0.6560 h1        1 42D      0.117700
     29 H6         -1.0800   -0.2190   -0.7520 h1        1 42D      0.075700
     30 H7         -0.6510    1.3100    1.0750 h1        1 42D      0.040700
     31 H8         -2.8990   -0.3440    1.5620 h1        1 42D      0.073700
     32 HB         -0.6910    0.4660    3.0650 ho        1 42D      0.386000
     33 H91C       -2.5870    1.4910    3.0260 h1        1 42D      0.033700
     34 H92C       -2.6290    2.4800    1.7700 h1        1 42D      0.033700
     35 HC         -3.8900    0.8790   -0.0480 ho        1 42D      0.470000
     36 H9         -4.6140    2.2160    2.8630 ho        1 42D      0.425000
     37 HD          0.4270    1.5030   -1.2000 hn        1 42D      0.305500
     38 H221        3.8850    4.4650   -1.0810 h1        1 42D      0.040700
     39 H222        4.4860    2.9910   -0.8970 h1        1 42D      0.040700
     40 H223        3.8080    3.7400    0.3470 h1        1 42D      0.040700
@<TRIPOS>BOND
     1    1    2 1   
     2    2    3 1   
     3    2    4 1   
     4    4    5 1   
     5    4    6 1   
     6    4    9 1   
     7    5   23 1   
     8    6    7 1   
     9    6   24 1   
    10    6   25 1   
    11    7    8 1   
    12    7   17 1   
    13    7   26 1   
    14    8   27 1   
    15    9   10 1   
    16   10   11 1   
    17   10   17 1   
    18   10   29 1   
    19   11   12 1   
    20   11   16 1   
    21   11   30 1   
    22   12   13 1   
    23   12   15 1   
    24   12   31 1   
    25   13   14 1   
    26   13   33 1   
    27   13   34 1   
    28   14   36 1   
    29   15   35 1   
    30   16   32 1   
    31   17   18 1   
    32   17   28 1   
    33   18   19 1   
    34   18   37 1   
    35   19   20 2   
    36   19   21 1   
    37   21   22 1   
    38   22   38 1   
    39   22   39 1   
    40   22   40 1   
@<TRIPOS>SUBSTRUCTURE
     1 42D         1 TEMP              0 ****  ****    0 ROOT
