@<TRIPOS>MOLECULE
42F
   40    42     1     0     0
SMALL
bcc


@<TRIPOS>ATOM
      1 O           0.2320    0.6170   -0.5720 o         1 42F     -0.529000
      2 C14         1.2300    0.0510   -0.1270 c         1 42F      0.651100
      3 O1          1.8520   -0.8670   -0.9390 os        1 42F     -0.451900
      4 C15         1.2730   -1.0830   -2.2250 c3        1 42F      0.126700
      5 C5          1.9220    0.1610    1.2040 c3        1 42F     -0.086700
      6 C4          1.3420   -0.9360    2.1380 c3        1 42F      0.158500
      7 C3          2.0260   -0.8410    3.5310 c3        1 42F     -0.108400
      8 C2          1.1250    0.1130    4.3230 c3        1 42F     -0.113400
      9 N          -0.0910   -0.6290    2.3530 n3        1 42F     -0.689600
     10 C          -0.8630   -1.7460    2.8390 c3        1 42F      0.144100
     11 C6          1.7950    1.5420    1.8660 c3        1 42F     -0.005400
     12 C7          0.4300    1.7510    2.5220 c3        1 42F     -0.065400
     13 C1          0.0070    0.5000    3.3120 c3        1 42F      0.154500
     14 C8          2.1840    2.6670    0.9600 ca        1 42F     -0.071300
     15 C13         3.4920    3.1670    1.0300 ca        1 42F     -0.124000
     16 C12         3.8920    4.2320    0.2270 ca        1 42F     -0.099500
     17 C11         2.9880    4.8170   -0.6610 ca        1 42F      0.023900
     18 I           3.5640    6.3660   -1.8220 i         1 42F     -0.147900
     19 C10         1.6860    4.3240   -0.7410 ca        1 42F     -0.099500
     20 C9          1.2860    3.2560    0.0620 ca        1 42F     -0.124000
     21 H1          1.9320   -1.8590   -2.6860 h1        1 42F      0.048700
     22 H2          0.2240   -1.4480   -2.1150 h1        1 42F      0.048700
     23 H3          1.2870   -0.1340   -2.8130 h1        1 42F      0.048700
     24 H4          3.0150   -0.0600    1.0430 hc        1 42F      0.082700
     25 H5          1.4820   -1.9420    1.6670 h1        1 42F      0.079700
     26 H6          2.0580   -1.8510    4.0070 hc        1 42F      0.051700
     27 H7          3.0720   -0.4650    3.4490 hc        1 42F      0.051700
     28 H8          0.6830   -0.3990    5.2110 hc        1 42F      0.050700
     29 H9          1.6760    1.0130    4.6800 hc        1 42F      0.050700
     30 H11        -0.4850   -2.1750    3.8070 h1        1 42F      0.035700
     31 H12        -0.8490   -2.5540    2.0610 h1        1 42F      0.035700
     32 H13        -1.9210   -1.4060    2.9860 h1        1 42F      0.035700
     33 H14         2.5560    1.5330    2.7080 hc        1 42F      0.053700
     34 H15         0.4840    2.6230    3.2210 hc        1 42F      0.062200
     35 H16        -0.3440    1.9700    1.7410 hc        1 42F      0.062200
     36 H17        -0.9730    0.6800    3.8230 h1        1 42F      0.070700
     37 H18         4.2150    2.7180    1.7280 ha        1 42F      0.149000
     38 H19         4.9250    4.6060    0.3000 ha        1 42F      0.144000
     39 H20         0.9610    4.7690   -1.4400 ha        1 42F      0.144000
     40 H21         0.2610    2.8600   -0.0340 ha        1 42F      0.149000
@<TRIPOS>BOND
     1    1    2 2   
     2    2    3 1   
     3    2    5 1   
     4    3    4 1   
     5    4   21 1   
     6    4   22 1   
     7    4   23 1   
     8    5    6 1   
     9    5   11 1   
    10    5   24 1   
    11    6    7 1   
    12    6    9 1   
    13    6   25 1   
    14    7    8 1   
    15    7   26 1   
    16    7   27 1   
    17    8   13 1   
    18    8   28 1   
    19    8   29 1   
    20    9   10 1   
    21    9   13 1   
    22   10   30 1   
    23   10   31 1   
    24   10   32 1   
    25   11   12 1   
    26   11   14 1   
    27   11   33 1   
    28   12   13 1   
    29   12   34 1   
    30   12   35 1   
    31   13   36 1   
    32   14   15 ar  
    33   14   20 ar  
    34   15   16 ar  
    35   15   37 1   
    36   16   17 ar  
    37   16   38 1   
    38   17   18 1   
    39   17   19 ar  
    40   19   20 ar  
    41   19   39 1   
    42   20   40 1   
@<TRIPOS>SUBSTRUCTURE
     1 42F         1 TEMP              0 ****  ****    0 ROOT
