@<TRIPOS>MOLECULE
42F
   40    42     1     0     0
SMALL
bcc


@<TRIPOS>ATOM
      1 O           0.2230    0.6120   -0.5650 o         1 42F     -0.529000
      2 C14         1.2280    0.0520   -0.1280 c         1 42F      0.651100
      3 O1          1.8510   -0.8600   -0.9440 os        1 42F     -0.451900
      4 C15         1.2660   -1.0790   -2.2270 c3        1 42F      0.126700
      5 C5          1.9270    0.1650    1.2000 c3        1 42F     -0.086700
      6 C4          1.3600   -0.9370    2.1350 c3        1 42F      0.158500
      7 C3          2.0520   -0.8400    3.5250 c3        1 42F     -0.108400
      8 C2          1.1480    0.1060    4.3230 c3        1 42F     -0.113400
      9 N          -0.0740   -0.6410    2.3600 n3        1 42F     -0.689600
     10 C          -0.8340   -1.7650    2.8480 c3        1 42F      0.144100
     11 C6          1.7940    1.5440    1.8650 c3        1 42F     -0.005400
     12 C7          0.4310    1.7420    2.5290 c3        1 42F     -0.065400
     13 C1          0.0220    0.4870    3.3190 c3        1 42F      0.154500
     14 C8          2.1690    2.6740    0.9580 ca        1 42F     -0.071300
     15 C13         3.4740    3.1830    1.0220 ca        1 42F     -0.124000
     16 C12         3.8620    4.2520    0.2170 ca        1 42F     -0.099500
     17 C11         2.9480    4.8310   -0.6640 ca        1 42F      0.023900
     18 I           3.5060    6.3870   -1.8260 i         1 42F     -0.147900
     19 C10         1.6490    4.3290   -0.7370 ca        1 42F     -0.099500
     20 C9          1.2620    3.2570    0.0670 ca        1 42F     -0.124000
     21 H1          1.9270   -1.8500   -2.6930 h1        1 42F      0.048700
     22 H2          0.2200   -1.4520   -2.1120 h1        1 42F      0.048700
     23 H3          1.2700   -0.1290   -2.8140 h1        1 42F      0.048700
     24 H4          3.0200   -0.0470    1.0320 hc        1 42F      0.082700
     25 H5          1.5050   -1.9420    1.6620 h1        1 42F      0.079700
     26 H6          2.0940   -1.8500    3.9990 hc        1 42F      0.051700
     27 H7          3.0940   -0.4560    3.4370 hc        1 42F      0.051700
     28 H8          1.6950    1.0100    4.6780 hc        1 42F      0.050700
     29 H9          0.7160   -0.4100    5.2130 hc        1 42F      0.050700
     30 H11        -0.4480   -2.1920    3.8140 h1        1 42F      0.035700
     31 H12        -1.8950   -1.4330    3.0020 h1        1 42F      0.035700
     32 H13        -0.8190   -2.5720    2.0690 h1        1 42F      0.035700
     33 H14         2.5590    1.5400    2.7020 hc        1 42F      0.053700
     34 H15        -0.3490    1.9560    1.7520 hc        1 42F      0.062200
     35 H16         0.4820    2.6140    3.2280 hc        1 42F      0.062200
     36 H17        -0.9560    0.6590    3.8370 h1        1 42F      0.070700
     37 H18         4.2050    2.7370    1.7140 ha        1 42F      0.149000
     38 H19         4.8930    4.6330    0.2850 ha        1 42F      0.144000
     39 H20         0.9160    4.7700   -1.4320 ha        1 42F      0.144000
     40 H21         0.2390    2.8540   -0.0240 ha        1 42F      0.149000
@<TRIPOS>BOND
     1    1    2 2   
     2    2    3 1   
     3    2    5 1   
     4    3    4 1   
     5    4   21 1   
     6    4   22 1   
     7    4   23 1   
     8    5    6 1   
     9    5   11 1   
    10    5   24 1   
    11    6    7 1   
    12    6    9 1   
    13    6   25 1   
    14    7    8 1   
    15    7   26 1   
    16    7   27 1   
    17    8   13 1   
    18    8   28 1   
    19    8   29 1   
    20    9   10 1   
    21    9   13 1   
    22   10   30 1   
    23   10   31 1   
    24   10   32 1   
    25   11   12 1   
    26   11   14 1   
    27   11   33 1   
    28   12   13 1   
    29   12   34 1   
    30   12   35 1   
    31   13   36 1   
    32   14   15 ar  
    33   14   20 ar  
    34   15   16 ar  
    35   15   37 1   
    36   16   17 ar  
    37   16   38 1   
    38   17   18 1   
    39   17   19 ar  
    40   19   20 ar  
    41   19   39 1   
    42   20   40 1   
@<TRIPOS>SUBSTRUCTURE
     1 42F         1 TEMP              0 ****  ****    0 ROOT
