@<TRIPOS>MOLECULE
42H
   87    86     1     0     0
SMALL
bcc


@<TRIPOS>ATOM
      1 O6         -1.4440    0.8420    0.8420 o         1 42H     -0.543000
      2 C8         -0.2320    1.0680    0.8170 c         1 42H      0.632100
      3 O5          0.4600    1.0600    1.9950 os        1 42H     -0.444900
      4 C7         -0.3040    0.8370    3.1930 c3        1 42H      0.134400
      5 C           0.6430    1.1380    4.3560 c3        1 42H      0.140100
      6 C1          0.4890    0.0790    5.4500 c3        1 42H      0.132400
      7 O1          1.2300    0.5020    6.5670 os        1 42H     -0.583200
      8 P           1.2180   -0.5810    7.7890 p5        1 42H      1.439800
      9 O4          0.0210   -1.4190    7.7350 o         1 42H     -0.816000
     10 O3          2.5350   -1.4490    7.2140 os        1 42H     -0.573200
     11 C2          3.3440   -2.0420    8.1600 c3        1 42H      0.199400
     12 C3          4.8040   -1.5710    8.0090 c3        1 42H      0.091800
     13 N           5.1510   -0.2040    8.5400 n4        1 42H     -0.581800
     14 C6          6.6360   -0.0540    8.4670 c3        1 42H      0.079100
     15 C5          4.5250    0.8660    7.7080 c3        1 42H      0.079100
     16 C4          4.7240   -0.0510    9.9610 c3        1 42H      0.079100
     17 O2          1.8480    0.0930    8.9490 o         1 42H     -0.816000
     18 O           0.3080    2.4330    4.8340 oh        1 42H     -0.610800
     19 C9          0.6410    1.3790   -0.3600 c3        1 42H     -0.127400
     20 C10         0.1990    0.6090   -1.5850 c3        1 42H     -0.079400
     21 C11         0.9840    1.0410   -2.8050 c3        1 42H     -0.078400
     22 C12         0.5590    0.2590   -4.0300 c3        1 42H     -0.079400
     23 C13         1.3330    0.6980   -5.2550 c3        1 42H     -0.079400
     24 C14         0.9110   -0.0860   -6.4790 c3        1 42H     -0.077400
     25 C15         1.6810    0.3580   -7.7050 c3        1 42H     -0.049200
     26 C16         1.2870   -0.3950   -8.9190 c2        1 42H     -0.174200
     27 C17         1.7870   -0.1540  -10.1370 c2        1 42H     -0.174200
     28 C18         2.7930    0.8960  -10.4200 c3        1 42H     -0.049200
     29 C19         3.2070    0.9170  -11.8770 c3        1 42H     -0.077400
     30 C20         4.2340    1.9980  -12.1380 c3        1 42H     -0.079400
     31 C21         4.6470    2.0220  -13.5940 c3        1 42H     -0.079400
     32 C22         5.6750    3.1030  -13.8550 c3        1 42H     -0.079400
     33 C23         6.0880    3.1280  -15.3110 c3        1 42H     -0.079400
     34 C24         7.1150    4.2090  -15.5740 c3        1 42H     -0.080400
     35 C25         7.5290    4.2370  -17.0230 c3        1 42H     -0.092100
     36 H1         -0.6420   -0.2310    3.1990 h1        1 42H      0.069200
     37 H2         -1.1920    1.5210    3.2050 h1        1 42H      0.069200
     38 H3          1.7110    1.1570    3.9970 h1        1 42H      0.051700
     39 H4          0.8890   -0.9110    5.1030 h1        1 42H      0.054200
     40 H5         -0.5860   -0.0420    5.7590 h1        1 42H      0.054200
     41 H6          3.3830   -3.1550    7.9620 h1        1 42H      0.054200
     42 H7          2.9680   -1.8570    9.2050 h1        1 42H      0.054200
     43 H8          5.4640   -2.3060    8.5500 hx        1 42H      0.080200
     44 H9          5.0540   -1.5690    6.9110 hx        1 42H      0.080200
     45 H10         6.9760   -0.2220    7.4120 hx        1 42H      0.100144
     46 H11         7.1230   -0.8020    9.1440 hx        1 42H      0.100144
     47 H12         6.9210    0.9820    8.7890 hx        1 42H      0.100144
     48 H13         3.3960    0.7640    7.7680 hx        1 42H      0.100144
     49 H14         4.8570    0.7490    6.6450 hx        1 42H      0.100144
     50 H15         4.8310    1.8660    8.1080 hx        1 42H      0.100144
     51 H16         5.0380   -0.9570   10.5380 hx        1 42H      0.100144
     52 H17         3.5980    0.0740   10.0140 hx        1 42H      0.100144
     53 H18         5.2100    0.8640   10.3900 hx        1 42H      0.100144
     54 H20         0.6540    2.4970    5.7350 ho        1 42H      0.424000
     55 H21         0.5680    2.4850   -0.5450 hc        1 42H      0.075700
     56 H22         1.7090    1.1440   -0.1090 hc        1 42H      0.075700
     57 H23         0.3420   -0.4900   -1.4110 hc        1 42H      0.057700
     58 H24        -0.8990    0.7760   -1.7550 hc        1 42H      0.057700
     59 H25         2.0800    0.8890   -2.6220 hc        1 42H      0.039700
     60 H26         0.8270    2.1370   -2.9860 hc        1 42H      0.039700
     61 H27        -0.5390    0.4040   -4.2060 hc        1 42H      0.043200
     62 H28         0.7240   -0.8370   -3.8530 hc        1 42H      0.043200
     63 H29         2.4320    0.5550   -5.0770 hc        1 42H      0.039200
     64 H30         1.1660    1.7920   -5.4330 hc        1 42H      0.039200
     65 H31        -0.1890    0.0520   -6.6540 hc        1 42H      0.042700
     66 H32         1.0820   -1.1810   -6.3030 hc        1 42H      0.042700
     67 H33         2.7830    0.2250   -7.5260 hc        1 42H      0.047200
     68 H34         1.5140    1.4580   -7.8760 hc        1 42H      0.047200
     69 H35         0.5390   -1.1900   -8.7730 ha        1 42H      0.122000
     70 H36         1.4540   -0.7510  -11.0020 ha        1 42H      0.122000
     71 H37         3.6990    0.7300   -9.7740 hc        1 42H      0.047200
     72 H38         2.3740    1.9000  -10.1340 hc        1 42H      0.047200
     73 H39         2.3050    1.0910  -12.5220 hc        1 42H      0.041700
     74 H40         3.6300   -0.0820  -12.1630 hc        1 42H      0.041700
     75 H41         3.8110    2.9970  -11.8510 hc        1 42H      0.039200
     76 H42         5.1360    1.8240  -11.4940 hc        1 42H      0.039200
     77 H43         3.7460    2.1970  -14.2380 hc        1 42H      0.039700
     78 H44         5.0710    1.0240  -13.8810 hc        1 42H      0.039700
     79 H45         5.2510    4.1020  -13.5670 hc        1 42H      0.039200
     80 H46         6.5770    2.9290  -13.2110 hc        1 42H      0.039200
     81 H47         6.5110    2.1300  -15.6000 hc        1 42H      0.039700
     82 H48         5.1860    3.3030  -15.9550 hc        1 42H      0.039700
     83 H49         6.6910    5.2060  -15.2840 hc        1 42H      0.038200
     84 H50         8.0150    4.0330  -14.9280 hc        1 42H      0.038200
     85 H51         6.6480    4.4360  -17.6810 hc        1 42H      0.032700
     86 H52         8.2860    5.0400  -17.1950 hc        1 42H      0.032700
     87 H53         7.9760    3.2600  -17.3250 hc        1 42H      0.032700
@<TRIPOS>BOND
     1    1    2 2   
     2    2    3 1   
     3    2   19 1   
     4    3    4 1   
     5    4    5 1   
     6    4   36 1   
     7    4   37 1   
     8    5    6 1   
     9    5   18 1   
    10    5   38 1   
    11    6    7 1   
    12    6   39 1   
    13    6   40 1   
    14    7    8 1   
    15    8    9 1   
    16    8   10 1   
    17    8   17 1   
    18   10   11 1   
    19   11   12 1   
    20   11   41 1   
    21   11   42 1   
    22   12   13 1   
    23   12   43 1   
    24   12   44 1   
    25   13   14 1   
    26   13   15 1   
    27   13   16 1   
    28   14   45 1   
    29   14   46 1   
    30   14   47 1   
    31   15   48 1   
    32   15   49 1   
    33   15   50 1   
    34   16   51 1   
    35   16   52 1   
    36   16   53 1   
    37   18   54 1   
    38   19   20 1   
    39   19   55 1   
    40   19   56 1   
    41   20   21 1   
    42   20   57 1   
    43   20   58 1   
    44   21   22 1   
    45   21   59 1   
    46   21   60 1   
    47   22   23 1   
    48   22   61 1   
    49   22   62 1   
    50   23   24 1   
    51   23   63 1   
    52   23   64 1   
    53   24   25 1   
    54   24   65 1   
    55   24   66 1   
    56   25   26 1   
    57   25   67 1   
    58   25   68 1   
    59   26   27 2   
    60   26   69 1   
    61   27   28 1   
    62   27   70 1   
    63   28   29 1   
    64   28   71 1   
    65   28   72 1   
    66   29   30 1   
    67   29   73 1   
    68   29   74 1   
    69   30   31 1   
    70   30   75 1   
    71   30   76 1   
    72   31   32 1   
    73   31   77 1   
    74   31   78 1   
    75   32   33 1   
    76   32   79 1   
    77   32   80 1   
    78   33   34 1   
    79   33   81 1   
    80   33   82 1   
    81   34   35 1   
    82   34   83 1   
    83   34   84 1   
    84   35   85 1   
    85   35   86 1   
    86   35   87 1   
@<TRIPOS>SUBSTRUCTURE
     1 42H         1 TEMP              0 ****  ****    0 ROOT
