@<TRIPOS>MOLECULE
42H
   87    86     1     0     0
SMALL
bcc


@<TRIPOS>ATOM
      1 O6         -1.5090    0.8740    0.8590 o         1 42H     -0.543000
      2 C8         -0.3010    1.1180    0.8300 c         1 42H      0.632100
      3 O5          0.3960    1.1120    2.0050 os        1 42H     -0.444900
      4 C7         -0.3600    0.8690    3.2050 c3        1 42H      0.134400
      5 C           0.5920    1.1600    4.3660 c3        1 42H      0.140100
      6 C1          0.4640    0.0760    5.4400 c3        1 42H      0.132400
      7 O1          1.2120    0.4860    6.5570 os        1 42H     -0.583200
      8 P           1.2310   -0.6240    7.7550 p5        1 42H      1.439800
      9 O4          0.0430   -1.4750    7.6990 o         1 42H     -0.816000
     10 O3          2.5500   -1.4620    7.1420 os        1 42H     -0.573200
     11 C2          3.3810   -2.0640    8.0630 c3        1 42H      0.199400
     12 C3          4.8320   -1.5710    7.9010 c3        1 42H      0.091800
     13 N           5.1700   -0.2120    8.4560 n4        1 42H     -0.581800
     14 C6          6.6510   -0.0400    8.3640 c3        1 42H      0.079100
     15 C5          4.5180    0.8680    7.6570 c3        1 42H      0.079100
     16 C4          4.7630   -0.0950    9.8870 c3        1 42H      0.079100
     17 O2          1.8700    0.0330    8.9210 o         1 42H     -0.816000
     18 O           0.2410    2.4390    4.8740 oh        1 42H     -0.610800
     19 C9          0.5620    1.4490   -0.3480 c3        1 42H     -0.127400
     20 C10         0.1500    0.6500   -1.5660 c3        1 42H     -0.079400
     21 C11         0.9240    1.0950   -2.7880 c3        1 42H     -0.078400
     22 C12         0.5320    0.2840   -4.0050 c3        1 42H     -0.079400
     23 C13         1.2980    0.7320   -5.2320 c3        1 42H     -0.079400
     24 C14         0.9090   -0.0820   -6.4470 c3        1 42H     -0.077400
     25 C15         1.6730    0.3700   -7.6750 c3        1 42H     -0.049200
     26 C16         1.3140   -0.4130   -8.8800 c2        1 42H     -0.174200
     27 C17         1.8280   -0.1850  -10.0940 c2        1 42H     -0.174200
     28 C18         2.8170    0.8800  -10.3820 c3        1 42H     -0.049200
     29 C19         3.2480    0.8870  -11.8340 c3        1 42H     -0.077400
     30 C20         4.2580    1.9840  -12.0990 c3        1 42H     -0.079400
     31 C21         4.6890    1.9930  -13.5490 c3        1 42H     -0.079400
     32 C22         5.6980    3.0900  -13.8150 c3        1 42H     -0.079400
     33 C23         6.1300    3.1000  -15.2660 c3        1 42H     -0.079400
     34 C24         7.1380    4.1970  -15.5330 c3        1 42H     -0.080400
     35 C25         7.5710    4.2100  -16.9760 c3        1 42H     -0.092100
     36 H1         -0.6920   -0.2010    3.1990 h1        1 42H      0.069200
     37 H2         -1.2520    1.5470    3.2310 h1        1 42H      0.069200
     38 H3          1.6570    1.2030    3.9990 h1        1 42H      0.051700
     39 H4         -0.6050   -0.0650    5.7570 h1        1 42H      0.054200
     40 H5          0.8740   -0.9010    5.0680 h1        1 42H      0.054200
     41 H6          3.4310   -3.1720    7.8400 h1        1 42H      0.054200
     42 H7          3.0180   -1.9070    9.1170 h1        1 42H      0.054200
     43 H8          5.5090   -2.3080    8.4160 hx        1 42H      0.080200
     44 H9          5.0660   -1.5420    6.7990 hx        1 42H      0.080200
     45 H10         6.9780   -0.1810    7.3010 hx        1 42H      0.100144
     46 H11         7.1580   -0.7970    9.0180 hx        1 42H      0.100144
     47 H12         6.9280    0.9920    8.7050 hx        1 42H      0.100144
     48 H13         3.3910    0.7500    7.7320 hx        1 42H      0.100144
     49 H14         4.8170    1.8630    8.0740 hx        1 42H      0.100144
     50 H15         4.8350    0.7780    6.5870 hx        1 42H      0.100144
     51 H16         3.6360    0.0140    9.9590 hx        1 42H      0.100144
     52 H17         5.2420    0.8170   10.3280 hx        1 42H      0.100144
     53 H18         5.0970   -1.0090   10.4390 hx        1 42H      0.100144
     54 H20         0.5950    2.4900    5.7730 ho        1 42H      0.424000
     55 H21         0.4490    2.5490   -0.5450 hc        1 42H      0.075700
     56 H22         1.6370    1.2560   -0.0940 hc        1 42H      0.075700
     57 H23        -0.9520    0.7790   -1.7400 hc        1 42H      0.057700
     58 H24         0.3300   -0.4410   -1.3790 hc        1 42H      0.057700
     59 H25         0.7300    2.1830   -2.9830 hc        1 42H      0.039700
     60 H26         2.0240    0.9840   -2.6000 hc        1 42H      0.039700
     61 H27        -0.5700    0.3910   -4.1890 hc        1 42H      0.043200
     62 H28         0.7320   -0.8030   -3.8130 hc        1 42H      0.043200
     63 H29         1.0950    1.8180   -5.4260 hc        1 42H      0.039200
     64 H30         2.3990    0.6300   -5.0460 hc        1 42H      0.039200
     65 H31        -0.1930    0.0190   -6.6320 hc        1 42H      0.042700
     66 H32         1.1150   -1.1680   -6.2540 hc        1 42H      0.042700
     67 H33         2.7790    0.2760   -7.4850 hc        1 42H      0.047200
     68 H34         1.4710    1.4600   -7.8630 hc        1 42H      0.047200
     69 H35         0.5800   -1.2210   -8.7300 ha        1 42H      0.122000
     70 H36         1.5210   -0.8040  -10.9530 ha        1 42H      0.122000
     71 H37         2.3760    1.8800  -10.1160 hc        1 42H      0.047200
     72 H38         3.7180    0.7410   -9.7220 hc        1 42H      0.047200
     73 H39         3.6950   -0.1070  -12.0990 hc        1 42H      0.041700
     74 H40         2.3520    1.0340  -12.4920 hc        1 42H      0.041700
     75 H41         5.1540    1.8370  -11.4400 hc        1 42H      0.039200
     76 H42         3.8110    2.9780  -11.8320 hc        1 42H      0.039200
     77 H43         5.1360    0.9990  -13.8150 hc        1 42H      0.039700
     78 H44         3.7930    2.1390  -14.2080 hc        1 42H      0.039700
     79 H45         6.5950    2.9440  -13.1570 hc        1 42H      0.039200
     80 H46         5.2510    4.0840  -13.5490 hc        1 42H      0.039200
     81 H47         5.2330    3.2460  -15.9240 hc        1 42H      0.039700
     82 H48         6.5770    2.1060  -15.5320 hc        1 42H      0.039700
     83 H49         6.6900    5.1900  -15.2650 hc        1 42H      0.038200
     84 H50         8.0340    4.0500  -14.8730 hc        1 42H      0.038200
     85 H51         8.0430    3.2370  -17.2560 hc        1 42H      0.032700
     86 H52         6.6960    4.3800  -17.6490 hc        1 42H      0.032700
     87 H53         8.3140    5.0260  -17.1520 hc        1 42H      0.032700
@<TRIPOS>BOND
     1    1    2 2   
     2    2    3 1   
     3    2   19 1   
     4    3    4 1   
     5    4    5 1   
     6    4   36 1   
     7    4   37 1   
     8    5    6 1   
     9    5   18 1   
    10    5   38 1   
    11    6    7 1   
    12    6   39 1   
    13    6   40 1   
    14    7    8 1   
    15    8    9 1   
    16    8   10 1   
    17    8   17 1   
    18   10   11 1   
    19   11   12 1   
    20   11   41 1   
    21   11   42 1   
    22   12   13 1   
    23   12   43 1   
    24   12   44 1   
    25   13   14 1   
    26   13   15 1   
    27   13   16 1   
    28   14   45 1   
    29   14   46 1   
    30   14   47 1   
    31   15   48 1   
    32   15   49 1   
    33   15   50 1   
    34   16   51 1   
    35   16   52 1   
    36   16   53 1   
    37   18   54 1   
    38   19   20 1   
    39   19   55 1   
    40   19   56 1   
    41   20   21 1   
    42   20   57 1   
    43   20   58 1   
    44   21   22 1   
    45   21   59 1   
    46   21   60 1   
    47   22   23 1   
    48   22   61 1   
    49   22   62 1   
    50   23   24 1   
    51   23   63 1   
    52   23   64 1   
    53   24   25 1   
    54   24   65 1   
    55   24   66 1   
    56   25   26 1   
    57   25   67 1   
    58   25   68 1   
    59   26   27 2   
    60   26   69 1   
    61   27   28 1   
    62   27   70 1   
    63   28   29 1   
    64   28   71 1   
    65   28   72 1   
    66   29   30 1   
    67   29   73 1   
    68   29   74 1   
    69   30   31 1   
    70   30   75 1   
    71   30   76 1   
    72   31   32 1   
    73   31   77 1   
    74   31   78 1   
    75   32   33 1   
    76   32   79 1   
    77   32   80 1   
    78   33   34 1   
    79   33   81 1   
    80   33   82 1   
    81   34   35 1   
    82   34   83 1   
    83   34   84 1   
    84   35   85 1   
    85   35   86 1   
    86   35   87 1   
@<TRIPOS>SUBSTRUCTURE
     1 42H         1 TEMP              0 ****  ****    0 ROOT
