@<TRIPOS>MOLECULE
42J
   21    21     1     0     0
SMALL
bcc


@<TRIPOS>ATOM
      1 CL1         0.0550   -0.1670   -0.0840 cl        1 42J     -0.029400
      2 C6          1.7410   -0.0780   -0.0080 ca        1 42J      0.019400
      3 C5          2.4130   -0.0100    1.2260 ca        1 42J      0.039400
      4 CL          1.5620   -0.0160    2.6830 cl        1 42J     -0.018400
      5 C4          3.8110    0.0680    1.2490 ca        1 42J     -0.107000
      6 C3          4.5350    0.0710    0.0600 ca        1 42J     -0.104000
      7 C7          2.4740   -0.0700   -1.1990 ca        1 42J     -0.111000
      8 C2          3.8690   -0.0010   -1.1680 ca        1 42J     -0.127300
      9 C1          4.6370    0.0260   -2.4430 c3        1 42J     -0.047100
     10 C           4.7500   -1.4010   -2.9780 c3        1 42J      0.095800
     11 N           5.4770   -1.4730   -4.2810 n4        1 42J     -0.839600
     12 H1          4.3400    0.1310    2.2150 ha        1 42J      0.171000
     13 H2          5.6330    0.1440    0.0960 ha        1 42J      0.143000
     14 H3          1.9420   -0.1050   -2.1630 ha        1 42J      0.146000
     15 H4          4.1080    0.6820   -3.1870 hc        1 42J      0.075200
     16 H5          5.6590    0.4590   -2.2680 hc        1 42J      0.075200
     17 H6          5.3050   -2.0480   -2.2380 hx        1 42J      0.118200
     18 H7          3.7180   -1.8330   -3.1340 hx        1 42J      0.118200
     19 H8          5.5270   -2.4450   -4.6030 hn        1 42J      0.461467
     20 H9          4.9900   -0.9110   -4.9880 hn        1 42J      0.461467
     21 HN3         6.4280   -1.1060   -4.1740 hn        1 42J      0.461467
@<TRIPOS>BOND
     1    1    2 1   
     2    2    3 ar  
     3    2    7 ar  
     4    3    4 1   
     5    3    5 ar  
     6    5    6 ar  
     7    5   12 1   
     8    6    8 ar  
     9    6   13 1   
    10    7    8 ar  
    11    7   14 1   
    12    8    9 1   
    13    9   10 1   
    14    9   15 1   
    15    9   16 1   
    16   10   11 1   
    17   10   17 1   
    18   10   18 1   
    19   11   19 1   
    20   11   20 1   
    21   11   21 1   
@<TRIPOS>SUBSTRUCTURE
     1 42J         1 TEMP              0 ****  ****    0 ROOT
