@<TRIPOS>MOLECULE
42J
   21    21     1     0     0
SMALL
bcc


@<TRIPOS>ATOM
      1 Cl1         0.0530   -0.1640   -0.0890 cl        1 42J     -0.029400
      2 C6          1.7400   -0.0740   -0.0110 ca        1 42J      0.019400
      3 C5          2.4100   -0.0020    1.2230 ca        1 42J      0.039400
      4 Cl          1.5570   -0.0040    2.6790 cl        1 42J     -0.018400
      5 C4          3.8080    0.0770    1.2470 ca        1 42J     -0.107000
      6 C3          4.5330    0.0770    0.0590 ca        1 42J     -0.104000
      7 C7          2.4730   -0.0700   -1.2020 ca        1 42J     -0.111000
      8 C2          3.8690    0.0000   -1.1690 ca        1 42J     -0.127300
      9 C1          4.6370    0.0240   -2.4440 c3        1 42J     -0.047100
     10 C           4.7520   -1.4060   -2.9740 c3        1 42J      0.095800
     11 N           5.4800   -1.4810   -4.2760 nz        1 42J     -0.839600
     12 H1          4.3360    0.1430    2.2130 ha        1 42J      0.171000
     13 H2          5.6310    0.1500    0.0960 ha        1 42J      0.143000
     14 H3          1.9420   -0.1080   -2.1660 ha        1 42J      0.146000
     15 H4          5.6590    0.4570   -2.2690 hc        1 42J      0.075200
     16 H5          4.1090    0.6760   -3.1910 hc        1 42J      0.075200
     17 H6          5.3060   -2.0490   -2.2310 hx        1 42J      0.118200
     18 H7          3.7200   -1.8390   -3.1300 hx        1 42J      0.118200
     19 H8          6.4310   -1.1140   -4.1700 hn        1 42J      0.461467
     20 H9          4.9940   -0.9220   -4.9850 hn        1 42J      0.461467
     21 HN3         5.5310   -2.4540   -4.5950 hn        1 42J      0.461467
@<TRIPOS>BOND
     1    1    2 1   
     2    2    3 ar  
     3    2    7 ar  
     4    3    4 1   
     5    3    5 ar  
     6    5    6 ar  
     7    5   12 1   
     8    6    8 ar  
     9    6   13 1   
    10    7    8 ar  
    11    7   14 1   
    12    8    9 1   
    13    9   10 1   
    14    9   15 1   
    15    9   16 1   
    16   10   11 1   
    17   10   17 1   
    18   10   18 1   
    19   11   19 1   
    20   11   20 1   
    21   11   21 1   
@<TRIPOS>SUBSTRUCTURE
     1 42J         1 TEMP              0 ****  ****    0 ROOT
