@<TRIPOS>MOLECULE
42K
   37    40     1     0     0
SMALL
bcc


@<TRIPOS>ATOM
      1 N1         -0.0880   -0.0710   -0.0450 n         1 42K     -0.456100
      2 N2         -0.8440    0.1800    5.4080 na        1 42K     -0.047100
      3 N3          0.4640    0.1860    5.7220 nc        1 42K     -0.106400
      4 N4          1.2070    0.1350    4.6970 nd        1 42K     -0.224400
      5 N6          4.0870   -0.0710    0.9580 nh        1 42K     -0.412700
      6 N7          9.9810    1.6450    2.8700 n4        1 42K     -0.779500
      7 OAC        10.5270   -0.6040    1.7650 o         1 42K     -0.581300
      8 OAD         9.8090   -0.6180    4.0570 o         1 42K     -0.581300
      9 CAE         6.4540   -0.1490    0.4680 ca        1 42K     -0.210500
     10 CAF         5.7240   -0.1020    2.8120 ca        1 42K     -0.210500
     11 CAG         7.7570   -0.1810    0.8910 ca        1 42K      0.048000
     12 CAH         7.0370   -0.1370    3.2000 ca        1 42K      0.048000
     13 CAI        -2.0900    0.0820    3.1420 ca        1 42K     -0.061000
     14 CAJ        -1.8460    0.0190    1.7720 ca        1 42K     -0.129000
     15 CAQ         5.3840   -0.1060    1.4220 ca        1 42K      0.328600
     16 CAR         8.1130   -0.1700    2.2670 ca        1 42K     -0.659500
     17 CAS         1.3080   -0.0840   -0.0930 c         1 42K      0.597200
     18 CAT         1.8220   -0.0270    1.3530 cc        1 42K      0.393900
     19 CAU        -0.9970    0.1150    4.0110 ca        1 42K     -0.101200
     20 CAV        -0.5240   -0.0100    1.2960 ca        1 42K      0.063600
     21 CAW         0.3810    0.0860    3.5370 ca        1 42K      0.094400
     22 CAX         0.6070    0.0220    2.1750 ca        1 42K     -0.133900
     23 SAY         9.6020   -0.2820    2.7360 sy        1 42K      1.518200
     24 HN1        -0.6880   -0.1070   -0.8300 hn        1 42K      0.363500
     25 HN6         3.9420   -0.1090   -0.0450 hn        1 42K      0.479800
     26 HN7         9.1740    2.2060    2.6260 hn        1 42K      0.445133
     27 HN7A       10.2580    1.8800    3.8180 hn        1 42K      0.445133
     28 HAE         6.2310   -0.1680   -0.6130 ha        1 42K      0.186500
     29 HAF         4.9280   -0.0810    3.5790 ha        1 42K      0.186500
     30 HAG         8.5680   -0.2350    0.1380 ha        1 42K      0.165500
     31 HAH         7.2780   -0.1600    4.2810 ha        1 42K      0.165500
     32 HAI        -3.1220    0.1040    3.5220 ha        1 42K      0.163000
     33 HAJ        -2.6910   -0.0070    1.0680 ha        1 42K      0.162000
     34 HN2        -1.5560    0.2070    6.1000 hn        1 42K      0.344700
     35 N5          3.0470   -0.0250    1.8000 n2        1 42K     -0.347400
     36 OAB         2.0150   -0.1310   -1.1080 o         1 42K     -0.603500
     37 H73        10.7440    1.8940    2.2480 hn        1 42K      0.445133
@<TRIPOS>BOND
     1    1   17 1   
     2    1   20 1   
     3    1   24 1   
     4    2    3 1   
     5    2   19 1   
     6    2   34 1   
     7    3    4 2   
     8    4   21 1   
     9    5   15 1   
    10    5   25 1   
    11    5   35 1   
    12    6   23 1   
    13    6   26 1   
    14    6   27 1   
    15    6   37 1   
    16    7   23 2   
    17    8   23 2   
    18    9   11 ar  
    19    9   15 ar  
    20    9   28 1   
    21   10   12 ar  
    22   10   15 ar  
    23   10   29 1   
    24   11   16 ar  
    25   11   30 1   
    26   12   16 ar  
    27   12   31 1   
    28   13   14 ar  
    29   13   19 ar  
    30   13   32 1   
    31   14   20 ar  
    32   14   33 1   
    33   16   23 1   
    34   17   18 1   
    35   17   36 2   
    36   18   22 1   
    37   18   35 2   
    38   19   21 ar  
    39   20   22 ar  
    40   21   22 ar  
@<TRIPOS>SUBSTRUCTURE
     1 42K         1 TEMP              0 ****  ****    0 ROOT
