@<TRIPOS>MOLECULE
42K
   36    39     1     0     0
SMALL
bcc


@<TRIPOS>ATOM
      1 N1         -4.0530   -2.4420   -0.0170 n         1 42K     -0.466100
      2 N2         -4.9200    2.9950   -0.0250 na        1 42K     -0.066100
      3 N3         -3.6150    3.3370   -0.0250 nc        1 42K     -0.124400
      4 N4         -2.8540    2.3290   -0.0240 nd        1 42K     -0.206400
      5 N6          0.0920   -1.3450   -0.0130 nh        1 42K     -0.436700
      6 N7          6.0630    0.7510   -1.4570 n3        1 42K     -1.026700
      7 OAC         6.5010   -0.5300    0.5940 o         1 42K     -0.660300
      8 OAD         5.7650    1.7660    0.7600 o         1 42K     -0.660300
      9 CAE         2.4740   -1.7940    0.0010 ca        1 42K     -0.190000
     10 CAF         1.7230    0.5260    0.0630 ca        1 42K     -0.190000
     11 CAG         3.7880   -1.3540    0.0180 ca        1 42K      0.008500
     12 CAH         3.0510    0.9320    0.0810 ca        1 42K      0.008500
     13 CAI        -6.1180    0.7060   -0.0180 ca        1 42K     -0.099000
     14 CAJ        -5.8450   -0.6600   -0.0160 ca        1 42K     -0.127000
     15 CAQ         1.4170   -0.8510    0.0170 ca        1 42K      0.229600
     16 CAR         4.1040    0.0100    0.0500 ca        1 42K     -0.417500
     17 CAS        -2.6490   -2.4580   -0.0160 c         1 42K      0.606200
     18 CAT        -2.1710   -1.0170   -0.0150 cc        1 42K      0.279900
     19 CAU        -5.0430    1.5940   -0.0200 ca        1 42K     -0.093200
     20 CAV        -4.5160   -1.1100   -0.0160 ca        1 42K      0.034600
     21 CAW        -3.6550    1.1470   -0.0200 ca        1 42K      0.075400
     22 CAX        -3.3970   -0.2100   -0.0170 ca        1 42K     -0.074900
     23 SAY         5.7080    0.5240    0.0900 sy        1 42K      1.532200
     24 HN1        -4.6360   -3.2370   -0.0100 hn        1 42K      0.347500
     25 HN6        -0.0150   -2.3510   -0.0080 hn        1 42K      0.464800
     26 HN7         6.4420    0.0490   -2.0390 hn        1 42K      0.446800
     27 HN7A        5.9460    1.6140   -1.9240 hn        1 42K      0.446800
     28 HAE         2.2660   -2.8750   -0.0210 ha        1 42K      0.160000
     29 HAF         0.9250    1.2860    0.0880 ha        1 42K      0.160000
     30 HAG         4.6080   -2.0960    0.0250 ha        1 42K      0.156500
     31 HAH         3.2830    2.0110    0.1400 ha        1 42K      0.156500
     32 HAI        -7.1560    1.0660   -0.0170 ha        1 42K      0.148000
     33 HAJ        -6.6760   -1.3810   -0.0140 ha        1 42K      0.148000
     34 HN2        -5.6450    3.6710   -0.0130 hn        1 42K      0.332700
     35 N5         -0.9470   -0.5460   -0.0100 n2        1 42K     -0.280400
     36 OAB        -1.9460   -3.4790   -0.0160 o         1 42K     -0.625500
@<TRIPOS>BOND
     1    1   17 1   
     2    1   20 1   
     3    1   24 1   
     4    2    3 1   
     5    2   19 1   
     6    2   34 1   
     7    3    4 2   
     8    4   21 1   
     9    5   15 1   
    10    5   25 1   
    11    5   35 1   
    12    6   23 1   
    13    6   26 1   
    14    6   27 1   
    15    7   23 2   
    16    8   23 2   
    17    9   11 ar  
    18    9   15 ar  
    19    9   28 1   
    20   10   12 ar  
    21   10   15 ar  
    22   10   29 1   
    23   11   16 ar  
    24   11   30 1   
    25   12   16 ar  
    26   12   31 1   
    27   13   14 ar  
    28   13   19 ar  
    29   13   32 1   
    30   14   20 ar  
    31   14   33 1   
    32   16   23 1   
    33   17   18 1   
    34   17   36 2   
    35   18   22 1   
    36   18   35 2   
    37   19   21 ar  
    38   20   22 ar  
    39   21   22 ar  
@<TRIPOS>SUBSTRUCTURE
     1 42K         1 TEMP              0 ****  ****    0 ROOT
