@<TRIPOS>MOLECULE
42K
   38    41     1     0     0
SMALL
bcc


@<TRIPOS>ATOM
      1 N1          0.1790    0.8230    0.1260 n         1 42K     -0.449500
      2 N2         -1.1840   -0.6110    5.2790 na        1 42K      0.012900
      3 N3          0.0170   -1.0960    5.5990 nc        1 42K     -0.051400
      4 N4          0.8500   -1.0070    4.6330 nd        1 42K     -0.266400
      5 N6          4.0370   -0.9960    1.1450 nh        1 42K     -0.436400
      6 N7         10.3110   -1.1130    2.8640 n4        1 42K     -0.794500
      7 OAC         9.6030    1.0830    3.9200 o         1 42K     -0.550300
      8 OAD        10.2200    1.0670    1.5730 o         1 42K     -0.550300
      9 CAE         6.3210   -0.4020    0.5520 ca        1 42K     -0.171000
     10 CAF         5.6820   -0.3260    2.9040 ca        1 42K     -0.171000
     11 CAG         7.6230   -0.0960    0.9070 ca        1 42K      0.043500
     12 CAH         6.9930   -0.0180    3.2330 ca        1 42K      0.043500
     13 CAI        -2.1070    0.4590    3.0960 ca        1 42K      0.060000
     14 CAJ        -1.7140    0.8060    1.8040 ca        1 42K     -0.165000
     15 CAQ         5.3240   -0.5320    1.5520 ca        1 42K      0.197600
     16 CAR         8.0000    0.1040    2.2530 ca        1 42K     -0.544500
     17 CAS         1.5140    0.3980    0.1070 c         1 42K      0.704700
     18 CAT         1.8020   -0.2050    1.5160 cc        1 42K      0.203800
     19 CAU        -1.1710   -0.1410    3.9510 ca        1 42K     -0.134200
     20 CAV        -0.4010    0.5520    1.3750 ca        1 42K      0.184000
     21 CAW         0.1940   -0.4140    3.5350 ca        1 42K      0.115400
     22 CAX         0.5810   -0.0720    2.2400 ca        1 42K     -0.180000
     23 SAY         9.4910    0.5900    2.6390 sy        1 42K      1.483200
     24 HN1        -0.2890    1.2370   -0.6490 hn        1 42K      0.398500
     25 HN6         3.0000   -1.1570    2.8550 hn        1 42K      0.526800
     26 HN7        11.0990   -1.2150    2.2220 hn        1 42K      0.464133
     27 HN7A       10.6800   -1.2070    3.8120 hn        1 42K      0.464133
     28 HAE         6.0750   -0.5420   -0.5170 ha        1 42K      0.180000
     29 HAF         4.9450   -0.4030    3.7210 ha        1 42K      0.180000
     30 HAG         8.3800    0.0260    0.1050 ha        1 42K      0.185500
     31 HAH         7.2480    0.1570    4.2980 ha        1 42K      0.185500
     32 HAI        -3.1420    0.6580    3.4320 ha        1 42K      0.194000
     33 HAJ        -2.4420    1.2800    1.1230 ha        1 42K      0.195000
     34 HN2        -1.9500   -0.6130    5.9230 hn        1 42K      0.371700
     35 N5          2.9490   -0.7370    1.9260 nh        1 42K     -0.353800
     36 OAB         2.3370    0.4620   -0.8000 o         1 42K     -0.506500
     37 H62         3.8550   -0.8070    0.1570 hn        1 42K      0.468800
     38 H73         9.6800   -1.8920    2.7010 hn        1 42K      0.464133
@<TRIPOS>BOND
     1    1   17 1   
     2    1   20 2   
     3    1   24 1   
     4    2    3 1   
     5    2   19 1   
     6    2   34 1   
     7    3    4 2   
     8    4   21 1   
     9    5   15 1   
    10    5   35 1   
    11    5   37 1   
    12    6   23 1   
    13    6   26 1   
    14    6   27 1   
    15    6   38 1   
    16    7   23 2   
    17    8   23 2   
    18    9   11 ar  
    19    9   15 ar  
    20    9   28 1   
    21   10   12 ar  
    22   10   15 ar  
    23   10   29 1   
    24   11   16 ar  
    25   11   30 1   
    26   12   16 ar  
    27   12   31 1   
    28   13   14 ar  
    29   13   19 ar  
    30   13   32 1   
    31   14   20 ar  
    32   14   33 1   
    33   16   23 1   
    34   17   18 1   
    35   17   36 2   
    36   18   22 2   
    37   18   35 1   
    38   19   21 ar  
    39   20   22 ar  
    40   21   22 ar  
    41   25   35 1   
@<TRIPOS>SUBSTRUCTURE
     1 42K         1 TEMP              0 ****  ****    0 ROOT
