@<TRIPOS>MOLECULE
42K
   37    40     1     0     0
SMALL
bcc


@<TRIPOS>ATOM
      1 N1         -0.1190    0.0710   -0.0120 ns        1 42K     -0.456100
      2 N2         -0.7880   -0.2280    5.4510 na        1 42K     -0.047100
      3 N3          0.5250   -0.2270    5.7440 nc        1 42K     -0.106400
      4 N4          1.2520   -0.1630    4.7080 nd        1 42K     -0.224400
      5 N6          4.0720    0.0960    0.9270 nu        1 42K     -0.412700
      6 N7         10.0080   -1.5890    2.7330 nz        1 42K     -0.779500
      7 OAC         9.8370    0.6630    3.9420 o         1 42K     -0.581300
      8 OAD        10.5180    0.6730    1.6380 o         1 42K     -0.581300
      9 CAE         6.4300    0.1970    0.4010 ca        1 42K     -0.210500
     10 CAF         5.7370    0.1240    2.7560 ca        1 42K     -0.210500
     11 CAG         7.7390    0.2350    0.8040 ca        1 42K      0.048000
     12 CAH         7.0560    0.1670    3.1240 ca        1 42K      0.048000
     13 CAI        -2.0690   -0.1220    3.2050 ca        1 42K     -0.061000
     14 CAJ        -1.8470   -0.0470    1.8330 ca        1 42K     -0.129000
     15 CAQ         5.3750    0.1380    1.3710 ca        1 42K      0.328600
     16 CAR         8.1160    0.2160    2.1750 ca        1 42K     -0.659500
     17 CAS         1.2770    0.0950   -0.0800 c         1 42K      0.597200
     18 CAT         1.8140    0.0310    1.3570 cc        1 42K      0.393900
     19 CAU        -0.9630   -0.1540    4.0570 ca        1 42K     -0.101200
     20 CAV        -0.5330   -0.0040    1.3360 ca        1 42K      0.063600
     21 CAW         0.4080   -0.1100    3.5620 ca        1 42K      0.094400
     22 CAX         0.6120   -0.0340    2.1970 ca        1 42K     -0.133900
     23 SAY         9.6110    0.3360    2.6220 sy        1 42K      1.518200
     24 HN1        -0.7310    0.1090   -0.7870 hn        1 42K      0.363500
     25 HN6         3.9110    0.1400   -0.0730 hn        1 42K      0.479800
     26 HN7        10.3020   -1.8290    3.6750 hn        1 42K      0.445133
     27 HN7A       10.7630   -1.8270    2.0980 hn        1 42K      0.445133
     28 HAE         6.1900    0.2220   -0.6760 ha        1 42K      0.186500
     29 HAF         4.9530    0.0910    3.5350 ha        1 42K      0.186500
     30 HAG         8.5380    0.3010    0.0390 ha        1 42K      0.165500
     31 HAH         7.3130    0.1830    4.2010 ha        1 42K      0.165500
     32 HAI        -3.0950   -0.1560    3.6010 ha        1 42K      0.163000
     33 HAJ        -2.7040   -0.0210    1.1410 ha        1 42K      0.162000
     34 HN2        -1.4890   -0.2670    6.1540 hn        1 42K      0.344700
     35 N5          3.0450    0.0350    1.7850 n2        1 42K     -0.347400
     36 OAB         1.9670    0.1550   -1.1060 o         1 42K     -0.603500
     37 H73         9.2020   -2.1540    2.4970 hn        1 42K      0.445133
@<TRIPOS>BOND
     1    1   17 1   
     2    1   20 1   
     3    1   24 1   
     4    2    3 1   
     5    2   19 1   
     6    2   34 1   
     7    3    4 2   
     8    4   21 1   
     9    5   15 1   
    10    5   25 1   
    11    5   35 1   
    12    6   23 1   
    13    6   26 1   
    14    6   27 1   
    15    6   37 1   
    16    7   23 2   
    17    8   23 2   
    18    9   11 ar  
    19    9   15 ar  
    20    9   28 1   
    21   10   12 ar  
    22   10   15 ar  
    23   10   29 1   
    24   11   16 ar  
    25   11   30 1   
    26   12   16 ar  
    27   12   31 1   
    28   13   14 ar  
    29   13   19 ar  
    30   13   32 1   
    31   14   20 ar  
    32   14   33 1   
    33   16   23 1   
    34   17   18 1   
    35   17   36 2   
    36   18   22 1   
    37   18   35 2   
    38   19   21 ar  
    39   20   22 ar  
    40   21   22 ar  
@<TRIPOS>SUBSTRUCTURE
     1 42K         1 TEMP              0 ****  ****    0 ROOT
