@<TRIPOS>MOLECULE
42K
   36    32     1     0     0
SMALL
bcc


@<TRIPOS>ATOM
      1 N1         -3.4290   -0.9800    0.2240 n         1 42K     -0.320000
      2 N2         -1.4830   -2.6840    4.9810 n2        1 42K     -0.241000
      3 N3         -0.4460   -3.3870    4.4860 n2        1 42K      0.055000
      4 N4         -0.4600   -3.2600    3.1250 n2        1 42K     -0.067000
      5 N5         -0.3360   -0.9820    0.3760 n1        1 42K      0.094000
      6 N6         -0.4580    0.2100   -0.3050 n2        1 42K     -0.237000
      7 N7          4.6950    2.4190   -4.4370 n3        1 42K     -0.953000
      8 OAB        -3.0710   -2.5380   -1.1310 o         1 42K     -0.350000
      9 OAC         4.8950    3.2490   -2.0690 o         1 42K     -0.939500
     10 OAD         3.3610    4.2650   -3.3250 o         1 42K     -0.939500
     11 CAE         1.9280    0.4120   -0.7140 c1        1 42K     -0.083500
     12 CAF         0.3640    1.4970   -2.1920 c1        1 42K     -0.206000
     13 CAG         2.9790    0.9440   -1.4360 c1        1 42K     -0.083500
     14 CAH         1.4270    2.0350   -2.9220 c1        1 42K      0.010000
     15 CAI        -3.1540   -1.1550    3.8860 c1        1 42K     -0.099000
     16 CAJ        -3.5000   -0.5730    2.6920 c1        1 42K     -0.127000
     17 CAQ         0.6170    0.6870   -1.0900 c1        1 42K      0.148000
     18 CAR         2.7230    1.7640   -2.5510 c1        1 42K     -0.862000
     19 CAS        -2.4480   -1.5980   -0.7120 c2        1 42K      0.333000
     20 CAT        -1.2320   -1.8950    0.2430 c2        1 42K     -0.161000
     21 CAU        -2.1510   -2.1140    3.9260 c1        1 42K     -0.048000
     22 CAV        -2.8430   -0.9440    1.5180 c2        1 42K      0.042000
     23 CAW        -1.5150   -2.4730    2.7870 c1        1 42K     -0.064000
     24 CAX        -1.8740   -1.8700    1.5540 c2        1 42K      0.009000
     25 SAY         3.9530    2.9580   -3.1050 s6        1 42K      2.871000
     26 HN1        -4.2330   -0.6240   -0.0070 hn        1 42K      0.261000
     27 HN6        -1.1900    0.7450   -0.1610 hn        1 42K      0.260000
     28 HN7         4.4970    2.7710   -5.2320 hn        1 42K      0.242000
     29 HN7A        5.2770    1.7240   -4.3820 hn        1 42K      0.242000
     30 HAE         2.1100   -0.1730    0.0800 ha        1 42K      0.164500
     31 HAF        -0.5610    1.6910   -2.4570 ha        1 42K      0.147000
     32 HAG         3.9190    0.7480   -1.1670 ha        1 42K      0.164500
     33 HAH         1.2440    2.6200   -3.7180 ha        1 42K      0.157000
     34 HAI        -3.6740   -0.9500    4.7050 ha        1 42K      0.148000
     35 HAJ        -4.2270    0.0620    2.6570 ha        1 42K      0.148000
     36 HN2        -1.7050   -2.6010    5.8720 DU        1 42K      0.283000
@<TRIPOS>BOND
     1    1   19 1   
     2    1   22 1   
     3    1   26 1   
     4    2    3 1   
     5    2   21 1   
     6    3    4 1   
     7    4   23 1   
     8    5   20 1   
     9    6   17 1   
    10    6   27 1   
    11    7   25 1   
    12    7   28 1   
    13    7   29 1   
    14    8   19 1   
    15    9   25 1   
    16   10   25 1   
    17   11   13 1   
    18   11   30 1   
    19   12   17 1   
    20   12   31 1   
    21   13   32 1   
    22   14   18 1   
    23   14   33 1   
    24   15   21 1   
    25   15   34 1   
    26   16   22 1   
    27   16   35 1   
    28   18   25 1   
    29   19   20 1   
    30   20   24 1   
    31   22   24 1   
    32   23   24 1   
@<TRIPOS>SUBSTRUCTURE
     1 42K         1 TEMP              0 ****  ****    0 ROOT
