@<TRIPOS>MOLECULE
42L
   40    42     1     0     0
SMALL
bcc


@<TRIPOS>ATOM
      1 F          -0.1480   -0.6500   -0.0080 f         1 42L     -0.142900
      2 C13         1.1990   -0.5110   -0.0410 ca        1 42L      0.125900
      3 C12         1.9040   -0.2260    1.1430 ca        1 42L     -0.169000
      4 C11         3.2870   -0.0910    1.0970 ca        1 42L     -0.095000
      5 C14         1.8920   -0.6520   -1.2560 ca        1 42L     -0.169000
      6 C15         3.2760   -0.5100   -1.2790 ca        1 42L     -0.095000
      7 C10         3.9900   -0.2330   -0.1080 ca        1 42L     -0.105300
      8 C6          5.4810   -0.1070   -0.0860 c3        1 42L     -0.000400
      9 C7          5.9740    1.3050   -0.4400 c3        1 42L     -0.086700
     10 C8          5.4000    1.8560   -1.7170 c         1 42L      0.651100
     11 O1          5.3250    3.2280   -1.6790 os        1 42L     -0.452900
     12 C9          4.8210    3.8760   -2.8460 c3        1 42L      0.126700
     13 O           5.0230    1.2960   -2.7450 o         1 42L     -0.530000
     14 C1          7.5220    1.3160   -0.5660 c3        1 42L      0.158500
     15 C5          6.1810   -1.1910   -0.9060 c3        1 42L     -0.065400
     16 C4          7.6950   -0.9240   -0.9850 c3        1 42L      0.154500
     17 C3          8.2760   -0.7620    0.4500 c3        1 42L     -0.112400
     18 C2          8.1490    0.7380    0.7340 c3        1 42L     -0.107400
     19 N           7.8890    0.3850   -1.6580 n3        1 42L     -0.689600
     20 C           9.2200    0.5860   -2.1770 c3        1 42L      0.144100
     21 H1          1.3570   -0.1130    2.0900 ha        1 42L      0.148500
     22 H2          3.8330    0.1300    2.0270 ha        1 42L      0.149500
     23 H3          1.3360   -0.8680   -2.1790 ha        1 42L      0.148500
     24 H4          3.8080   -0.5950   -2.2430 ha        1 42L      0.149500
     25 H5          5.7990   -0.2660    0.9910 hc        1 42L      0.052700
     26 H6          5.6870    2.0040    0.3960 hc        1 42L      0.081700
     27 H7          4.8640    4.9620   -2.5870 h1        1 42L      0.048700
     28 H8          5.4680    3.6390   -3.7240 h1        1 42L      0.048700
     29 H9          3.7740    3.5440   -3.0440 h1        1 42L      0.048700
     30 H10         7.8740    2.3580   -0.7780 h1        1 42L      0.079700
     31 H11         5.7610   -1.2220   -1.9450 hc        1 42L      0.061700
     32 H12         6.0110   -2.1870   -0.4260 hc        1 42L      0.061700
     33 H13         8.2020   -1.7470   -1.5490 h1        1 42L      0.069700
     34 H14         7.7100   -1.3790    1.1860 hc        1 42L      0.050700
     35 H15         9.3440   -1.0850    0.4730 hc        1 42L      0.050700
     36 H16         7.5120    0.9480    1.6240 hc        1 42L      0.051200
     37 H17         9.1510    1.1990    0.9090 hc        1 42L      0.051200
     38 H19         9.4050   -0.1760   -2.9790 h1        1 42L      0.035700
     39 H20         9.2740    1.6090   -2.6330 h1        1 42L      0.035700
     40 H21        10.0300    0.4960   -1.4020 h1        1 42L      0.035700
@<TRIPOS>BOND
     1    1    2 1   
     2    2    3 ar  
     3    2    5 ar  
     4    3    4 ar  
     5    3   21 1   
     6    4    7 ar  
     7    4   22 1   
     8    5    6 ar  
     9    5   23 1   
    10    6    7 ar  
    11    6   24 1   
    12    7    8 1   
    13    8    9 1   
    14    8   15 1   
    15    8   25 1   
    16    9   10 1   
    17    9   14 1   
    18    9   26 1   
    19   10   11 1   
    20   10   13 2   
    21   11   12 1   
    22   12   27 1   
    23   12   28 1   
    24   12   29 1   
    25   14   18 1   
    26   14   19 1   
    27   14   30 1   
    28   15   16 1   
    29   15   31 1   
    30   15   32 1   
    31   16   17 1   
    32   16   19 1   
    33   16   33 1   
    34   17   18 1   
    35   17   34 1   
    36   17   35 1   
    37   18   36 1   
    38   18   37 1   
    39   19   20 1   
    40   20   38 1   
    41   20   39 1   
    42   20   40 1   
@<TRIPOS>SUBSTRUCTURE
     1 42L         1 TEMP              0 ****  ****    0 ROOT
