@<TRIPOS>MOLECULE
42L
   40    42     1     0     0
SMALL
bcc


@<TRIPOS>ATOM
      1 F          -0.1470   -0.6600   -0.0110 f         1 42L     -0.142900
      2 C13         1.2000   -0.5200   -0.0440 ca        1 42L      0.125900
      3 C12         1.9060   -0.2410    1.1410 ca        1 42L     -0.169000
      4 C11         3.2880   -0.1050    1.0950 ca        1 42L     -0.095000
      5 C14         1.8930   -0.6520   -1.2600 ca        1 42L     -0.169000
      6 C15         3.2760   -0.5090   -1.2840 ca        1 42L     -0.095000
      7 C10         3.9910   -0.2380   -0.1110 ca        1 42L     -0.105300
      8 C6          5.4820   -0.1110   -0.0900 c3        1 42L     -0.000400
      9 C7          5.9740    1.3030   -0.4350 c3        1 42L     -0.086700
     10 C8          5.3980    1.8620   -1.7080 c         1 42L      0.651100
     11 O1          5.3220    3.2330   -1.6620 os        1 42L     -0.452900
     12 C9          4.8170    3.8880   -2.8250 c3        1 42L      0.126700
     13 O           5.0200    1.3080   -2.7400 o         1 42L     -0.530000
     14 C1          7.5210    1.3170   -0.5620 c3        1 42L      0.158500
     15 C5          6.1820   -1.1890   -0.9170 c3        1 42L     -0.065400
     16 C4          7.6960   -0.9210   -0.9950 c3        1 42L      0.154500
     17 C3          8.2780   -0.7670    0.4400 c3        1 42L     -0.112400
     18 C2          8.1500    0.7310    0.7340 c3        1 42L     -0.107400
     19 N           7.8890    0.3920   -1.6600 n3        1 42L     -0.689600
     20 C           9.2190    0.5980   -2.1790 c3        1 42L      0.144100
     21 H1          1.3600   -0.1350    2.0890 ha        1 42L      0.148500
     22 H2          3.8350    0.1110    2.0260 ha        1 42L      0.149500
     23 H3          1.3360   -0.8640   -2.1850 ha        1 42L      0.148500
     24 H4          3.8080   -0.5870   -2.2480 ha        1 42L      0.149500
     25 H5          5.8010   -0.2770    0.9860 hc        1 42L      0.052700
     26 H6          5.6870    1.9960    0.4050 hc        1 42L      0.081700
     27 H7          3.7700    3.5560   -3.0240 h1        1 42L      0.048700
     28 H8          5.4640    3.6570   -3.7050 h1        1 42L      0.048700
     29 H9          4.8590    4.9730   -2.5590 h1        1 42L      0.048700
     30 H10         7.8720    2.3600   -0.7670 h1        1 42L      0.079700
     31 H11         6.0130   -2.1890   -0.4430 hc        1 42L      0.061700
     32 H12         5.7620   -1.2140   -1.9560 hc        1 42L      0.061700
     33 H13         8.2040   -1.7390   -1.5650 h1        1 42L      0.069700
     34 H14         9.3470   -1.0890    0.4610 hc        1 42L      0.050700
     35 H15         7.7130   -1.3890    1.1730 hc        1 42L      0.050700
     36 H16         7.5130    0.9350    1.6250 hc        1 42L      0.051200
     37 H17         9.1520    1.1920    0.9110 hc        1 42L      0.051200
     38 H19         9.4040   -0.1590   -2.9850 h1        1 42L      0.035700
     39 H20        10.0290    0.5040   -1.4050 h1        1 42L      0.035700
     40 H21         9.2710    1.6250   -2.6280 h1        1 42L      0.035700
@<TRIPOS>BOND
     1    1    2 1   
     2    2    3 ar  
     3    2    5 ar  
     4    3    4 ar  
     5    3   21 1   
     6    4    7 ar  
     7    4   22 1   
     8    5    6 ar  
     9    5   23 1   
    10    6    7 ar  
    11    6   24 1   
    12    7    8 1   
    13    8    9 1   
    14    8   15 1   
    15    8   25 1   
    16    9   10 1   
    17    9   14 1   
    18    9   26 1   
    19   10   11 1   
    20   10   13 2   
    21   11   12 1   
    22   12   27 1   
    23   12   28 1   
    24   12   29 1   
    25   14   18 1   
    26   14   19 1   
    27   14   30 1   
    28   15   16 1   
    29   15   31 1   
    30   15   32 1   
    31   16   17 1   
    32   16   19 1   
    33   16   33 1   
    34   17   18 1   
    35   17   34 1   
    36   17   35 1   
    37   18   36 1   
    38   18   37 1   
    39   19   20 1   
    40   20   38 1   
    41   20   39 1   
    42   20   40 1   
@<TRIPOS>SUBSTRUCTURE
     1 42L         1 TEMP              0 ****  ****    0 ROOT
