@<TRIPOS>MOLECULE
42M
   37    34     1     0     0
SMALL
bcc


@<TRIPOS>ATOM
      1 CAA        -2.5540   -1.1370   -1.5180 c3        1 42M     -0.077000
      2 OAN        -1.3130   -1.8340   -1.3690 os        1 42M     -0.249000
      3 CAR        -0.8180   -1.8540   -0.0370 c2        1 42M      0.108000
      4 CAK        -1.5290   -2.4900    0.9410 c1        1 42M     -0.191000
      5 CAP        -0.9680   -2.6680    2.2030 c1        1 42M      0.026000
      6 CAM        -1.7720   -3.2630    3.3000 c3        1 42M      0.002000
      7 OAD        -2.2310   -2.2140    4.1780 oh        1 42M     -0.328000
      8 CAG         0.3300   -2.1910    2.4650 c1        1 42M     -0.112000
      9 CAI         1.0290   -1.5620    1.4930 c1        1 42M     -0.063000
     10 CAS         0.4680   -1.3850    0.2310 c2        1 42M     -0.112000
     11 OAO         1.2700   -0.8680   -0.8340 os        1 42M     -0.048000
     12 CAT         1.1860    0.5120   -0.8460 c2        1 42M      0.294000
     13 CAJ         1.1400    1.2080    0.3430 c2        1 42M     -0.178000
     14 CAH         1.1730    2.5910    0.3360 c1        1 42M      0.042000
     15 CAQ         1.2510    3.2730   -0.8600 c1        1 42M     -0.164000
     16 NAV         1.2160    4.6980   -0.8750 n3        1 42M      0.521000
     17 OAE         0.8740    5.3980    0.2820 oh        1 42M     -0.171000
     18 OAB         1.6400    5.3110   -1.8590 o         1 42M     -0.117000
     19 CAL         1.2970    2.5730   -2.0630 c1        1 42M      0.095000
     20 CAU         1.2650    1.2090   -2.0600 c1        1 42M     -0.193000
     21 NAW         1.3890    0.4940   -3.2750 n3        1 42M      0.522000
     22 OAF         1.7110    1.1910   -4.4890 oh        1 42M     -0.198000
     23 OAC         1.2930   -0.7190   -3.2780 o         1 42M     -0.075000
     24 HAA1       -2.4920   -0.3270   -1.1270 h1        1 42M      0.108333
     25 HAA2       -3.3150   -1.6780   -1.0700 h1        1 42M      0.108333
     26 HAA3       -2.7550   -1.0220   -2.4910 h1        1 42M      0.108333
     27 HAK        -2.4060   -2.9180    0.7180 ha        1 42M      0.173000
     28 HAM1       -2.5630   -3.7510    2.9160 h1        1 42M      0.102000
     29 HAM2       -1.1910   -3.9170    3.8260 h1        1 42M      0.102000
     30 HAG         0.7300   -2.3140    3.3550 ha        1 42M      0.201000
     31 HAD        -2.3370   -2.5310    4.9820 ho        1 42M      0.235000
     32 HAI         1.9060   -1.2400    1.6710 ha        1 42M      0.166000
     33 HAJ         1.0870    0.7260    1.1870 ha        1 42M      0.232000
     34 HAH         1.1400    3.0750    1.1580 ha        1 42M      0.217000
     35 HAL         1.3530    3.0690   -2.9230 ha        1 42M      0.222000
     36 HAF         1.9270    0.5950   -5.1290 ho        1 42M      0.344000
     37 HAE         1.5700    5.9620    0.5180 ho        1 42M      0.346000
@<TRIPOS>BOND
     1    1    2 1   
     2    1   24 1   
     3    1   25 1   
     4    1   26 1   
     5    2    3 1   
     6    3    4 1   
     7    3   10 1   
     8    4   27 1   
     9    5    6 1   
    10    5    8 1   
    11    6    7 1   
    12    6   28 1   
    13    6   29 1   
    14    7   31 1   
    15    8   30 1   
    16    9   10 1   
    17    9   32 1   
    18   10   11 1   
    19   11   12 1   
    20   12   13 1   
    21   12   20 1   
    22   13   14 1   
    23   13   33 1   
    24   14   34 1   
    25   15   16 1   
    26   15   19 1   
    27   16   17 1   
    28   16   18 1   
    29   17   37 1   
    30   19   35 1   
    31   20   21 1   
    32   21   22 1   
    33   21   23 1   
    34   22   36 1   
@<TRIPOS>SUBSTRUCTURE
     1 42M         1 TEMP              0 ****  ****    0 ROOT
