@<TRIPOS>MOLECULE
42M
   37    38     1     0     0
SMALL
bcc


@<TRIPOS>ATOM
      1 CAA         0.1560    0.2100    0.0130 c3        1 42M     -0.076000
      2 OAN         1.5590    0.4650    0.1770 os        1 42M     -0.254000
      3 CAR         2.0810    0.1900    1.4180 ca        1 42M      0.103000
      4 CAK         1.3280   -0.0470    2.5760 ca        1 42M     -0.161000
      5 CAP         1.9760   -0.2790    3.7910 ca        1 42M      0.024000
      6 CAM         1.1950   -0.5450    5.0400 c3        1 42M      0.001000
      7 OAD        -0.1790   -0.3260    4.7710 oh        1 42M     -0.335000
      8 CAG         3.3820   -0.2730    3.8640 ca        1 42M     -0.141000
      9 CAI         4.1470   -0.0440    2.7300 ca        1 42M     -0.059000
     10 CAS         3.4870    0.1820    1.5130 ca        1 42M     -0.109000
     11 OAO         4.2830    0.2040    0.3470 os        1 42M     -0.048000
     12 CAT         4.3530    1.3200   -0.3810 ca        1 42M      0.294000
     13 CAJ         3.7350    2.5610   -0.0430 ca        1 42M     -0.175000
     14 CAH         3.8600    3.6660   -0.8370 ca        1 42M      0.041000
     15 CAQ         4.6290    3.5790   -2.0480 ca        1 42M     -0.163000
     16 NAV         4.7740    4.7420   -2.8980 nh        1 42M      0.521000
     17 OAE         4.1730    5.8170   -2.4800 oh        1 42M     -0.171000
     18 OAB         5.3740    4.7920   -3.9080 o         1 42M     -0.117000
     19 CAL         5.2490    2.3840   -2.4380 ca        1 42M      0.094000
     20 CAU         5.1160    1.2500   -1.6070 ca        1 42M     -0.193000
     21 NAW         5.7390    0.0020   -1.9830 nh        1 42M      0.522000
     22 OAF         6.3810    0.0220   -3.1210 oh        1 42M     -0.198000
     23 OAC         5.7190   -1.0000   -1.3730 o         1 42M     -0.077000
     24 HAA1       -0.0870   -0.8400    0.3050 h1        1 42M      0.109667
     25 HAA2       -0.4350    0.9410    0.6160 h1        1 42M      0.109667
     26 HAA3       -0.0040    0.3680   -1.0830 h1        1 42M      0.109667
     27 HAK         0.2240   -0.0570    2.5400 ha        1 42M      0.198000
     28 HAM1        1.5420    0.1470    5.8580 h1        1 42M      0.106500
     29 HAM2        1.3660   -1.6110    5.3610 h1        1 42M      0.106500
     30 HAG         3.8800   -0.4580    4.8310 ha        1 42M      0.176000
     31 HAD        -0.6610   -0.5620    5.5750 ho        1 42M      0.235000
     32 HAI         5.2470   -0.0570    2.7730 ha        1 42M      0.166000
     33 HAJ         3.1280    2.5930    0.8870 ha        1 42M      0.232000
     34 HAH         3.3750    4.6210   -0.5490 ha        1 42M      0.217000
     35 HAL         5.8380    2.3220   -3.3810 ha        1 42M      0.222000
     36 HAF         6.7880   -0.8710   -3.3310 ho        1 42M      0.344000
     37 HAE         4.3100    6.5880   -3.1080 ho        1 42M      0.345000
@<TRIPOS>BOND
     1    1    2 1   
     2    1   24 1   
     3    1   25 1   
     4    1   26 1   
     5    2    3 1   
     6    3    4 1   
     7    3   10 1   
     8    4    5 1   
     9    4   27 1   
    10    5    6 1   
    11    5    8 1   
    12    6    7 1   
    13    6   28 1   
    14    6   29 1   
    15    7   31 1   
    16    8    9 1   
    17    8   30 1   
    18    9   10 1   
    19    9   32 1   
    20   10   11 1   
    21   11   12 1   
    22   12   13 1   
    23   12   20 1   
    24   13   14 1   
    25   13   33 1   
    26   14   15 1   
    27   14   34 1   
    28   15   16 1   
    29   15   19 1   
    30   16   17 1   
    31   16   18 1   
    32   17   37 1   
    33   19   20 1   
    34   19   35 1   
    35   20   21 1   
    36   21   22 1   
    37   21   23 1   
    38   22   36 1   
@<TRIPOS>SUBSTRUCTURE
     1 42M         1 TEMP              0 ****  ****    0 ROOT
