@<TRIPOS>MOLECULE
42M
   37    38     1     0     0
SMALL
bcc


@<TRIPOS>ATOM
      1 CAA         0.1510    0.2220    0.0170 c3        1 42M     -0.076000
      2 OAN         1.5550    0.4720    0.1780 os        1 42M     -0.254000
      3 CAR         2.0790    0.1900    1.4170 ca        1 42M      0.103000
      4 CAK         1.3290   -0.0500    2.5750 ca        1 42M     -0.161000
      5 CAP         1.9790   -0.2880    3.7880 ca        1 42M      0.024000
      6 CAM         1.2000   -0.5570    5.0370 c3        1 42M      0.001000
      7 OAD        -0.1740   -0.3320    4.7730 oh        1 42M     -0.335000
      8 CAG         3.3850   -0.2880    3.8570 ca        1 42M     -0.141000
      9 CAI         4.1480   -0.0570    2.7220 ca        1 42M     -0.059000
     10 CAS         3.4860    0.1770    1.5080 ca        1 42M     -0.109000
     11 OAO         4.2790    0.2010    0.3410 os        1 42M     -0.048000
     12 CAT         4.3510    1.3200   -0.3830 ca        1 42M      0.294000
     13 CAJ         3.7390    2.5620   -0.0380 ca        1 42M     -0.175000
     14 CAH         3.8660    3.6700   -0.8270 ca        1 42M      0.041000
     15 CAQ         4.6310    3.5850   -2.0410 ca        1 42M     -0.163000
     16 NAV         4.7780    4.7510   -2.8860 nh        1 42M      0.521000
     17 OAE         4.1820    5.8270   -2.4610 oh        1 42M     -0.171000
     18 OAB         5.3750    4.8040   -3.8980 o         1 42M     -0.117000
     19 CAL         5.2460    2.3890   -2.4380 ca        1 42M      0.094000
     20 CAU         5.1110    1.2520   -1.6120 ca        1 42M     -0.193000
     21 NAW         5.7290    0.0040   -1.9950 nh        1 42M      0.522000
     22 OAF         6.3670    0.0260   -3.1340 oh        1 42M     -0.198000
     23 OAC         5.7060   -1.0010   -1.3890 o         1 42M     -0.077000
     24 HAA1       -0.0940   -0.8290    0.3050 h1        1 42M      0.109667
     25 HAA2       -0.4360    0.9530    0.6230 h1        1 42M      0.109667
     26 HAA3       -0.0110    0.3860   -1.0790 h1        1 42M      0.109667
     27 HAK         0.2240   -0.0560    2.5420 ha        1 42M      0.198000
     28 HAM1        1.3680   -1.6250    5.3540 h1        1 42M      0.106500
     29 HAM2        1.5510    0.1300    5.8570 h1        1 42M      0.106500
     30 HAG         3.8850   -0.4790    4.8220 ha        1 42M      0.176000
     31 HAD        -0.6550   -0.5700    5.5770 ho        1 42M      0.235000
     32 HAI         5.2480   -0.0740    2.7630 ha        1 42M      0.166000
     33 HAJ         3.1340    2.5910    0.8940 ha        1 42M      0.232000
     34 HAH         3.3840    4.6250   -0.5340 ha        1 42M      0.217000
     35 HAL         5.8320    2.3300   -3.3820 ha        1 42M      0.222000
     36 HAF         6.7700   -0.8670   -3.3490 ho        1 42M      0.344000
     37 HAE         4.3200    6.6010   -3.0870 ho        1 42M      0.345000
@<TRIPOS>BOND
     1    1    2 1   
     2    1   24 1   
     3    1   25 1   
     4    1   26 1   
     5    2    3 1   
     6    3    4 1   
     7    3   10 1   
     8    4    5 1   
     9    4   27 1   
    10    5    6 1   
    11    5    8 1   
    12    6    7 1   
    13    6   28 1   
    14    6   29 1   
    15    7   31 1   
    16    8    9 1   
    17    8   30 1   
    18    9   10 1   
    19    9   32 1   
    20   10   11 1   
    21   11   12 1   
    22   12   13 1   
    23   12   20 1   
    24   13   14 1   
    25   13   33 1   
    26   14   15 1   
    27   14   34 1   
    28   15   16 1   
    29   15   19 1   
    30   16   17 1   
    31   16   18 1   
    32   17   37 1   
    33   19   20 1   
    34   19   35 1   
    35   20   21 1   
    36   21   22 1   
    37   21   23 1   
    38   22   36 1   
@<TRIPOS>SUBSTRUCTURE
     1 42M         1 TEMP              0 ****  ****    0 ROOT
