@<TRIPOS>MOLECULE
42M
   37    38     1     0     0
SMALL
bcc


@<TRIPOS>ATOM
      1 CAA         0.1540    0.2090    0.0200 c3        1 42M     -0.076000
      2 OAN         1.5580    0.4650    0.1800 os        1 42M     -0.254000
      3 CAR         2.0830    0.1870    1.4190 ca        1 42M      0.103000
      4 CAK         1.3340   -0.0540    2.5780 ca        1 42M     -0.161000
      5 CAP         1.9860   -0.2880    3.7900 ca        1 42M      0.024000
      6 CAM         1.2090   -0.5580    5.0400 c3        1 42M      0.001000
      7 OAD        -0.1670   -0.3390    4.7770 oh        1 42M     -0.335000
      8 CAG         3.3920   -0.2820    3.8600 ca        1 42M     -0.141000
      9 CAI         4.1540   -0.0500    2.7240 ca        1 42M     -0.059000
     10 CAS         3.4900    0.1800    1.5090 ca        1 42M     -0.109000
     11 OAO         4.2820    0.2050    0.3410 os        1 42M     -0.048000
     12 CAT         4.3490    1.3230   -0.3840 ca        1 42M      0.294000
     13 CAJ         3.7330    2.5630   -0.0410 ca        1 42M     -0.175000
     14 CAH         3.8560    3.6700   -0.8310 ca        1 42M      0.041000
     15 CAQ         4.6200    3.5870   -2.0450 ca        1 42M     -0.163000
     16 NAV         4.7620    4.7530   -2.8920 nh        1 42M      0.521000
     17 OAE         4.1630    5.8260   -2.4680 oh        1 42M     -0.171000
     18 OAB         5.3590    4.8060   -3.9040 o         1 42M     -0.117000
     19 CAL         5.2400    2.3930   -2.4410 ca        1 42M      0.094000
     20 CAU         5.1090    1.2570   -1.6130 ca        1 42M     -0.193000
     21 NAW         5.7310    0.0100   -1.9950 nh        1 42M      0.522000
     22 OAF         6.3690    0.0330   -3.1350 oh        1 42M     -0.198000
     23 OAC         5.7120   -0.9940   -1.3880 o         1 42M     -0.077000
     24 HAA1       -0.0870   -0.8420    0.3090 h1        1 42M      0.109667
     25 HAA2       -0.4360    0.9390    0.6250 h1        1 42M      0.109667
     26 HAA3       -0.0090    0.3700   -1.0760 h1        1 42M      0.109667
     27 HAK         0.2300   -0.0640    2.5450 ha        1 42M      0.198000
     28 HAM1        1.3810   -1.6250    5.3590 h1        1 42M      0.106500
     29 HAM2        1.5580    0.1320    5.8590 h1        1 42M      0.106500
     30 HAG         3.8930   -0.4690    4.8240 ha        1 42M      0.176000
     31 HAD        -0.6460   -0.5780    5.5820 ho        1 42M      0.235000
     32 HAI         5.2540   -0.0620    2.7640 ha        1 42M      0.166000
     33 HAJ         3.1290    2.5920    0.8920 ha        1 42M      0.232000
     34 HAH         3.3710    4.6250   -0.5390 ha        1 42M      0.217000
     35 HAL         5.8250    2.3340   -3.3850 ha        1 42M      0.222000
     36 HAF         6.7750   -0.8590   -3.3490 ho        1 42M      0.344000
     37 HAE         4.2980    6.6000   -3.0950 ho        1 42M      0.345000
@<TRIPOS>BOND
     1    1    2 1   
     2    1   24 1   
     3    1   25 1   
     4    1   26 1   
     5    2    3 1   
     6    3    4 1   
     7    3   10 1   
     8    4    5 1   
     9    4   27 1   
    10    5    6 1   
    11    5    8 1   
    12    6    7 1   
    13    6   28 1   
    14    6   29 1   
    15    7   31 1   
    16    8    9 1   
    17    8   30 1   
    18    9   10 1   
    19    9   32 1   
    20   10   11 1   
    21   11   12 1   
    22   12   13 1   
    23   12   20 1   
    24   13   14 1   
    25   13   33 1   
    26   14   15 1   
    27   14   34 1   
    28   15   16 1   
    29   15   19 1   
    30   16   17 1   
    31   16   18 1   
    32   17   37 1   
    33   19   20 1   
    34   19   35 1   
    35   20   21 1   
    36   21   22 1   
    37   21   23 1   
    38   22   36 1   
@<TRIPOS>SUBSTRUCTURE
     1 42M         1 TEMP              0 ****  ****    0 ROOT
