@<TRIPOS>MOLECULE
42M
   37    38     1     0     0
SMALL
bcc


@<TRIPOS>ATOM
      1 CAA         2.0100   -0.2010   -2.9660 c3        1 42M     -0.076000
      2 OAN         1.3650   -0.0390   -1.6950 os        1 42M     -0.254000
      3 CAR         2.1880   -0.0520   -0.5950 ca        1 42M      0.103000
      4 CAK         3.5250   -0.4730   -0.5930 ca        1 42M     -0.161000
      5 CAP         4.2500   -0.4760    0.6010 ca        1 42M      0.024000
      6 CAM         5.6810   -0.9120    0.6280 c3        1 42M      0.001000
      7 OAD         6.0180   -1.4500   -0.6390 oh        1 42M     -0.335000
      8 CAG         3.6500   -0.0610    1.8040 ca        1 42M     -0.141000
      9 CAI         2.3290    0.3640    1.8240 ca        1 42M     -0.059000
     10 CAS         1.6100    0.3680    0.6200 ca        1 42M     -0.109000
     11 OAO         0.3460    0.9970    0.6310 os        1 42M     -0.048000
     12 CAT        -0.7490    0.2780    0.3740 ca        1 42M      0.294000
     13 CAJ        -0.7730   -1.1310    0.1540 ca        1 42M     -0.175000
     14 CAH        -1.9370   -1.8010   -0.0930 ca        1 42M      0.041000
     15 CAQ        -3.1730   -1.0690   -0.1390 ca        1 42M     -0.163000
     16 NAV        -4.4170   -1.7640   -0.3980 nh        1 42M      0.521000
     17 OAE        -4.3110   -3.0490   -0.5730 oh        1 42M     -0.171000
     18 OAB        -5.4850   -1.2750   -0.4600 o         1 42M     -0.117000
     19 CAL        -3.2110    0.3190    0.0580 ca        1 42M      0.094000
     20 CAU        -2.0010    0.9990    0.3170 ca        1 42M     -0.193000
     21 NAW        -2.0060    2.4290    0.5210 nh        1 42M      0.522000
     22 OAF        -3.1750    3.0010    0.4190 oh        1 42M     -0.198000
     23 OAC        -1.0750    3.1030    0.7610 o         1 42M     -0.077000
     24 HAA1        2.8240    0.5530   -3.0910 h1        1 42M      0.109667
     25 HAA2        2.4070   -1.2410   -3.0610 h1        1 42M      0.109667
     26 HAA3        1.1800   -0.0190   -3.6960 h1        1 42M      0.109667
     27 HAK         4.0160   -0.8020   -1.5260 ha        1 42M      0.198000
     28 HAM1        6.3330   -0.0230    0.8610 h1        1 42M      0.106500
     29 HAM2        5.8240   -1.6930    1.4270 h1        1 42M      0.106500
     30 HAG         4.2350   -0.0680    2.7390 ha        1 42M      0.176000
     31 HAD         6.9590   -1.6660   -0.6100 ho        1 42M      0.235000
     32 HAI         1.8570    0.7090    2.7570 ha        1 42M      0.166000
     33 HAJ         0.2000   -1.6670    0.1730 ha        1 42M      0.232000
     34 HAH        -1.9300   -2.8980   -0.2560 ha        1 42M      0.217000
     35 HAL        -4.1720    0.8800    0.0150 ha        1 42M      0.222000
     36 HAF        -3.1160    3.9910    0.5650 ho        1 42M      0.344000
     37 HAE        -5.2040   -3.4750   -0.7460 ho        1 42M      0.345000
@<TRIPOS>BOND
     1    1    2 1   
     2    1   24 1   
     3    1   25 1   
     4    1   26 1   
     5    2    3 1   
     6    3    4 1   
     7    3   10 1   
     8    4    5 1   
     9    4   27 1   
    10    5    6 1   
    11    5    8 1   
    12    6    7 1   
    13    6   28 1   
    14    6   29 1   
    15    7   31 1   
    16    8    9 1   
    17    8   30 1   
    18    9   10 1   
    19    9   32 1   
    20   10   11 1   
    21   11   12 1   
    22   12   13 1   
    23   12   20 1   
    24   13   14 1   
    25   13   33 1   
    26   14   15 1   
    27   14   34 1   
    28   15   16 1   
    29   15   19 1   
    30   16   17 1   
    31   16   18 1   
    32   17   37 1   
    33   19   20 1   
    34   19   35 1   
    35   20   21 1   
    36   21   22 1   
    37   21   23 1   
    38   22   36 1   
@<TRIPOS>SUBSTRUCTURE
     1 42M         1 TEMP              0 ****  ****    0 ROOT
