@<TRIPOS>MOLECULE
42P
   58    61     1     0     0
SMALL
bcc


@<TRIPOS>ATOM
      1 C01         0.0420    0.1040   -0.0830 ca        1 42P      0.766200
      2 N02         1.4060    0.1650   -0.0580 nb        1 42P     -0.815000
      3 C03         2.0180    0.1490    1.1840 ca        1 42P      0.934900
      4 N04         1.3570    0.0140    2.4030 nb        1 42P     -0.778000
      5 C05         0.0150   -0.0520    2.3380 ca        1 42P      0.615300
      6 C06        -0.7250    0.0160    1.1390 ca        1 42P     -0.474500
      7 N07        -0.6350    0.1990   -1.2940 nu        1 42P     -0.828900
      8 N08         3.4020    0.3310    1.1980 nu        1 42P     -0.833900
      9 Cl9        -0.8260   -0.2350    3.8210 cl        1 42P     -0.135000
     10 C10        -2.1720   -0.0210    1.1270 cc        1 42P      0.440800
     11 C11         0.0330    0.0800   -2.5660 c3        1 42P      0.175500
     12 C12         0.3140   -1.3790   -3.0370 c3        1 42P      0.127100
     13 C13         0.4360   -1.2770   -4.5750 c3        1 42P      0.105100
     14 C14        -0.2750    0.0220   -4.9970 c3        1 42P     -0.105700
     15 C15        -0.7830    0.6940   -3.7240 c3        1 42P     -0.073400
     16 O16         1.4410   -1.9500   -2.4290 oh        1 42P     -0.570800
     17 O17         1.8210   -1.2240   -4.8760 oh        1 42P     -0.598800
     18 C18        -1.3970   -0.2660   -5.9840 c3        1 42P      0.136400
     19 O19        -1.8390    0.9800   -6.4970 oh        1 42P     -0.597800
     20 C20         4.1710    0.0180    2.3790 c3        1 42P      0.208800
     21 C21         5.6760    0.1160    2.1360 c3        1 42P     -0.100400
     22 C22         6.4070   -0.1920    3.4310 c3        1 42P      0.131400
     23 O23         7.8000   -0.1080    3.1370 os        1 42P     -0.422600
     24 C24         8.6100   -0.3680    4.2700 c3        1 42P      0.116700
     25 S25        -3.0610    1.4100    1.5840 ss        1 42P     -0.013100
     26 C26        -4.5250    0.6160    1.3270 ca        1 42P     -0.094100
     27 C27        -4.2740   -0.7300    0.8930 ca        1 42P      0.075400
     28 N28        -2.9160   -1.0650    0.7870 nd        1 42P     -0.523100
     29 C29        -5.8390    1.0680    1.4740 ca        1 42P     -0.091000
     30 C30        -6.8880    0.2070    1.1980 ca        1 42P     -0.119000
     31 C31        -6.6470   -1.1120    0.7740 ca        1 42P     -0.134000
     32 C32        -5.3570   -1.5900    0.6190 ca        1 42P     -0.075000
     33 H1         -1.5740   -0.1380   -1.2840 hn        1 42P      0.433800
     34 H2          3.8690    0.2240    0.3230 hn        1 42P      0.439800
     35 H3          1.0240    0.6210   -2.5100 h1        1 42P      0.096700
     36 H4         -0.5340   -2.0690   -2.7700 h1        1 42P      0.081700
     37 H5         -0.0210   -2.1790   -5.0650 h1        1 42P      0.047700
     38 H6          0.4670    0.7030   -5.4980 hc        1 42P      0.081700
     39 H7         -1.8800    0.5100   -3.5970 hc        1 42P      0.061200
     40 H8         -0.6310    1.8000   -3.7690 hc        1 42P      0.061200
     41 H9          2.2090   -1.4120   -2.6640 ho        1 42P      0.421000
     42 H10         1.8990   -1.2030   -5.8370 ho        1 42P      0.409000
     43 H11        -1.0140   -0.9050   -6.8260 h1        1 42P      0.023700
     44 H12        -2.2460   -0.8020   -5.4810 h1        1 42P      0.023700
     45 H13        -2.5830    0.7890   -7.0800 ho        1 42P      0.403000
     46 H14         3.9290   -1.0210    2.7500 h1        1 42P      0.057700
     47 H15         3.8770    0.7450    3.1910 h1        1 42P      0.057700
     48 H16         6.0030   -0.6090    1.3460 hc        1 42P      0.062700
     49 H17         5.9580    1.1430    1.7870 hc        1 42P      0.062700
     50 H18         6.1430    0.5520    4.2300 h1        1 42P      0.031200
     51 H19         6.1610   -1.2250    3.7980 h1        1 42P      0.031200
     52 H20         9.6580   -0.2680    3.8920 h1        1 42P      0.034033
     53 H21         8.4110    0.3790    5.0780 h1        1 42P      0.034033
     54 H22         8.4290   -1.4020    4.6560 h1        1 42P      0.034033
     55 H23        -6.0330    2.0980    1.8080 ha        1 42P      0.140000
     56 H24        -7.9260    0.5540    1.3110 ha        1 42P      0.136000
     57 H25        -7.5020   -1.7730    0.5660 ha        1 42P      0.136000
     58 H26        -5.1680   -2.6230    0.2920 ha        1 42P      0.150000
@<TRIPOS>BOND
     1    1    2 ar  
     2    1    6 ar  
     3    1    7 1   
     4    2    3 ar  
     5    3    4 ar  
     6    3    8 1   
     7    4    5 ar  
     8    5    6 ar  
     9    5    9 1   
    10    6   10 1   
    11    7   11 1   
    12    7   33 1   
    13    8   20 1   
    14    8   34 1   
    15   10   25 1   
    16   10   28 2   
    17   11   12 1   
    18   11   15 1   
    19   11   35 1   
    20   12   13 1   
    21   12   16 1   
    22   12   36 1   
    23   13   14 1   
    24   13   17 1   
    25   13   37 1   
    26   14   15 1   
    27   14   18 1   
    28   14   38 1   
    29   15   39 1   
    30   15   40 1   
    31   16   41 1   
    32   17   42 1   
    33   18   19 1   
    34   18   43 1   
    35   18   44 1   
    36   19   45 1   
    37   20   21 1   
    38   20   46 1   
    39   20   47 1   
    40   21   22 1   
    41   21   48 1   
    42   21   49 1   
    43   22   23 1   
    44   22   50 1   
    45   22   51 1   
    46   23   24 1   
    47   24   52 1   
    48   24   53 1   
    49   24   54 1   
    50   25   26 1   
    51   26   27 ar  
    52   26   29 ar  
    53   27   28 1   
    54   27   32 ar  
    55   29   30 ar  
    56   29   55 1   
    57   30   31 ar  
    58   30   56 1   
    59   31   32 ar  
    60   31   57 1   
    61   32   58 1   
@<TRIPOS>SUBSTRUCTURE
     1 42P         1 TEMP              0 ****  ****    0 ROOT
