@<TRIPOS>MOLECULE
42P
   58    61     1     0     0
SMALL
bcc


@<TRIPOS>ATOM
      1 C01         0.0430    0.1080   -0.0870 ca        1 42P      0.766200
      2 N02         1.4070    0.1640   -0.0600 nb        1 42P     -0.815000
      3 C03         2.0170    0.1560    1.1830 ca        1 42P      0.934900
      4 N04         1.3540    0.0310    2.4010 nb        1 42P     -0.778000
      5 C05         0.0120   -0.0310    2.3360 ca        1 42P      0.615300
      6 C06        -0.7250    0.0300    1.1350 ca        1 42P     -0.474500
      7 N07        -0.6320    0.1960   -1.3000 nh        1 42P     -0.828900
      8 N08         3.4020    0.3340    1.1970 nh        1 42P     -0.833900
      9 CL9        -0.8310   -0.2020    3.8180 cl        1 42P     -0.135000
     10 C10        -2.1730   -0.0020    1.1210 cc        1 42P      0.440800
     11 C11         0.0380    0.0670   -2.5700 c3        1 42P      0.175500
     12 C12         0.3160   -1.3960   -3.0300 c3        1 42P      0.127100
     13 C13         0.4400   -1.3050   -4.5690 c3        1 42P      0.105100
     14 C14        -0.2680   -0.0070   -5.0000 c3        1 42P     -0.105700
     15 C15        -0.7750    0.6750   -3.7330 c3        1 42P     -0.073400
     16 O16         1.4400   -1.9660   -2.4160 oh        1 42P     -0.570800
     17 O17         1.8250   -1.2570   -4.8680 oh        1 42P     -0.598800
     18 C18        -1.3900   -0.3000   -5.9870 c3        1 42P      0.136400
     19 O19        -1.8280    0.9430   -6.5090 oh        1 42P     -0.597800
     20 C20         4.1690    0.0260    2.3810 c3        1 42P      0.208800
     21 C21         5.6750    0.1200    2.1390 c3        1 42P     -0.100400
     22 C22         6.4020   -0.1820    3.4380 c3        1 42P      0.131400
     23 O23         7.7960   -0.1020    3.1450 os        1 42P     -0.422600
     24 C24         8.6040   -0.3560    4.2810 c3        1 42P      0.116700
     25 S25        -3.0580    1.4350    1.5660 ss        1 42P     -0.013100
     26 C26        -4.5240    0.6440    1.3130 ca        1 42P     -0.094100
     27 C27        -4.2760   -0.7060    0.8890 ca        1 42P      0.075400
     28 N28        -2.9200   -1.0460    0.7870 nd        1 42P     -0.523100
     29 C29        -5.8360    1.1020    1.4560 ca        1 42P     -0.091000
     30 C30        -6.8880    0.2420    1.1830 ca        1 42P     -0.119000
     31 C31        -6.6500   -1.0810    0.7700 ca        1 42P     -0.134000
     32 C32        -5.3620   -1.5640    0.6200 ca        1 42P     -0.075000
     33 H1         -1.5720   -0.1380   -1.2880 hn        1 42P      0.433800
     34 H2          3.8710    0.2190    0.3230 hn        1 42P      0.439800
     35 H3          1.0300    0.6050   -2.5170 h1        1 42P      0.096700
     36 H4         -0.5340   -2.0820   -2.7600 h1        1 42P      0.081700
     37 H5         -0.0180   -2.2090   -5.0530 h1        1 42P      0.047700
     38 H6          0.4770    0.6680   -5.5060 hc        1 42P      0.081700
     39 H7         -1.8730    0.4950   -3.6060 hc        1 42P      0.060700
     40 H8         -0.6200    1.7800   -3.7850 hc        1 42P      0.060700
     41 H9          2.2100   -1.4320   -2.6540 ho        1 42P      0.421000
     42 H10         1.9040   -1.2430   -5.8290 ho        1 42P      0.409000
     43 H11        -1.0070   -0.9470   -6.8240 h1        1 42P      0.023700
     44 H12        -2.2400   -0.8310   -5.4800 h1        1 42P      0.023700
     45 H13        -2.5720    0.7500   -7.0910 ho        1 42P      0.403000
     46 H14         3.9230   -1.0090    2.7590 h1        1 42P      0.057700
     47 H15         3.8760    0.7590    3.1880 h1        1 42P      0.057700
     48 H16         6.0000   -0.6120    1.3550 hc        1 42P      0.062700
     49 H17         5.9600    1.1440    1.7840 hc        1 42P      0.062700
     50 H18         6.1390    0.5680    4.2310 h1        1 42P      0.031200
     51 H19         6.1550   -1.2110    3.8110 h1        1 42P      0.031200
     52 H20         8.4210   -1.3860    4.6740 h1        1 42P      0.034033
     53 H21         9.6530   -0.2600    3.9040 h1        1 42P      0.034033
     54 H22         8.4050    0.3980    5.0830 h1        1 42P      0.034033
     55 H23        -6.0270    2.1350    1.7820 ha        1 42P      0.140000
     56 H24        -7.9250    0.5930    1.2930 ha        1 42P      0.136000
     57 H25        -7.5080   -1.7400    0.5650 ha        1 42P      0.136000
     58 H26        -5.1760   -2.6000    0.3010 ha        1 42P      0.150000
@<TRIPOS>BOND
     1    1    2 ar  
     2    1    6 ar  
     3    1    7 1   
     4    2    3 ar  
     5    3    4 ar  
     6    3    8 1   
     7    4    5 ar  
     8    5    6 ar  
     9    5    9 1   
    10    6   10 1   
    11    7   11 1   
    12    7   33 1   
    13    8   20 1   
    14    8   34 1   
    15   10   25 1   
    16   10   28 2   
    17   11   12 1   
    18   11   15 1   
    19   11   35 1   
    20   12   13 1   
    21   12   16 1   
    22   12   36 1   
    23   13   14 1   
    24   13   17 1   
    25   13   37 1   
    26   14   15 1   
    27   14   18 1   
    28   14   38 1   
    29   15   39 1   
    30   15   40 1   
    31   16   41 1   
    32   17   42 1   
    33   18   19 1   
    34   18   43 1   
    35   18   44 1   
    36   19   45 1   
    37   20   21 1   
    38   20   46 1   
    39   20   47 1   
    40   21   22 1   
    41   21   48 1   
    42   21   49 1   
    43   22   23 1   
    44   22   50 1   
    45   22   51 1   
    46   23   24 1   
    47   24   52 1   
    48   24   53 1   
    49   24   54 1   
    50   25   26 1   
    51   26   27 ar  
    52   26   29 ar  
    53   27   28 1   
    54   27   32 ar  
    55   29   30 ar  
    56   29   55 1   
    57   30   31 ar  
    58   30   56 1   
    59   31   32 ar  
    60   31   57 1   
    61   32   58 1   
@<TRIPOS>SUBSTRUCTURE
     1 42P         1 TEMP              0 ****  ****    0 ROOT
