@<TRIPOS>MOLECULE
42Q
   49    52     1     0     0
SMALL
bcc


@<TRIPOS>ATOM
      1 C1         -0.9590    0.2450    0.0920 ca        1 42Q      0.462100
      2 N2         -0.7000    1.5500   -0.1310 nb        1 42Q     -0.609000
      3 C3         -0.0950    2.2060    0.8860 ca        1 42Q      0.635900
      4 N4          0.2820    1.7070    2.1030 nb        1 42Q     -0.752000
      5 C5          0.0210    0.4020    2.3220 ca        1 42Q      0.585600
      6 C6         -0.6050   -0.4220    1.3670 ca        1 42Q     -0.257800
      7 N8         -0.9770   -1.7560    1.2800 na        1 42Q     -0.047400
      8 C9         -1.5590   -1.9580    0.0180 cc        1 42Q     -0.052100
      9 C10        -1.5690   -0.7820   -0.7260 cd        1 42Q     -0.278800
     10 C11        -0.8290   -2.7540    2.2900 c3        1 42Q      0.021600
     11 O17         0.4840   -0.2250    3.5000 os        1 42Q     -0.335400
     12 C18         0.6490    0.5160    4.6300 ca        1 42Q      0.282100
     13 C19        -0.1320    1.6360    4.9910 ca        1 42Q     -0.146000
     14 C20         0.1120    2.3030    6.1770 ca        1 42Q     -0.017000
     15 C21         1.1410    1.8650    7.0420 ca        1 42Q     -0.224400
     16 C22         1.8820    0.6890    6.7070 ca        1 42Q      0.168900
     17 C23         1.6460    0.0230    5.5120 ca        1 42Q     -0.158000
     18 N27         1.4840    2.6480    8.2210 n4        1 42Q     -0.459200
     19 C28         0.9090    2.0480    9.4730 c         1 42Q      0.477100
     20 N29         1.7440    1.0430   10.2120 n4        1 42Q     -0.500200
     21 C30         2.8920    1.6890   10.8630 ca        1 42Q     -0.123400
     22 O31        -0.1960    2.3560    9.8810 o         1 42Q     -0.301100
     23 F34         2.8270    0.2410    7.5740 f         1 42Q     -0.154900
     24 C35         2.7510    2.2190   12.1630 ca        1 42Q     -0.062000
     25 C36         3.8640    2.7760   12.7870 ca        1 42Q     -0.090000
     26 C37         5.1040    2.8140   12.1400 ca        1 42Q      0.006000
     27 C38         5.2260    2.2830   10.8510 ca        1 42Q     -0.141300
     28 C39         4.1350    1.7080   10.2040 ca        1 42Q     -0.085000
     29 C44         6.5800    2.3060   10.1190 c3        1 42Q      0.694200
     30 F45         7.4520    3.2410   10.6020 f         1 42Q     -0.204300
     31 F46         7.2400    1.1090   10.1710 f         1 42Q     -0.204300
     32 F47         6.4440    2.5850    8.7810 f         1 42Q     -0.204300
     33 H3          0.1360    3.2800    0.7170 h5        1 42Q      0.077100
     34 H9         -1.9270   -2.9520   -0.2610 h4        1 42Q      0.197000
     35 H10        -1.9510   -0.6420   -1.7360 ha        1 42Q      0.201000
     36 H11        -1.7440   -2.7850    2.9420 h1        1 42Q      0.063367
     37 H11A        0.0670   -2.5200    2.9240 h1        1 42Q      0.063367
     38 H11B       -0.6910   -3.7580    1.8060 h1        1 42Q      0.063367
     39 H19        -0.9380    1.9940    4.3230 ha        1 42Q      0.215000
     40 H20        -0.5040    3.1860    6.4290 ha        1 42Q      0.177000
     41 H23         2.2340   -0.8700    5.2340 ha        1 42Q      0.216000
     42 HN27        2.5140    2.7250    8.2960 hn        1 42Q      0.503800
     43 HN29        1.1400    0.6090   10.9380 hn        1 42Q      0.508800
     44 H35         1.7860    2.1940   12.7000 ha        1 42Q      0.180000
     45 H36         3.7660    3.1860   13.8110 ha        1 42Q      0.206000
     46 H37         5.9860    3.2600   12.6430 ha        1 42Q      0.213000
     47 H39         4.2840    1.2570    9.2050 ha        1 42Q      0.176000
     48 H272        1.0760    3.5990    8.1210 hn        1 42Q      0.503800
     49 H292        2.0810    0.3020    9.5660 hn        1 42Q      0.508800
@<TRIPOS>BOND
     1    1    2 ar  
     2    1    6 ar  
     3    1    9 1   
     4    2    3 ar  
     5    3    4 ar  
     6    3   33 1   
     7    4    5 ar  
     8    5    6 ar  
     9    5   11 1   
    10    6    7 1   
    11    7    8 1   
    12    7   10 1   
    13    8    9 2   
    14    8   34 1   
    15    9   35 1   
    16   10   36 1   
    17   10   37 1   
    18   10   38 1   
    19   11   12 1   
    20   12   13 ar  
    21   12   17 ar  
    22   13   14 ar  
    23   13   39 1   
    24   14   15 ar  
    25   14   40 1   
    26   15   16 ar  
    27   15   18 1   
    28   16   17 ar  
    29   16   23 1   
    30   17   41 1   
    31   18   19 1   
    32   18   42 1   
    33   18   48 1   
    34   19   20 1   
    35   19   22 2   
    36   20   21 1   
    37   20   43 1   
    38   20   49 1   
    39   21   24 ar  
    40   21   28 ar  
    41   24   25 ar  
    42   24   44 1   
    43   25   26 ar  
    44   25   45 1   
    45   26   27 ar  
    46   26   46 1   
    47   27   28 ar  
    48   27   29 1   
    49   28   47 1   
    50   29   30 1   
    51   29   31 1   
    52   29   32 1   
@<TRIPOS>SUBSTRUCTURE
     1 42Q         1 TEMP              0 ****  ****    0 ROOT
