@<TRIPOS>MOLECULE
42Q
   47    50     1     0     0
SMALL
bcc


@<TRIPOS>ATOM
      1 C1          0.0130   -0.3580   -0.3110 ca        1 42Q      0.440100
      2 N2          1.3490   -0.5920   -0.4100 nb        1 42Q     -0.663000
      3 C3          1.9980   -0.6670    0.7650 ca        1 42Q      0.632900
      4 N4          1.4920   -0.5430    2.0380 nb        1 42Q     -0.745000
      5 C5          0.1690   -0.3170    2.1390 ca        1 42Q      0.661600
      6 C6         -0.6530   -0.2050    0.9820 ca        1 42Q     -0.295800
      7 N8         -2.0110    0.0070    0.7580 na        1 42Q     -0.036400
      8 C9         -2.2170    0.0150   -0.6250 cc        1 42Q     -0.088100
      9 C10        -1.0220   -0.2110   -1.3090 cd        1 42Q     -0.301800
     10 C11        -3.0020    0.2990    1.7420 c3        1 42Q      0.021600
     11 O17        -0.4830   -0.1940    3.3580 os        1 42Q     -0.378400
     12 C18         0.2990   -0.2120    4.5170 ca        1 42Q      0.109100
     13 C19         1.2170    0.8040    4.7940 ca        1 42Q     -0.113000
     14 C20         1.8770    0.8190    6.0170 ca        1 42Q     -0.100000
     15 C21         1.6300   -0.1730    6.9880 ca        1 42Q      0.025600
     16 C22         0.6850   -1.2000    6.6790 ca        1 42Q      0.082900
     17 C23         0.0330   -1.2270    5.4380 ca        1 42Q     -0.141000
     18 N27         2.3310   -0.2220    8.2100 n         1 42Q     -0.453100
     19 C28         2.6620    0.9480    8.9320 c         1 42Q      0.770100
     20 N29         3.1020    0.7640   10.2630 n         1 42Q     -0.463100
     21 C30         3.6960    1.7920   11.0210 ca        1 42Q      0.061600
     22 O31         2.5800    2.0840    8.4180 o         1 42Q     -0.602100
     23 F34         0.4200   -2.1800    7.5820 f         1 42Q     -0.145900
     24 C35         4.6750    1.4520   11.9850 ca        1 42Q     -0.152000
     25 C36         5.2280    2.4310   12.8030 ca        1 42Q     -0.110000
     26 C37         4.8360    3.7630   12.6820 ca        1 42Q     -0.104000
     27 C38         3.8760    4.1030   11.7300 ca        1 42Q     -0.145300
     28 C39         3.2990    3.1410   10.9020 ca        1 42Q     -0.091000
     29 C44         3.4530    5.5610   11.5790 c3        1 42Q      0.688200
     30 F45         3.5660    6.3080   12.7280 f         1 42Q     -0.235300
     31 F46         4.1830    6.2650   10.6520 f         1 42Q     -0.235300
     32 F47         2.1480    5.7440   11.1900 f         1 42Q     -0.235300
     33 H3          3.0910   -0.8560    0.7210 h5        1 42Q      0.056100
     34 H9         -3.2200    0.1750   -1.0300 h4        1 42Q      0.173000
     35 H10        -0.8820   -0.2710   -2.3840 ha        1 42Q      0.174000
     36 H11        -2.6780   -0.1080    2.7380 h1        1 42Q      0.060700
     37 H11A       -3.1480    1.4100    1.8330 h1        1 42Q      0.060700
     38 H11B       -3.9750   -0.1740    1.4430 h1        1 42Q      0.060700
     39 H19         1.4260    1.5810    4.0430 ha        1 42Q      0.160000
     40 H20         2.5950    1.6300    6.2310 ha        1 42Q      0.179000
     41 H23        -0.6830   -2.0290    5.2070 ha        1 42Q      0.165000
     42 HN27        2.1840   -1.0630    8.7280 hn        1 42Q      0.317500
     43 HN29        3.3550   -0.1570   10.5480 hn        1 42Q      0.313500
     44 H35         5.0070    0.4080   12.1010 ha        1 42Q      0.136000
     45 H36         5.9860    2.1500   13.5500 ha        1 42Q      0.144000
     46 H37         5.2740    4.5380   13.3300 ha        1 42Q      0.154000
     47 H39         2.5420    3.4460   10.1570 ha        1 42Q      0.187000
@<TRIPOS>BOND
     1    1    2 ar  
     2    1    6 ar  
     3    1    9 1   
     4    2    3 ar  
     5    3    4 ar  
     6    3   33 1   
     7    4    5 ar  
     8    5    6 ar  
     9    5   11 1   
    10    6    7 1   
    11    7    8 1   
    12    7   10 1   
    13    8    9 2   
    14    8   34 1   
    15    9   35 1   
    16   10   36 1   
    17   10   37 1   
    18   10   38 1   
    19   11   12 1   
    20   12   13 ar  
    21   12   17 ar  
    22   13   14 ar  
    23   13   39 1   
    24   14   15 ar  
    25   14   40 1   
    26   15   16 ar  
    27   15   18 1   
    28   16   17 ar  
    29   16   23 1   
    30   17   41 1   
    31   18   19 1   
    32   18   42 1   
    33   19   20 1   
    34   19   22 2   
    35   20   21 1   
    36   20   43 1   
    37   21   24 ar  
    38   21   28 ar  
    39   24   25 ar  
    40   24   44 1   
    41   25   26 ar  
    42   25   45 1   
    43   26   27 ar  
    44   26   46 1   
    45   27   28 ar  
    46   27   29 1   
    47   28   47 1   
    48   29   30 1   
    49   29   31 1   
    50   29   32 1   
@<TRIPOS>SUBSTRUCTURE
     1 42Q         1 TEMP              0 ****  ****    0 ROOT
