@<TRIPOS>MOLECULE
42Q
   47    38     1     0     0
SMALL
bcc


@<TRIPOS>ATOM
      1 C1         -5.2310   -0.1140   -4.6740 c1        1 42Q     -0.058500
      2 N2         -6.0250    0.4670   -3.7310 n1        1 42Q     -0.136000
      3 C3         -5.5600    0.6400   -2.4560 c1        1 42Q     -0.030000
      4 N4         -4.2860    0.2250   -2.1220 n1        1 42Q     -0.219000
      5 C5         -3.5070   -0.3440   -3.0420 c1        1 42Q      0.162000
      6 C6         -3.9830   -0.5210   -4.3490 c1        1 42Q     -0.058500
      7 N8         -3.4220   -1.1120   -5.4660 n1        1 42Q     -0.128000
      8 C9         -4.3340   -1.0630   -6.4690 c1        1 42Q     -0.061000
      9 C10        -5.4570   -0.4470   -5.9890 c1        1 42Q     -0.192000
     10 C11        -2.3340   -1.8750   -6.0170 c2        1 42Q     -0.077000
     11 O17        -2.0810   -0.1360   -3.0480 os        1 42Q     -0.164000
     12 C18        -1.5970   -0.0780   -1.7010 c2        1 42Q      0.082000
     13 C19        -1.3760   -1.2590   -0.9910 c2        1 42Q     -0.130000
     14 C20        -0.7800   -1.2150    0.2620 c1        1 42Q     -0.126000
     15 C21        -0.4020    0.0080    0.8110 c1        1 42Q      0.007000
     16 C22        -0.6220    1.1850    0.1030 c1        1 42Q      0.133000
     17 C23        -1.2200    1.1400   -1.1540 c1        1 42Q     -0.155000
     18 N27         0.0510    0.0660    2.1310 n         1 42Q     -0.309000
     19 C28         1.4810    0.1820    2.4050 c2        1 42Q      0.382000
     20 N29         1.9450    0.2850    3.7570 n         1 42Q     -0.311000
     21 C30         3.3500    0.4440    4.0250 c2        1 42Q      0.067000
     22 O31         2.2900    0.2280    1.4650 o         1 42Q     -0.347000
     23 F34        -0.2640    2.3660    0.6330 f         1 42Q     -0.082000
     24 C35         3.0060    1.1940    5.1610 c2        1 42Q     -0.152000
     25 C36         3.9970    1.5950    6.0550 c1        1 42Q     -0.111000
     26 C37         5.3310    1.2490    5.8210 c1        1 42Q     -0.105000
     27 C38         5.6720    0.5040    4.6930 c1        1 42Q     -0.138000
     28 C39         4.6830    0.1010    3.7950 c1        1 42Q     -0.091000
     29 C44         7.0940    0.1700    4.4270 c3        1 42Q      0.467000
     30 F45         7.5340    0.8920    3.3830 f         1 42Q     -0.164333
     31 F46         7.2000   -1.1400    4.1440 f         1 42Q     -0.164333
     32 F47         7.8350    0.4550    5.5160 f         1 42Q     -0.164333
     33 H3         -6.1380    1.0630   -1.7700 ha        1 42Q      0.193000
     34 H9         -4.2330   -1.4560   -7.3480 DU        1 42Q      0.174000
     35 H10        -6.2870   -0.2710   -6.4990 DU        1 42Q      0.174000
     36 H11        -2.6650   -2.7270   -6.3300 ha        1 42Q      0.100667
     37 H11A       -1.6640   -2.0210   -5.3340 ha        1 42Q      0.100667
     38 H11B       -1.9320   -1.3780   -6.7740 ha        1 42Q      0.100667
     39 H19        -1.6420   -2.1160   -1.3750 ha        1 42Q      0.155000
     40 H20        -0.6250   -2.0450    0.7600 ha        1 42Q      0.141000
     41 H23        -1.3720    1.9530   -1.6430 ha        1 42Q      0.171000
     42 HN27       -0.5510   -0.0060    2.8310 hn        1 42Q      0.222000
     43 HN29        1.3420    0.2340    4.4580 hn        1 42Q      0.225000
     44 H35         2.0660    1.4370    5.3270 ha        1 42Q      0.136000
     45 H36         3.7520    2.1320    6.8690 ha        1 42Q      0.143000
     46 H37         6.0340    1.5340    6.4550 ha        1 42Q      0.154000
     47 H39         4.9270   -0.4260    2.9940 ha        1 42Q      0.186000
@<TRIPOS>BOND
     1    1    6 1   
     2    2    3 1   
     3    3   33 1   
     4    4    5 1   
     5    5   11 1   
     6    7    8 1   
     7    8    9 1   
     8   10   36 1   
     9   10   37 1   
    10   10   38 1   
    11   11   12 1   
    12   12   13 1   
    13   12   17 1   
    14   13   14 1   
    15   13   39 1   
    16   14   40 1   
    17   15   16 1   
    18   15   18 1   
    19   16   23 1   
    20   17   41 1   
    21   18   19 1   
    22   18   42 1   
    23   19   20 1   
    24   19   22 1   
    25   20   21 1   
    26   20   43 1   
    27   21   24 1   
    28   21   28 1   
    29   24   25 1   
    30   24   44 1   
    31   25   45 1   
    32   26   27 1   
    33   26   46 1   
    34   27   29 1   
    35   28   47 1   
    36   29   30 1   
    37   29   31 1   
    38   29   32 1   
@<TRIPOS>SUBSTRUCTURE
     1 42Q         1 TEMP              0 ****  ****    0 ROOT
