@<TRIPOS>MOLECULE
42Q
   47    50     1     0     0
SMALL
bcc


@<TRIPOS>ATOM
      1 C1          0.0170   -0.3750   -0.3090 ca        1 42Q      0.440100
      2 N2          1.3510   -0.6220   -0.4040 nb        1 42Q     -0.663000
      3 C3          1.9970   -0.6970    0.7740 ca        1 42Q      0.632900
      4 N4          1.4880   -0.5620    2.0440 nb        1 42Q     -0.745000
      5 C5          0.1670   -0.3230    2.1410 ca        1 42Q      0.661600
      6 C6         -0.6510   -0.2090    0.9820 ca        1 42Q     -0.295800
      7 N8         -2.0060    0.0150    0.7530 na        1 42Q     -0.036400
      8 C9         -2.2090    0.0180   -0.6300 cc        1 42Q     -0.088100
      9 C10        -1.0150   -0.2230   -1.3100 cd        1 42Q     -0.301800
     10 C11        -2.9970    0.3200    1.7340 c3        1 42Q      0.021600
     11 O17        -0.4860   -0.1880    3.3580 os        1 42Q     -0.378400
     12 C18         0.2920   -0.2090    4.5190 ca        1 42Q      0.109100
     13 C19         1.2200    0.8000    4.7940 ca        1 42Q     -0.113000
     14 C20         1.8770    0.8140    6.0190 ca        1 42Q     -0.100000
     15 C21         1.6170   -0.1710    6.9940 ca        1 42Q      0.025600
     16 C22         0.6630   -1.1900    6.6870 ca        1 42Q      0.082900
     17 C23         0.0140   -1.2170    5.4450 ca        1 42Q     -0.141000
     18 N27         2.3140   -0.2210    8.2170 ns        1 42Q     -0.453100
     19 C28         2.6540    0.9490    8.9360 c         1 42Q      0.770100
     20 N29         3.0880    0.7670   10.2690 ns        1 42Q     -0.463100
     21 C30         3.6890    1.7930   11.0240 ca        1 42Q      0.061600
     22 O31         2.5860    2.0830    8.4160 o         1 42Q     -0.602100
     23 F34         0.3850   -2.1630    7.5930 f         1 42Q     -0.145900
     24 C35         4.6620    1.4480   11.9930 ca        1 42Q     -0.152000
     25 C36         5.2210    2.4250   12.8080 ca        1 42Q     -0.110000
     26 C37         4.8430    3.7600   12.6800 ca        1 42Q     -0.104000
     27 C38         3.8890    4.1050   11.7230 ca        1 42Q     -0.145300
     28 C39         3.3060    3.1460   10.8970 ca        1 42Q     -0.091000
     29 C44         3.4820    5.5670   11.5630 c3        1 42Q      0.688200
     30 F45         3.5960    6.3170   12.7090 f         1 42Q     -0.235300
     31 F46         4.2230    6.2590   10.6370 f         1 42Q     -0.235300
     32 F47         2.1810    5.7600   11.1670 f         1 42Q     -0.235300
     33 H3          3.0880   -0.8960    0.7330 h5        1 42Q      0.056100
     34 H9         -3.2090    0.1860   -1.0380 h4        1 42Q      0.173000
     35 H10        -0.8720   -0.2890   -2.3840 ha        1 42Q      0.174000
     36 H11        -3.9730   -0.1460    1.4350 h1        1 42Q      0.060700
     37 H11A       -2.6780   -0.0830    2.7330 h1        1 42Q      0.060700
     38 H11B       -3.1340    1.4330    1.8180 h1        1 42Q      0.060700
     39 H19         1.4380    1.5710    4.0400 ha        1 42Q      0.160000
     40 H20         2.6020    1.6190    6.2310 ha        1 42Q      0.179000
     41 H23        -0.7100   -2.0120    5.2150 ha        1 42Q      0.165000
     42 HN27        2.1580   -1.0590    8.7390 hn        1 42Q      0.317500
     43 HN29        3.3310   -0.1550   10.5590 hn        1 42Q      0.313500
     44 H35         4.9830    0.4010   12.1150 ha        1 42Q      0.136000
     45 H36         5.9740    2.1400   13.5600 ha        1 42Q      0.144000
     46 H37         5.2860    4.5340   13.3260 ha        1 42Q      0.154000
     47 H39         2.5550    3.4540   10.1480 ha        1 42Q      0.187000
@<TRIPOS>BOND
     1    1    2 ar  
     2    1    6 ar  
     3    1    9 1   
     4    2    3 ar  
     5    3    4 ar  
     6    3   33 1   
     7    4    5 ar  
     8    5    6 ar  
     9    5   11 1   
    10    6    7 1   
    11    7    8 1   
    12    7   10 1   
    13    8    9 2   
    14    8   34 1   
    15    9   35 1   
    16   10   36 1   
    17   10   37 1   
    18   10   38 1   
    19   11   12 1   
    20   12   13 ar  
    21   12   17 ar  
    22   13   14 ar  
    23   13   39 1   
    24   14   15 ar  
    25   14   40 1   
    26   15   16 ar  
    27   15   18 1   
    28   16   17 ar  
    29   16   23 1   
    30   17   41 1   
    31   18   19 1   
    32   18   42 1   
    33   19   20 1   
    34   19   22 2   
    35   20   21 1   
    36   20   43 1   
    37   21   24 ar  
    38   21   28 ar  
    39   24   25 ar  
    40   24   44 1   
    41   25   26 ar  
    42   25   45 1   
    43   26   27 ar  
    44   26   46 1   
    45   27   28 ar  
    46   27   29 1   
    47   28   47 1   
    48   29   30 1   
    49   29   31 1   
    50   29   32 1   
@<TRIPOS>SUBSTRUCTURE
     1 42Q         1 TEMP              0 ****  ****    0 ROOT
