@<TRIPOS>MOLECULE
42Q
   47    50     1     0     0
SMALL
bcc


@<TRIPOS>ATOM
      1 C1         -7.0420    1.0450   -1.0420 ca        1 42Q      0.440100
      2 N2         -6.6860    0.9380   -2.3500 nb        1 42Q     -0.663000
      3 C3         -5.4540    0.4420   -2.5620 ca        1 42Q      0.632900
      4 N4         -4.5210    0.0310   -1.6390 nb        1 42Q     -0.745000
      5 C5         -4.8730    0.1310   -0.3430 ca        1 42Q      0.661600
      6 C6         -6.1440    0.6440    0.0410 ca        1 42Q     -0.295800
      7 N8         -6.7920    0.8570    1.2540 na        1 42Q     -0.036400
      8 C9         -8.0520    1.3960    0.9750 cc        1 42Q     -0.088100
      9 C10        -8.2480    1.5180   -0.4010 cd        1 42Q     -0.301800
     10 C11        -6.2370    0.6870    2.5580 c3        1 42Q      0.021600
     11 O17        -4.0430   -0.2690    0.6950 os        1 42Q     -0.378400
     12 C18        -2.7540   -0.7000    0.3670 ca        1 42Q      0.109100
     13 C19        -1.8110    0.1720   -0.1820 ca        1 42Q     -0.113000
     14 C20        -0.5030   -0.2600   -0.3700 ca        1 42Q     -0.100000
     15 C21        -0.1100   -1.5640   -0.0070 ca        1 42Q      0.025600
     16 C22        -1.0950   -2.4350    0.5540 ca        1 42Q      0.082900
     17 C23        -2.4190   -2.0070    0.7260 ca        1 42Q     -0.141000
     18 N27         1.1900   -2.0520   -0.2450 n         1 42Q     -0.453100
     19 C28         2.3380   -1.2440   -0.0720 c         1 42Q      0.770100
     20 N29         3.5840   -1.9120   -0.0590 n         1 42Q     -0.463100
     21 C30         4.8160   -1.2350   -0.1430 ca        1 42Q      0.061600
     22 O31         2.2570   -0.0040    0.0510 o         1 42Q     -0.602100
     23 F34        -0.7630   -3.7020    0.9130 f         1 42Q     -0.145900
     24 C35         5.9050   -1.8750   -0.7820 ca        1 42Q     -0.152000
     25 C36         7.1560   -1.2680   -0.8180 ca        1 42Q     -0.110000
     26 C37         7.3560   -0.0180   -0.2360 ca        1 42Q     -0.104000
     27 C38         6.2840    0.6190    0.3890 ca        1 42Q     -0.145300
     28 C39         5.0220    0.0310    0.4470 ca        1 42Q     -0.091000
     29 C44         6.4900    1.9950    1.0140 c3        1 42Q      0.688200
     30 F45         7.7710    2.2360    1.4500 f         1 42Q     -0.235300
     31 F46         6.2260    3.0430    0.1650 f         1 42Q     -0.235300
     32 F47         5.7100    2.2490    2.1150 f         1 42Q     -0.235300
     33 H3         -5.1300    0.3430   -3.6190 h5        1 42Q      0.056100
     34 H9         -8.7330    1.6500    1.7910 h4        1 42Q      0.173000
     35 H10        -9.1320    1.8920   -0.9080 ha        1 42Q      0.174000
     36 H11        -5.8370    1.6640    2.9440 h1        1 42Q      0.060700
     37 H11A       -7.0350    0.3180    3.2570 h1        1 42Q      0.060700
     38 H11B       -5.3990   -0.0590    2.5190 h1        1 42Q      0.060700
     39 H19        -2.1050    1.1910   -0.4770 ha        1 42Q      0.160000
     40 H20         0.2380    0.4380   -0.7970 ha        1 42Q      0.179000
     41 H23        -3.1710   -2.6890    1.1480 ha        1 42Q      0.165000
     42 HN27        1.2880   -3.0360   -0.0990 hn        1 42Q      0.317500
     43 HN29        3.6100   -2.8570   -0.3760 hn        1 42Q      0.313500
     44 H35         5.7760   -2.8610   -1.2530 ha        1 42Q      0.136000
     45 H36         7.9940   -1.7800   -1.3150 ha        1 42Q      0.144000
     46 H37         8.3470    0.4630   -0.2640 ha        1 42Q      0.154000
     47 H39         4.1940    0.5640    0.9490 ha        1 42Q      0.187000
@<TRIPOS>BOND
     1    1    2 ar  
     2    1    6 ar  
     3    1    9 1   
     4    2    3 ar  
     5    3    4 ar  
     6    3   33 1   
     7    4    5 ar  
     8    5    6 ar  
     9    5   11 1   
    10    6    7 1   
    11    7    8 1   
    12    7   10 1   
    13    8    9 2   
    14    8   34 1   
    15    9   35 1   
    16   10   36 1   
    17   10   37 1   
    18   10   38 1   
    19   11   12 1   
    20   12   13 ar  
    21   12   17 ar  
    22   13   14 ar  
    23   13   39 1   
    24   14   15 ar  
    25   14   40 1   
    26   15   16 ar  
    27   15   18 1   
    28   16   17 ar  
    29   16   23 1   
    30   17   41 1   
    31   18   19 1   
    32   18   42 1   
    33   19   20 1   
    34   19   22 2   
    35   20   21 1   
    36   20   43 1   
    37   21   24 ar  
    38   21   28 ar  
    39   24   25 ar  
    40   24   44 1   
    41   25   26 ar  
    42   25   45 1   
    43   26   27 ar  
    44   26   46 1   
    45   27   28 ar  
    46   27   29 1   
    47   28   47 1   
    48   29   30 1   
    49   29   31 1   
    50   29   32 1   
@<TRIPOS>SUBSTRUCTURE
     1 42Q         1 TEMP              0 ****  ****    0 ROOT
