@<TRIPOS>MOLECULE
42R
   31    32     1     0     0
SMALL
bcc


@<TRIPOS>ATOM
      1 C1          0.0770    0.1660    0.0850 c3        1 42R      0.175100
      2 N1          1.4480   -0.2890    0.0440 nh        1 42R     -0.639400
      3 C2          2.2160   -0.0760    1.2540 c3        1 42R      0.195800
      4 C3          3.2010    1.1120    1.2480 c3        1 42R      0.031800
      5 C4          4.1960    0.9530    2.3900 c3        1 42R     -0.119100
      6 O1          2.4140    2.2840    1.4350 oh        1 42R     -0.591800
      7 C5          3.9430    1.2200   -0.0890 c         1 42R      0.556300
      8 O2          4.9400    1.9470   -0.1860 o         1 42R     -0.541100
      9 C6          3.3720    0.5020   -1.2190 ce        1 42R     -0.332200
     10 C7          2.1510   -0.1030   -1.1610 cf        1 42R      0.224800
     11 C8          1.5590   -0.6510   -2.3990 ca        1 42R     -0.066800
     12 C9          0.9480   -1.9110   -2.4130 ca        1 42R     -0.103500
     13 C10         0.4270   -2.4250   -3.6000 ca        1 42R     -0.110500
     14 C11         0.5080   -1.6810   -4.7810 ca        1 42R     -0.015900
     15 BR1        -0.1950   -2.3700   -6.3730 br        1 42R     -0.081100
     16 C12         1.1160   -0.4220   -4.7710 ca        1 42R     -0.110500
     17 C13         1.6400    0.0900   -3.5860 ca        1 42R     -0.103500
     18 H1          0.0080    1.2690    0.2900 h1        1 42R      0.048700
     19 H2         -0.4530   -0.3880    0.9040 h1        1 42R      0.048700
     20 H3         -0.4240   -0.0610   -0.8930 h1        1 42R      0.048700
     21 H4          1.5130    0.0620    2.1220 h1        1 42R      0.069700
     22 H5          2.8220   -1.0130    1.4210 h1        1 42R      0.069700
     23 H6          4.9290    1.7960    2.3680 hc        1 42R      0.054367
     24 H7          4.7540   -0.0070    2.2890 hc        1 42R      0.054367
     25 H8          3.6550    0.9650    3.3660 hc        1 42R      0.054367
     26 H9          3.0260    3.0320    1.4520 ho        1 42R      0.416000
     27 H10         3.9590    0.5020   -2.1490 ha        1 42R      0.161000
     28 H11         0.8820   -2.5050   -1.4880 ha        1 42R      0.151500
     29 H12        -0.0450   -3.4190   -3.5970 ha        1 42R      0.150500
     30 H13         1.1850    0.1730   -5.6950 ha        1 42R      0.150500
     31 H14         2.1180    1.0820   -3.5820 ha        1 42R      0.151500
@<TRIPOS>BOND
     1    1    2 1   
     2    1   18 1   
     3    1   19 1   
     4    1   20 1   
     5    2    3 1   
     6    2   10 1   
     7    3    4 1   
     8    3   21 1   
     9    3   22 1   
    10    4    5 1   
    11    4    6 1   
    12    4    7 1   
    13    5   23 1   
    14    5   24 1   
    15    5   25 1   
    16    6   26 1   
    17    7    8 2   
    18    7    9 1   
    19    9   10 2   
    20    9   27 1   
    21   10   11 1   
    22   11   12 ar  
    23   11   17 ar  
    24   12   13 ar  
    25   12   28 1   
    26   13   14 ar  
    27   13   29 1   
    28   14   15 1   
    29   14   16 ar  
    30   16   17 ar  
    31   16   30 1   
    32   17   31 1   
@<TRIPOS>SUBSTRUCTURE
     1 42R         1 TEMP              0 ****  ****    0 ROOT
