@<TRIPOS>MOLECULE
42R
   31    32     1     0     0
SMALL
bcc


@<TRIPOS>ATOM
      1 C1          0.0740    0.1530    0.0910 c3        1 42R      0.175100
      2 N1          1.4450   -0.3010    0.0480 nh        1 42R     -0.639400
      3 C2          2.2120   -0.0990    1.2600 c3        1 42R      0.195800
      4 C3          3.1960    1.0900    1.2670 c3        1 42R      0.031800
      5 C4          4.1890    0.9210    2.4090 c3        1 42R     -0.119100
      6 O1          2.4080    2.2600    1.4650 oh        1 42R     -0.591800
      7 C5          3.9390    1.2120   -0.0680 c         1 42R      0.556300
      8 O2          4.9360    1.9410   -0.1560 o         1 42R     -0.541100
      9 C6          3.3700    0.5050   -1.2050 ce        1 42R     -0.332200
     10 C7          2.1500   -0.1020   -1.1540 cf        1 42R      0.224800
     11 C8          1.5590   -0.6380   -2.3980 ca        1 42R     -0.066800
     12 C9          0.9490   -1.8980   -2.4260 ca        1 42R     -0.103500
     13 C10         0.4300   -2.4000   -3.6180 ca        1 42R     -0.110500
     14 C11         0.5120   -1.6450   -4.7920 ca        1 42R     -0.015900
     15 Br1        -0.1890   -2.3190   -6.3910 br        1 42R     -0.081100
     16 C12         1.1180   -0.3850   -4.7680 ca        1 42R     -0.110500
     17 C13         1.6410    0.1150   -3.5780 ca        1 42R     -0.103500
     18 H1         -0.4250   -0.0640   -0.8890 h1        1 42R      0.048700
     19 H2         -0.4560   -0.4100    0.9040 h1        1 42R      0.048700
     20 H3          0.0040    1.2540    0.3080 h1        1 42R      0.048700
     21 H4          2.8190   -1.0370    1.4190 h1        1 42R      0.069700
     22 H5          1.5080    0.0300    2.1290 h1        1 42R      0.069700
     23 H6          4.9220    1.7640    2.3970 hc        1 42R      0.054367
     24 H7          4.7490   -0.0380    2.2990 hc        1 42R      0.054367
     25 H8          3.6480    0.9220    3.3850 hc        1 42R      0.054367
     26 H9          3.0190    3.0080    1.4910 ho        1 42R      0.416000
     27 H10         3.9580    0.5150   -2.1350 ha        1 42R      0.161000
     28 H11         0.8830   -2.5010   -1.5070 ha        1 42R      0.151500
     29 H12        -0.0420   -3.3950   -3.6260 ha        1 42R      0.150500
     30 H13         1.1880    0.2190   -5.6870 ha        1 42R      0.150500
     31 H14         2.1180    1.1070   -3.5630 ha        1 42R      0.151500
@<TRIPOS>BOND
     1    1    2 1   
     2    1   18 1   
     3    1   19 1   
     4    1   20 1   
     5    2    3 1   
     6    2   10 1   
     7    3    4 1   
     8    3   21 1   
     9    3   22 1   
    10    4    5 1   
    11    4    6 1   
    12    4    7 1   
    13    5   23 1   
    14    5   24 1   
    15    5   25 1   
    16    6   26 1   
    17    7    8 2   
    18    7    9 1   
    19    9   10 2   
    20    9   27 1   
    21   10   11 1   
    22   11   12 ar  
    23   11   17 ar  
    24   12   13 ar  
    25   12   28 1   
    26   13   14 ar  
    27   13   29 1   
    28   14   15 1   
    29   14   16 ar  
    30   16   17 ar  
    31   16   30 1   
    32   17   31 1   
@<TRIPOS>SUBSTRUCTURE
     1 42R         1 TEMP              0 ****  ****    0 ROOT
