@<TRIPOS>MOLECULE
42S
   31    32     1     0     0
SMALL
bcc


@<TRIPOS>ATOM
      1 C01        -0.4700   -0.7230    0.2480 ca        1 42S     -0.155000
      2 C02         0.9070   -0.7660    0.0330 ca        1 42S     -0.102000
      3 C03         1.7950   -0.3980    1.0370 ca        1 42S     -0.168500
      4 C04         1.3080    0.0300    2.2960 ca        1 42S      0.136600
      5 C05        -0.0850    0.0540    2.5080 ca        1 42S     -0.168500
      6 C06        -0.9580   -0.3130    1.4870 ca        1 42S     -0.102000
      7 N07         2.2480    0.4450    3.2660 nh        1 42S     -0.702600
      8 C08         1.8250    0.9260    4.5350 ce        1 42S      0.588800
      9 C09         0.9670    2.1480    4.5300 ca        1 42S     -0.122900
     10 C10        -0.1720    2.2060    5.3410 ca        1 42S     -0.056000
     11 C11        -0.9490    3.3650    5.3470 ca        1 42S     -0.176300
     12 C12        -0.6010    4.4630    4.5580 ca        1 42S     -0.071000
     13 C13         0.5380    4.3990    3.7560 ca        1 42S     -0.140000
     14 C14         1.3250    3.2470    3.7410 ca        1 42S     -0.063000
     15 C15        -2.1820    3.4380    6.2390 c3        1 42S      0.688200
     16 F16        -3.1810    4.2550    5.7670 f         1 42S     -0.236633
     17 F17        -2.8070    2.2330    6.4500 f         1 42S     -0.236633
     18 F18        -1.9350    3.9120    7.5050 f         1 42S     -0.236633
     19 N19         2.1930    0.4800    5.7260 n2        1 42S     -0.478200
     20 O20         2.9540   -0.5910    5.7620 oh        1 42S     -0.362500
     21 H1         -1.1640   -1.0140   -0.5520 ha        1 42S      0.134000
     22 H2          1.3000   -1.0950   -0.9410 ha        1 42S      0.134000
     23 H3          2.8770   -0.4390    0.8450 ha        1 42S      0.138000
     24 H4         -0.4950    0.3670    3.4810 ha        1 42S      0.138000
     25 H5         -2.0430   -0.2810    1.6680 ha        1 42S      0.134000
     26 H6          3.0460   -0.1610    3.3120 hn        1 42S      0.421800
     27 H7         -0.4590    1.3470    5.9710 ha        1 42S      0.162000
     28 H8         -1.2270    5.3690    4.5690 ha        1 42S      0.153000
     29 H9          0.8180    5.2610    3.1330 ha        1 42S      0.146000
     30 H10         2.2240    3.2040    3.1070 ha        1 42S      0.157000
     31 H11         3.1560   -0.7110    6.7120 ho        1 42S      0.447000
@<TRIPOS>BOND
     1    1    2 ar  
     2    1    6 ar  
     3    1   21 1   
     4    2    3 ar  
     5    2   22 1   
     6    3    4 ar  
     7    3   23 1   
     8    4    5 ar  
     9    4    7 1   
    10    5    6 ar  
    11    5   24 1   
    12    6   25 1   
    13    7    8 1   
    14    7   26 1   
    15    8    9 1   
    16    8   19 2   
    17    9   10 ar  
    18    9   14 ar  
    19   10   11 ar  
    20   10   27 1   
    21   11   12 ar  
    22   11   15 1   
    23   12   13 ar  
    24   12   28 1   
    25   13   14 ar  
    26   13   29 1   
    27   14   30 1   
    28   15   16 1   
    29   15   17 1   
    30   15   18 1   
    31   19   20 1   
    32   20   31 1   
@<TRIPOS>SUBSTRUCTURE
     1 42S         1 TEMP              0 ****  ****    0 ROOT
