@<TRIPOS>MOLECULE
42S
   31    32     1     0     0
SMALL
bcc


@<TRIPOS>ATOM
      1 C01        -0.4370   -0.6740    0.2080 ca        1 42S     -0.155000
      2 C02         0.9430   -0.7290    0.0150 ca        1 42S     -0.102000
      3 C03         1.8170   -0.3830    1.0390 ca        1 42S     -0.168500
      4 C04         1.3140    0.0360    2.2950 ca        1 42S      0.136600
      5 C05        -0.0830    0.0720    2.4830 ca        1 42S     -0.168500
      6 C06        -0.9410   -0.2730    1.4430 ca        1 42S     -0.102000
      7 N07         2.2410    0.4290    3.2850 nu        1 42S     -0.702600
      8 C08         1.8010    0.8980    4.5530 ce        1 42S      0.588800
      9 C09         0.9570    2.1290    4.5490 ca        1 42S     -0.122900
     10 C10        -0.1950    2.1890    5.3420 ca        1 42S     -0.056000
     11 C11        -0.9600    3.3570    5.3490 ca        1 42S     -0.176300
     12 C12        -0.5870    4.4610    4.5800 ca        1 42S     -0.071000
     13 C13         0.5650    4.3940    3.7970 ca        1 42S     -0.140000
     14 C14         1.3390    3.2340    3.7800 ca        1 42S     -0.063000
     15 C15        -2.2070    3.4310    6.2210 c3        1 42S      0.688200
     16 F16        -3.1890    4.2660    5.7440 f         1 42S     -0.236633
     17 F17        -2.8490    2.2310    6.4050 f         1 42S     -0.236633
     18 F18        -1.9760    3.8860    7.4980 f         1 42S     -0.236633
     19 N19         2.1440    0.4330    5.7440 n2        1 42S     -0.478200
     20 O20         2.8930   -0.6460    5.7790 oh        1 42S     -0.362500
     21 H1         -1.1210   -0.9480   -0.6080 ha        1 42S      0.134000
     22 H2          1.3490   -1.0490   -0.9560 ha        1 42S      0.134000
     23 H3          2.9030   -0.4330    0.8640 ha        1 42S      0.138000
     24 H4         -0.5060    0.3770    3.4530 ha        1 42S      0.138000
     25 H5         -2.0290   -0.2330    1.6060 ha        1 42S      0.134000
     26 H6          3.0320   -0.1850    3.3360 hn        1 42S      0.421800
     27 H7         -0.5020    1.3260    5.9550 ha        1 42S      0.162000
     28 H8         -1.2040    5.3730    4.5920 ha        1 42S      0.153000
     29 H9          0.8640    5.2620    3.1900 ha        1 42S      0.146000
     30 H10         2.2490    3.1890    3.1600 ha        1 42S      0.157000
     31 H11         3.0780   -0.7810    6.7310 ho        1 42S      0.447000
@<TRIPOS>BOND
     1    1    2 ar  
     2    1    6 ar  
     3    1   21 1   
     4    2    3 ar  
     5    2   22 1   
     6    3    4 ar  
     7    3   23 1   
     8    4    5 ar  
     9    4    7 1   
    10    5    6 ar  
    11    5   24 1   
    12    6   25 1   
    13    7    8 1   
    14    7   26 1   
    15    8    9 1   
    16    8   19 2   
    17    9   10 ar  
    18    9   14 ar  
    19   10   11 ar  
    20   10   27 1   
    21   11   12 ar  
    22   11   15 1   
    23   12   13 ar  
    24   12   28 1   
    25   13   14 ar  
    26   13   29 1   
    27   14   30 1   
    28   15   16 1   
    29   15   17 1   
    30   15   18 1   
    31   19   20 1   
    32   20   31 1   
@<TRIPOS>SUBSTRUCTURE
     1 42S         1 TEMP              0 ****  ****    0 ROOT
