@<TRIPOS>MOLECULE
42T
   48    50     1     0     0
SMALL
bcc


@<TRIPOS>ATOM
      1 C01        -1.7920   -2.7700    3.0470 ca        1 42T     -0.062000
      2 C02        -0.6040   -3.3070    3.5450 ca        1 42T     -0.129500
      3 C03         0.5470   -2.5300    3.6250 ca        1 42T     -0.079000
      4 C04         0.5140   -1.1740    3.2080 ca        1 42T      0.087400
      5 C05        -0.6960   -0.6420    2.7040 ca        1 42T     -0.079000
      6 C06        -1.8310   -1.4400    2.6260 ca        1 42T     -0.129500
      7 N07         1.7170   -0.4710    3.2900 ne        1 42T     -0.533100
      8 C08         1.9280    0.7890    3.1890 cf        1 42T      0.534800
      9 C09         1.0720    1.9810    3.0310 ca        1 42T     -0.205900
     10 C10         0.1100    2.2840    3.9980 ca        1 42T     -0.074000
     11 C11        -0.6510    3.4450    3.8410 ca        1 42T     -0.136300
     12 C12        -0.4300    4.3230    2.7840 ca        1 42T     -0.095000
     13 C13         0.5620    4.0290    1.8170 ca        1 42T      0.090600
     14 C14         1.2700    2.8120    1.9250 ca        1 42T     -0.113000
     15 C07        -1.7440    3.7560    4.8670 c3        1 42T      0.689200
     16 F16        -2.0510    5.0880    4.9770 f         1 42T     -0.220633
     17 F17        -2.9400    3.1410    4.5920 f         1 42T     -0.220633
     18 F18        -1.4340    3.3600    6.1440 f         1 42T     -0.220633
     19 N19         3.3900    1.2360    3.2930 n4        1 42T     -0.518500
     20 O20         4.3320    0.3870    2.8280 oh        1 42T     -0.361300
     21 N14         0.8160    4.9170    0.7640 n         1 42T     -0.468100
     22 C15         2.1470    5.1120    0.2930 c         1 42T      0.784100
     23 O16         3.0740    4.3850    0.7210 o         1 42T     -0.639100
     24 N17         2.3580    6.1530   -0.6200 n         1 42T     -0.443100
     25 C18         3.6200    6.3020   -1.2460 ca        1 42T      0.023600
     26 C19         3.8310    5.8700   -2.5780 ca        1 42T      0.029900
     27 CL1         2.5770    5.1030   -3.4310 cl        1 42T     -0.069900
     28 C21         5.0560    6.0770   -3.2120 ca        1 42T     -0.114500
     29 C22         6.0950    6.7050   -2.5270 ca        1 42T     -0.096000
     30 C23         5.9140    7.1360   -1.2160 ca        1 42T     -0.114500
     31 C24         4.6860    6.9420   -0.5750 ca        1 42T      0.029900
     32 CL2         4.5010    7.5000    1.0170 cl        1 42T     -0.069900
     33 H1         -2.6970   -3.3960    2.9860 ha        1 42T      0.161000
     34 H2         -0.5710   -4.3580    3.8760 ha        1 42T      0.161000
     35 H3          1.4760   -2.9740    4.0180 ha        1 42T      0.151000
     36 H4         -0.7450    0.4030    2.3580 ha        1 42T      0.151000
     37 H5         -2.7680   -1.0170    2.2270 ha        1 42T      0.161000
     38 H6         -0.0560    1.6290    4.8690 ha        1 42T      0.173000
     39 H7         -1.0290    5.2490    2.7170 ha        1 42T      0.177000
     40 H8          1.9810    2.5210    1.1290 ha        1 42T      0.181000
     41 H9          3.5860    1.4660    4.2850 hn        1 42T      0.486800
     42 H10         4.1300   -0.5320    3.1200 ho        1 42T      0.485000
     43 H11         0.1510    5.6510    0.6410 hn        1 42T      0.332500
     44 H12         1.5850    6.4930   -1.1520 hn        1 42T      0.333500
     45 H13         5.2020    5.7420   -4.2520 ha        1 42T      0.164500
     46 H14         7.0630    6.8650   -3.0290 ha        1 42T      0.158000
     47 H15         6.7370    7.6370   -0.6810 ha        1 42T      0.164500
     48 H192        3.4960    2.1020    2.7110 hn        1 42T      0.486800
@<TRIPOS>BOND
     1    1    2 ar  
     2    1    6 ar  
     3    1   33 1   
     4    2    3 ar  
     5    2   34 1   
     6    3    4 ar  
     7    3   35 1   
     8    4    5 ar  
     9    4    7 1   
    10    5    6 ar  
    11    5   36 1   
    12    6   37 1   
    13    7    8 2   
    14    8    9 1   
    15    8   19 1   
    16    9   10 ar  
    17    9   14 ar  
    18   10   11 ar  
    19   10   38 1   
    20   11   12 ar  
    21   11   15 1   
    22   12   13 ar  
    23   12   39 1   
    24   13   14 ar  
    25   13   21 1   
    26   14   40 1   
    27   15   16 1   
    28   15   17 1   
    29   15   18 1   
    30   19   20 1   
    31   19   41 1   
    32   19   48 1   
    33   20   42 1   
    34   21   22 1   
    35   21   43 1   
    36   22   23 2   
    37   22   24 1   
    38   24   25 1   
    39   24   44 1   
    40   25   26 ar  
    41   25   31 ar  
    42   26   27 1   
    43   26   28 ar  
    44   28   29 ar  
    45   28   45 1   
    46   29   30 ar  
    47   29   46 1   
    48   30   31 ar  
    49   30   47 1   
    50   31   32 1   
@<TRIPOS>SUBSTRUCTURE
     1 42T         1 TEMP              0 ****  ****    0 ROOT
