@<TRIPOS>MOLECULE
42T
   48    50     1     0     0
SMALL
bcc


@<TRIPOS>ATOM
      1 C01        -1.8470   -2.7640    2.9610 ca        1 42T     -0.062000
      2 C02        -0.6620   -3.3230    3.4420 ca        1 42T     -0.129500
      3 C03         0.4960   -2.5590    3.5330 ca        1 42T     -0.078500
      4 C04         0.4750   -1.1940    3.1450 ca        1 42T      0.087400
      5 C05        -0.7330   -0.6400    2.6590 ca        1 42T     -0.078500
      6 C06        -1.8760   -1.4250    2.5680 ca        1 42T     -0.129500
      7 N07         1.6840   -0.5040    3.2370 ne        1 42T     -0.533100
      8 C08         1.9080    0.7550    3.1580 cf        1 42T      0.534800
      9 C09         1.0660    1.9590    3.0250 ca        1 42T     -0.205900
     10 C10         0.1110    2.2570    4.0000 ca        1 42T     -0.074000
     11 C11        -0.6350    3.4300    3.8670 ca        1 42T     -0.136300
     12 C12        -0.4090    4.3230    2.8240 ca        1 42T     -0.095000
     13 C13         0.5750    4.0330    1.8460 ca        1 42T      0.091600
     14 C14         1.2700    2.8070    1.9320 ca        1 42T     -0.114000
     15 C07        -1.6940    3.7550    4.9250 c3        1 42T      0.689200
     16 F16        -2.6750    4.6100    4.4950 f         1 42T     -0.220300
     17 F17        -2.3650    2.6520    5.3910 f         1 42T     -0.220300
     18 F18        -1.1770    4.3480    6.0500 f         1 42T     -0.220300
     19 N19         3.3760    1.1830    3.2670 ny        1 42T     -0.518500
     20 O20         4.3080    0.3330    2.7850 oh        1 42T     -0.361300
     21 N14         0.8310    4.9340    0.8050 ns        1 42T     -0.468100
     22 C15         2.1610    5.1230    0.3290 c         1 42T      0.784100
     23 O16         3.0840    4.3800    0.7390 o         1 42T     -0.638100
     24 N17         2.3770    6.1750   -0.5700 ns        1 42T     -0.443100
     25 C18         3.6370    6.3210   -1.2020 ca        1 42T      0.023600
     26 C19         3.8340    5.9080   -2.5410 ca        1 42T      0.029900
     27 Cl1         2.5670    5.1670   -3.3990 cl        1 42T     -0.069900
     28 C21         5.0580    6.1120   -3.1800 ca        1 42T     -0.114500
     29 C22         6.1070    6.7200   -2.4930 ca        1 42T     -0.096000
     30 C23         5.9390    7.1310   -1.1740 ca        1 42T     -0.114500
     31 C24         4.7140    6.9400   -0.5280 ca        1 42T      0.029900
     32 Cl2         4.5430    7.4750    1.0740 cl        1 42T     -0.069900
     33 H1         -2.7590   -3.3800    2.8900 ha        1 42T      0.161000
     34 H2         -0.6390   -4.3810    3.7500 ha        1 42T      0.161000
     35 H3          1.4230   -3.0200    3.9120 ha        1 42T      0.150500
     36 H4         -0.7730    0.4130    2.3370 ha        1 42T      0.150500
     37 H5         -2.8100   -0.9850    2.1840 ha        1 42T      0.161000
     38 H6         -0.0680    1.5830    4.8540 ha        1 42T      0.172000
     39 H7         -1.0030    5.2530    2.7700 ha        1 42T      0.176000
     40 H8          1.9760    2.5220    1.1300 ha        1 42T      0.181000
     41 H9          3.4900    2.0590    2.7000 hn        1 42T      0.486800
     42 H10         4.0950   -0.5890    3.0600 ho        1 42T      0.485000
     43 H11         0.1730    5.6760    0.6970 hn        1 42T      0.332500
     44 H12         1.6040    6.5300   -1.0920 hn        1 42T      0.332500
     45 H13         5.1930    5.7920   -4.2260 ha        1 42T      0.164500
     46 H14         7.0730    6.8770   -2.9980 ha        1 42T      0.158000
     47 H15         6.7710    7.6160   -0.6360 ha        1 42T      0.164500
     48 H192        3.5770    1.3940    4.2620 hn        1 42T      0.486800
@<TRIPOS>BOND
     1    1    2 ar  
     2    1    6 ar  
     3    1   33 1   
     4    2    3 ar  
     5    2   34 1   
     6    3    4 ar  
     7    3   35 1   
     8    4    5 ar  
     9    4    7 1   
    10    5    6 ar  
    11    5   36 1   
    12    6   37 1   
    13    7    8 2   
    14    8    9 1   
    15    8   19 1   
    16    9   10 ar  
    17    9   14 ar  
    18   10   11 ar  
    19   10   38 1   
    20   11   12 ar  
    21   11   15 1   
    22   12   13 ar  
    23   12   39 1   
    24   13   14 ar  
    25   13   21 1   
    26   14   40 1   
    27   15   16 1   
    28   15   17 1   
    29   15   18 1   
    30   19   20 1   
    31   19   41 1   
    32   19   48 1   
    33   20   42 1   
    34   21   22 1   
    35   21   43 1   
    36   22   23 2   
    37   22   24 1   
    38   24   25 1   
    39   24   44 1   
    40   25   26 ar  
    41   25   31 ar  
    42   26   27 1   
    43   26   28 ar  
    44   28   29 ar  
    45   28   45 1   
    46   29   30 ar  
    47   29   46 1   
    48   30   31 ar  
    49   30   47 1   
    50   31   32 1   
@<TRIPOS>SUBSTRUCTURE
     1 42T         1 TEMP              0 ****  ****    0 ROOT
