@<TRIPOS>MOLECULE
42U
   54    57     1     0     0
SMALL
bcc


@<TRIPOS>ATOM
      1 C01         0.5680    0.1640   -0.2850 ca        1 42U      0.127900
      2 F02         0.0870    0.2600   -1.5480 f         1 42U     -0.140900
      3 C03         1.9550    0.2070   -0.0560 ca        1 42U     -0.172000
      4 C04         2.4400    0.1060    1.2430 ca        1 42U     -0.085000
      5 C05         1.5590   -0.0320    2.3250 ca        1 42U     -0.132500
      6 C06         0.1780   -0.0770    2.0880 ca        1 42U     -0.085000
      7 C07        -0.3230    0.0190    0.7950 ca        1 42U     -0.172000
      8 C08         2.0710   -0.1560    3.6810 cc        1 42U      0.366800
      9 C09         1.5250    0.4320    4.8980 cc        1 42U     -0.182300
     10 C10         0.3990    1.3120    5.0710 ca        1 42U     -0.062000
     11 C11         0.0970    2.3070    4.1240 ca        1 42U     -0.046000
     12 C12        -0.9640    3.1740    4.3080 ca        1 42U     -0.208000
     13 C13        -1.7840    3.0940    5.4670 ca        1 42U      0.235600
     14 N14        -2.7970    4.0080    5.7030 nu        1 42U     -0.757600
     15 C15        -3.2950    4.8420    4.6380 c3        1 42U      0.201800
     16 C16        -4.5680    5.6140    5.0610 c3        1 42U      0.161800
     17 N17        -5.0180    6.5150    4.0110 n3        1 42U     -0.734600
     18 C18        -5.7530    7.6550    4.5440 c3        1 42U      0.169300
     19 C19        -6.2560    8.6080    3.4410 c3        1 42U      0.161800
     20 N20        -6.9760    7.9200    2.3880 n7        1 42U     -0.820200
     21 C21        -6.2510    6.7850    1.8550 c3        1 42U      0.161800
     22 C22        -5.7480    5.8280    2.9550 c3        1 42U      0.169300
     23 C23        -1.4810    2.0760    6.4110 ca        1 42U     -0.255300
     24 C24        -0.4050    1.2130    6.2090 ca        1 42U     -0.039000
     25 C25        -2.3250    1.9120    7.6640 c3        1 42U      0.692200
     26 F26        -1.9640    0.8730    8.4850 f         1 42U     -0.242633
     27 F27        -2.3350    3.0040    8.5010 f         1 42U     -0.242633
     28 F28        -3.6630    1.6880    7.4220 f         1 42U     -0.242633
     29 C29         2.3760   -0.0260    5.9240 cd        1 42U     -0.141300
     30 N30         3.3440   -0.8170    5.3100 na        1 42U     -0.008600
     31 N31         3.1770   -0.9030    3.9940 nd        1 42U     -0.505800
     32 H1          2.6440    0.3170   -0.9060 ha        1 42U      0.149500
     33 H2          3.5270    0.1330    1.4190 ha        1 42U      0.150000
     34 H3         -0.5150   -0.1890    2.9380 ha        1 42U      0.150000
     35 H4         -1.4060   -0.0210    0.6070 ha        1 42U      0.149500
     36 H5          0.7190    2.3890    3.2170 ha        1 42U      0.149000
     37 H6         -1.1640    3.9430    3.5460 ha        1 42U      0.146000
     38 H7         -3.4460    3.7840    6.4260 hn        1 42U      0.428800
     39 H8         -3.5180    4.2210    3.7220 h1        1 42U      0.050700
     40 H9         -2.4890    5.5820    4.3640 h1        1 42U      0.050700
     41 H10        -5.3700    4.8710    5.3470 h1        1 42U      0.042200
     42 H11        -4.3260    6.2220    5.9790 h1        1 42U      0.042200
     43 H13        -6.6350    7.3260    5.1670 h1        1 42U      0.038700
     44 H14        -5.0550    8.2370    5.2080 h1        1 42U      0.038700
     45 H15        -5.3720    9.1890    3.0460 h1        1 42U      0.036200
     46 H16        -6.9660    9.3410    3.9170 h1        1 42U      0.036200
     47 H17        -7.2020    8.5620    1.6510 hn        1 42U      0.365800
     48 H19        -6.9580    6.2100    1.1940 h1        1 42U      0.036200
     49 H20        -5.3670    7.0980    1.2260 h1        1 42U      0.036200
     50 H21        -6.6310    5.2540    3.3640 h1        1 42U      0.038700
     51 H22        -5.0480    5.0890    2.4740 h1        1 42U      0.038700
     52 H23        -0.1890    0.4350    6.9610 ha        1 42U      0.148000
     53 H24         2.3600    0.1590    6.9970 h4        1 42U      0.182000
     54 H25         4.0920   -1.3000    5.7510 hn        1 42U      0.325700
@<TRIPOS>BOND
     1    1    2 1   
     2    1    3 ar  
     3    1    7 ar  
     4    3    4 ar  
     5    3   32 1   
     6    4    5 ar  
     7    4   33 1   
     8    5    6 ar  
     9    5    8 1   
    10    6    7 ar  
    11    6   34 1   
    12    7   35 1   
    13    8    9 1   
    14    8   31 2   
    15    9   10 1   
    16    9   29 2   
    17   10   11 ar  
    18   10   24 ar  
    19   11   12 ar  
    20   11   36 1   
    21   12   13 ar  
    22   12   37 1   
    23   13   14 1   
    24   13   23 ar  
    25   14   15 1   
    26   14   38 1   
    27   15   16 1   
    28   15   39 1   
    29   15   40 1   
    30   16   17 1   
    31   16   41 1   
    32   16   42 1   
    33   17   18 1   
    34   17   22 1   
    35   18   19 1   
    36   18   43 1   
    37   18   44 1   
    38   19   20 1   
    39   19   45 1   
    40   19   46 1   
    41   20   21 1   
    42   20   47 1   
    43   21   22 1   
    44   21   48 1   
    45   21   49 1   
    46   22   50 1   
    47   22   51 1   
    48   23   24 ar  
    49   23   25 1   
    50   24   52 1   
    51   25   26 1   
    52   25   27 1   
    53   25   28 1   
    54   29   30 1   
    55   29   53 1   
    56   30   31 1   
    57   30   54 1   
@<TRIPOS>SUBSTRUCTURE
     1 42U         1 TEMP              0 ****  ****    0 ROOT
