@<TRIPOS>MOLECULE
42U
   54    57     1     0     0
SMALL
bcc


@<TRIPOS>ATOM
      1 C01         0.5640    0.1640   -0.2870 ca        1 42U      0.127900
      2 F02         0.0820    0.2600   -1.5490 f         1 42U     -0.140900
      3 C03         1.9520    0.2080   -0.0600 ca        1 42U     -0.172000
      4 C04         2.4380    0.1070    1.2390 ca        1 42U     -0.085000
      5 C05         1.5580   -0.0320    2.3220 ca        1 42U     -0.132500
      6 C06         0.1760   -0.0780    2.0860 ca        1 42U     -0.085000
      7 C07        -0.3260    0.0180    0.7940 ca        1 42U     -0.172000
      8 C08         2.0720   -0.1550    3.6770 cc        1 42U      0.366800
      9 C09         1.5270    0.4330    4.8950 cc        1 42U     -0.182300
     10 C10         0.4000    1.3120    5.0680 ca        1 42U     -0.062000
     11 C11         0.0970    2.3070    4.1220 ca        1 42U     -0.046000
     12 C12        -0.9640    3.1740    4.3060 ca        1 42U     -0.208000
     13 C13        -1.7830    3.0950    5.4670 ca        1 42U      0.235600
     14 N14        -2.7950    4.0080    5.7040 nh        1 42U     -0.757600
     15 C15        -3.2940    4.8420    4.6390 c3        1 42U      0.201800
     16 C16        -4.5670    5.6140    5.0630 c3        1 42U      0.161800
     17 N17        -5.0180    6.5150    4.0140 n3        1 42U     -0.734600
     18 C18        -5.7540    7.6540    4.5470 c3        1 42U      0.169300
     19 C19        -6.2580    8.6070    3.4450 c3        1 42U      0.161800
     20 N20        -6.9780    7.9190    2.3930 n3        1 42U     -0.820200
     21 C21        -6.2540    6.7840    1.8590 c3        1 42U      0.161800
     22 C22        -5.7500    5.8270    2.9580 c3        1 42U      0.169300
     23 C23        -1.4780    2.0770    6.4110 ca        1 42U     -0.255300
     24 C24        -0.4020    1.2140    6.2080 ca        1 42U     -0.039000
     25 C25        -2.3200    1.9130    7.6650 c3        1 42U      0.692200
     26 F26        -1.9580    0.8750    8.4870 f         1 42U     -0.242633
     27 F27        -2.3290    3.0060    8.5020 f         1 42U     -0.242633
     28 F28        -3.6590    1.6890    7.4250 f         1 42U     -0.242633
     29 C29         2.3790   -0.0250    5.9200 cd        1 42U     -0.141300
     30 N30         3.3460   -0.8160    5.3050 na        1 42U     -0.008600
     31 N31         3.1780   -0.9020    3.9900 nd        1 42U     -0.505800
     32 H1          2.6390    0.3180   -0.9100 ha        1 42U      0.149500
     33 H2          3.5250    0.1340    1.4140 ha        1 42U      0.150000
     34 H3         -0.5150   -0.1900    2.9370 ha        1 42U      0.150000
     35 H4         -1.4090   -0.0220    0.6070 ha        1 42U      0.149500
     36 H5          0.7180    2.3880    3.2140 ha        1 42U      0.149000
     37 H6         -1.1650    3.9420    3.5450 ha        1 42U      0.146000
     38 H7         -3.4430    3.7850    6.4280 hn        1 42U      0.428800
     39 H8         -3.5190    4.2200    3.7240 h1        1 42U      0.051200
     40 H9         -2.4890    5.5820    4.3640 h1        1 42U      0.051200
     41 H10        -5.3690    4.8710    5.3500 h1        1 42U      0.042200
     42 H11        -4.3240    6.2220    5.9810 h1        1 42U      0.042200
     43 H13        -6.6350    7.3250    5.1710 h1        1 42U      0.038700
     44 H14        -5.0550    8.2360    5.2110 h1        1 42U      0.038700
     45 H15        -5.3750    9.1890    3.0490 h1        1 42U      0.036200
     46 H16        -6.9680    9.3400    3.9210 h1        1 42U      0.036200
     47 H17        -7.2060    8.5600    1.6550 hn        1 42U      0.365800
     48 H19        -5.3700    7.0980    1.2290 h1        1 42U      0.036200
     49 H20        -6.9610    6.2080    1.1980 h1        1 42U      0.036200
     50 H21        -6.6310    5.2530    3.3680 h1        1 42U      0.038700
     51 H22        -5.0500    5.0890    2.4770 h1        1 42U      0.038700
     52 H23        -0.1850    0.4360    6.9600 ha        1 42U      0.148000
     53 H24         2.3640    0.1610    6.9940 h4        1 42U      0.182000
     54 H25         4.0940   -1.2990    5.7450 hn        1 42U      0.325700
@<TRIPOS>BOND
     1    1    2 1   
     2    1    3 ar  
     3    1    7 ar  
     4    3    4 ar  
     5    3   32 1   
     6    4    5 ar  
     7    4   33 1   
     8    5    6 ar  
     9    5    8 1   
    10    6    7 ar  
    11    6   34 1   
    12    7   35 1   
    13    8    9 1   
    14    8   31 2   
    15    9   10 1   
    16    9   29 2   
    17   10   11 ar  
    18   10   24 ar  
    19   11   12 ar  
    20   11   36 1   
    21   12   13 ar  
    22   12   37 1   
    23   13   14 1   
    24   13   23 ar  
    25   14   15 1   
    26   14   38 1   
    27   15   16 1   
    28   15   39 1   
    29   15   40 1   
    30   16   17 1   
    31   16   41 1   
    32   16   42 1   
    33   17   18 1   
    34   17   22 1   
    35   18   19 1   
    36   18   43 1   
    37   18   44 1   
    38   19   20 1   
    39   19   45 1   
    40   19   46 1   
    41   20   21 1   
    42   20   47 1   
    43   21   22 1   
    44   21   48 1   
    45   21   49 1   
    46   22   50 1   
    47   22   51 1   
    48   23   24 ar  
    49   23   25 1   
    50   24   52 1   
    51   25   26 1   
    52   25   27 1   
    53   25   28 1   
    54   29   30 1   
    55   29   53 1   
    56   30   31 1   
    57   30   54 1   
@<TRIPOS>SUBSTRUCTURE
     1 42U         1 TEMP              0 ****  ****    0 ROOT
