@<TRIPOS>MOLECULE
42Z
   25    26     1     0     0
SMALL
bcc


@<TRIPOS>ATOM
      1 C1         -0.2110    0.4890    0.1020 ca        1 42Z     -0.041000
      2 C2          1.1850    0.3220    0.0490 ca        1 42Z      0.062400
      3 C3          1.9110   -0.0370    1.2590 ca        1 42Z     -0.041200
      4 C4          1.2470   -0.2210    2.4830 ca        1 42Z     -0.128000
      5 C5         -0.1290   -0.0460    2.4950 ca        1 42Z      0.058400
      6 C6         -0.8490    0.3050    1.3170 ca        1 42Z     -0.001600
      7 N13         3.2500   -0.1280    0.8970 na        1 42Z     -0.219300
      8 C14         3.3030    0.1640   -0.4830 cc        1 42Z      0.300800
      9 N15         2.0830    0.4390   -1.0140 nd        1 42Z     -0.511100
     10 C24         4.5870    0.1610   -1.2190 c         1 42Z      0.493800
     11 N26         4.4750    0.3090   -2.6830 ny        1 42Z     -0.639800
     12 C28         5.7400   -0.4530   -4.7150 c         1 42Z      0.932600
     13 O30         6.6570   -0.2450   -5.5220 o         1 42Z     -0.752800
     14 O32         4.7930   -1.2880   -4.7450 o         1 42Z     -0.752800
     15 O34         5.6790    0.0320   -0.6730 o         1 42Z     -0.441100
     16 C43         5.7550    0.4790   -3.4210 c3        1 42Z     -0.087200
     17 H1         -0.7710    0.7580   -0.8090 ha        1 42Z      0.179000
     18 H4          1.7990   -0.4940    3.3940 ha        1 42Z      0.167000
     19 HN26        4.0510   -0.5830   -3.0910 hn        1 42Z      0.487300
     20 H43         6.6220    0.1630   -2.7850 hx        1 42Z      0.097700
     21 H43A        5.8750    1.5490   -3.7260 hx        1 42Z      0.097700
     22 HN13        4.0210   -0.3610    1.4710 hn        1 42Z      0.335700
     23 Cl3        -2.5310    0.5050    1.3870 cl        1 42Z     -0.044400
     24 Cl4        -0.9520   -0.2620    3.9590 cl        1 42Z     -0.039400
     25 H262        3.8360    1.0780   -2.9050 hn        1 42Z      0.487300
@<TRIPOS>BOND
     1    1    2 ar  
     2    1    6 ar  
     3    1   17 1   
     4    2    3 ar  
     5    2    9 1   
     6    3    4 ar  
     7    3    7 1   
     8    4    5 ar  
     9    4   18 1   
    10    5    6 ar  
    11    5   24 1   
    12    6   23 1   
    13    7    8 1   
    14    7   22 1   
    15    8    9 2   
    16    8   10 1   
    17   10   11 1   
    18   10   15 2   
    19   11   16 1   
    20   11   19 1   
    21   11   25 1   
    22   12   13 1   
    23   12   14 1   
    24   12   16 1   
    25   16   20 1   
    26   16   21 1   
@<TRIPOS>SUBSTRUCTURE
     1 42Z         1 TEMP              0 ****  ****    0 ROOT
