@<TRIPOS>MOLECULE
42Z
   25    26     1     0     0
SMALL
bcc


@<TRIPOS>ATOM
      1 C1         -0.2060   -0.5130    0.1030 ca        1 42Z     -0.041000
      2 C2          1.1890   -0.3310    0.0510 ca        1 42Z      0.062400
      3 C3          1.9100    0.0430    1.2600 ca        1 42Z     -0.041200
      4 C4          1.2420    0.2260    2.4820 ca        1 42Z     -0.128000
      5 C5         -0.1310    0.0360    2.4940 ca        1 42Z      0.058400
      6 C6         -0.8470   -0.3290    1.3170 ca        1 42Z     -0.001600
      7 N13         3.2480    0.1450    0.8980 na        1 42Z     -0.219300
      8 C14         3.3040   -0.1540   -0.4800 cc        1 42Z      0.300800
      9 N15         2.0890   -0.4440   -1.0110 nd        1 42Z     -0.511100
     10 C24         4.5890   -0.1410   -1.2150 c         1 42Z      0.493800
     11 N26         4.4810   -0.2980   -2.6780 n4        1 42Z     -0.639800
     12 C28         5.7390    0.4680   -4.7130 c         1 42Z      0.932600
     13 O30         6.6590    0.2670   -5.5180 o         1 42Z     -0.752800
     14 O32         4.7830    1.2920   -4.7480 o         1 42Z     -0.752800
     15 O34         5.6800    0.0020   -0.6690 o         1 42Z     -0.441100
     16 C43         5.7630   -0.4580   -3.4150 c3        1 42Z     -0.087200
     17 H1         -0.7620   -0.7930   -0.8060 ha        1 42Z      0.179000
     18 H4          1.7900    0.5100    3.3920 ha        1 42Z      0.167000
     19 HN26        4.0470    0.5870   -3.0910 hn        1 42Z      0.487300
     20 H43         6.6250   -0.1290   -2.7800 hx        1 42Z      0.097700
     21 H43A        5.8940   -1.5270   -3.7140 hx        1 42Z      0.097700
     22 HN13        4.0160    0.3900    1.4720 hn        1 42Z      0.335700
     23 CL3        -2.5270   -0.5470    1.3870 cl        1 42Z     -0.045400
     24 CL4        -0.9580    0.2510    3.9560 cl        1 42Z     -0.039400
     25 H262        3.8500   -1.0750   -2.8960 hn        1 42Z      0.487300
@<TRIPOS>BOND
     1    1    2 ar  
     2    1    6 ar  
     3    1   17 1   
     4    2    3 ar  
     5    2    9 1   
     6    3    4 ar  
     7    3    7 1   
     8    4    5 ar  
     9    4   18 1   
    10    5    6 ar  
    11    5   24 1   
    12    6   23 1   
    13    7    8 1   
    14    7   22 1   
    15    8    9 2   
    16    8   10 1   
    17   10   11 1   
    18   10   15 2   
    19   11   16 1   
    20   11   19 1   
    21   11   25 1   
    22   12   13 1   
    23   12   14 1   
    24   12   16 1   
    25   16   20 1   
    26   16   21 1   
@<TRIPOS>SUBSTRUCTURE
     1 42Z         1 TEMP              0 ****  ****    0 ROOT
