@<TRIPOS>MOLECULE
42Z
   25    26     1     0     0
SMALL
bcc


@<TRIPOS>ATOM
      1 C1         -0.2110    0.4640    0.1120 ca        1 42Z     -0.041000
      2 C2          1.1860    0.3070    0.0550 ca        1 42Z      0.062400
      3 C3          1.9190   -0.0470    1.2620 ca        1 42Z     -0.041200
      4 C4          1.2600   -0.2370    2.4870 ca        1 42Z     -0.128000
      5 C5         -0.1170   -0.0730    2.5050 ca        1 42Z      0.058400
      6 C6         -0.8440    0.2730    1.3290 ca        1 42Z     -0.001600
      7 N13         3.2570   -0.1270    0.8960 na        1 42Z     -0.219300
      8 C14         3.3030    0.1670   -0.4840 cc        1 42Z      0.300800
      9 N15         2.0800    0.4320   -1.0120 nd        1 42Z     -0.511100
     10 C24         4.5850    0.1750   -1.2250 c         1 42Z      0.493800
     11 N26         4.4670    0.3240   -2.6880 n4        1 42Z     -0.639800
     12 C28         5.7330   -0.4260   -4.7240 c         1 42Z      0.932600
     13 O30         6.6450   -0.2100   -5.5340 o         1 42Z     -0.752800
     14 O32         4.7940   -1.2700   -4.7520 o         1 42Z     -0.752800
     15 O34         5.6800    0.0550   -0.6820 o         1 42Z     -0.441100
     16 C43         5.7430    0.5060   -3.4300 c3        1 42Z     -0.087200
     17 H1         -0.7760    0.7290   -0.7970 ha        1 42Z      0.179000
     18 H4          1.8170   -0.5060    3.3970 ha        1 42Z      0.167000
     19 HN26        4.0500   -0.5720   -3.0950 hn        1 42Z      0.487300
     20 H43         6.6140    0.1970   -2.7970 hx        1 42Z      0.097700
     21 H43A        5.8520    1.5760   -3.7350 hx        1 42Z      0.097700
     22 HN13        4.0320   -0.3540    1.4670 hn        1 42Z      0.335700
     23 CL3        -2.5270    0.4600    1.4040 cl        1 42Z     -0.044400
     24 CL4        -0.9340   -0.2970    3.9710 cl        1 42Z     -0.039400
     25 H262        3.8200    1.0860   -2.9070 hn        1 42Z      0.487300
@<TRIPOS>BOND
     1    1    2 ar  
     2    1    6 ar  
     3    1   17 1   
     4    2    3 ar  
     5    2    9 1   
     6    3    4 ar  
     7    3    7 1   
     8    4    5 ar  
     9    4   18 1   
    10    5    6 ar  
    11    5   24 1   
    12    6   23 1   
    13    7    8 1   
    14    7   22 1   
    15    8    9 2   
    16    8   10 1   
    17   10   11 1   
    18   10   15 2   
    19   11   16 1   
    20   11   19 1   
    21   11   25 1   
    22   12   13 1   
    23   12   14 1   
    24   12   16 1   
    25   16   20 1   
    26   16   21 1   
@<TRIPOS>SUBSTRUCTURE
     1 42Z         1 TEMP              0 ****  ****    0 ROOT
