@<TRIPOS>MOLECULE
42Z
   24    25     1     0     0
SMALL
bcc


@<TRIPOS>ATOM
      1 C1         -1.8490    1.3230   -0.0010 ca        1 42Z     -0.053000
      2 C2         -0.8100    0.3860   -0.0000 ca        1 42Z      0.072400
      3 C3         -1.1290   -1.0370    0.0000 ca        1 42Z     -0.068200
      4 C4         -2.4530   -1.4880   -0.0000 ca        1 42Z     -0.125000
      5 C5         -3.4570   -0.5260   -0.0010 ca        1 42Z      0.029400
      6 C6         -3.1600    0.8570   -0.0010 ca        1 42Z     -0.011600
      7 N13         0.0950   -1.6970    0.0010 na        1 42Z     -0.251300
      8 C14         1.0960   -0.6980    0.0010 cc        1 42Z      0.398800
      9 N15         0.5870    0.5520    0.0000 nd        1 42Z     -0.543100
     10 C24         2.5530   -1.1160    0.0010 c         1 42Z      0.581800
     11 N26         3.4860   -0.1420    0.0010 n         1 42Z     -0.476900
     12 C28         5.7830    0.8620   -0.0010 c         1 42Z      0.914600
     13 O30         7.0250    0.6620   -0.0000 o         1 42Z     -0.825800
     14 O32         5.2160    1.9890   -0.0020 o         1 42Z     -0.825800
     15 O34         2.8010   -2.3490    0.0020 o         1 42Z     -0.667100
     16 C43         4.8990   -0.4260    0.0010 c3        1 42Z     -0.059000
     17 H1         -1.6240    2.4010   -0.0010 ha        1 42Z      0.167000
     18 H4         -2.6910   -2.5600    0.0000 ha        1 42Z      0.150000
     19 HN26        3.2440    0.8310   -0.0000 hn        1 42Z      0.363500
     20 H43         5.1580   -1.0350    0.9090 h1        1 42Z      0.043700
     21 H43A        5.1580   -1.0370   -0.9070 h1        1 42Z      0.043700
     22 HN13        0.2690   -2.6690    0.0010 hn        1 42Z      0.327700
     23 CL3        -4.4230    2.0000   -0.0010 cl        1 42Z     -0.093400
     24 CL4        -5.0750   -1.0560   -0.0010 cl        1 42Z     -0.093400
@<TRIPOS>BOND
     1    1    2 ar  
     2    1    6 ar  
     3    1   17 1   
     4    2    3 ar  
     5    2    9 1   
     6    3    4 ar  
     7    3    7 1   
     8    4    5 ar  
     9    4   18 1   
    10    5    6 ar  
    11    5   24 1   
    12    6   23 1   
    13    7    8 1   
    14    7   22 1   
    15    8    9 2   
    16    8   10 1   
    17   10   11 1   
    18   10   15 2   
    19   11   16 1   
    20   11   19 1   
    21   12   13 1   
    22   12   14 1   
    23   12   16 1   
    24   16   20 1   
    25   16   21 1   
@<TRIPOS>SUBSTRUCTURE
     1 42Z         1 TEMP              0 ****  ****    0 ROOT
