@<TRIPOS>MOLECULE
42Z
   24    18     1     0     0
SMALL
bcc


@<TRIPOS>ATOM
      1 C1         -3.0980    0.0660    0.6350 c1        1 42Z     -0.089000
      2 C2         -1.6930    0.0240    0.6340 c1        1 42Z     -0.045000
      3 C3         -1.0100    0.0490    1.8180 c1        1 42Z     -0.045000
      4 CL3        -5.5230    0.0550    1.6160 cl        1 42Z     -0.015000
      5 C4         -1.7120    0.1160    3.0280 c1        1 42Z     -0.089000
      6 CL4        -4.0340    0.1980    4.4860 cl        1 42Z     -0.015000
      7 C5         -3.0960    0.1570    3.0250 c2        1 42Z     -0.069500
      8 C6         -3.7860    0.1320    1.8300 c2        1 42Z     -0.069500
      9 N13         0.3080   -0.0730    1.5420 n1        1 42Z     -0.162000
     10 C14         0.4470   -0.1730    0.1930 c1        1 42Z      0.003000
     11 N15        -0.7930   -0.1130   -0.3640 n1        1 42Z     -0.162000
     12 C24         1.7580   -0.0750   -0.6080 c1        1 42Z      0.345000
     13 N26         1.7380   -0.2050   -2.0470 n3        1 42Z     -0.286000
     14 C28         3.5890    0.5710   -3.3850 c1        1 42Z      0.334000
     15 O30         3.1680    1.0100   -4.4860 os        1 42Z     -0.570000
     16 O32         4.6010    1.0760   -2.8590 o         1 42Z     -0.551000
     17 O34         2.8070    0.0640   -0.0320 o         1 42Z     -0.428000
     18 C43         2.9350   -0.6250   -2.7560 c3        1 42Z     -0.125000
     19 H1         -3.5780    0.0670   -0.1960 ha        1 42Z      0.158500
     20 H4         -1.2250    0.1320    3.8750 ha        1 42Z      0.158500
     21 HN26        0.9720    0.0000   -2.5180 hn        1 42Z      0.277000
     22 H43         3.5520   -1.0410   -2.1320 h1        1 42Z      0.083000
     23 H43A        2.6920   -1.2720   -3.4560 h1        1 42Z      0.083000
     24 HN13        0.9800   -0.1400    2.1570 DU        1 42Z      0.278000
@<TRIPOS>BOND
     1    1    8 1   
     2    1   19 1   
     3    2    3 1   
     4    4    8 1   
     5    5    7 1   
     6    5   20 1   
     7    6    7 1   
     8    7    8 1   
     9    9   10 1   
    10   10   11 1   
    11   12   13 1   
    12   12   17 1   
    13   13   18 1   
    14   13   21 1   
    15   14   16 1   
    16   14   18 1   
    17   18   22 1   
    18   18   23 1   
@<TRIPOS>SUBSTRUCTURE
     1 42Z         1 TEMP              0 ****  ****    0 ROOT
