@<TRIPOS>MOLECULE
430
   47    50     1     0     0
SMALL
bcc


@<TRIPOS>ATOM
      1 C01        -0.0960   -0.2000   -0.4330 c3        1 430     -0.126100
      2 C02         1.4140   -0.1160   -0.3290 c3        1 430      0.186400
      3 O03         1.7890    0.0210    1.0820 os        1 430     -0.278900
      4 C04         1.7640    1.2540    1.6120 cc        1 430      0.316100
      5 C05         1.3650    2.4670    0.9960 cc        1 430     -0.335000
      6 C06         1.4940    3.5660    1.8600 cd        1 430      0.215700
      7 N07         1.1970    4.8580    1.5600 na        1 430     -0.098400
      8 C08         0.7250    5.3660    0.2910 cc        1 430      0.453700
      9 N09         0.5230    6.6720    0.2980 nd        1 430     -0.496100
     10 C10         0.8580    7.1220    1.6070 ca        1 430      0.083400
     11 C11         0.8310    8.3990    2.1640 ca        1 430     -0.044000
     12 C12         1.2220    8.5410    3.4960 ca        1 430     -0.125000
     13 C13         1.6310    7.4470    4.2640 ca        1 430     -0.093000
     14 C14         1.6710    6.1540    3.7390 ca        1 430     -0.130000
     15 C15         1.2840    5.9940    2.4120 ca        1 430     -0.085200
     16 S16         2.0860    3.0730    3.3920 ss        1 430     -0.039800
     17 C17         2.1880    1.4370    2.9580 cd        1 430     -0.357700
     18 C18         2.6140    0.3620    3.7670 c         1 430      0.628700
     19 N19         3.1460    0.7680    5.1550 nz        1 430     -0.770400
     20 O20         2.6530   -0.8490    3.5910 o         1 430     -0.447100
     21 C21         2.0790   -1.3790   -0.7920 ca        1 430     -0.068300
     22 C22         2.0480   -2.5080    0.0340 ca        1 430     -0.105000
     23 C23         2.6330   -3.7050   -0.3780 ca        1 430     -0.098000
     24 C24         3.2520   -3.7850   -1.6240 ca        1 430     -0.111000
     25 C25         3.2900   -2.6650   -2.4550 ca        1 430     -0.081000
     26 C26         2.7110   -1.4620   -2.0430 ca        1 430     -0.149300
     27 C27         2.7880   -0.2620   -2.9860 c3        1 430      0.684200
     28 F28         3.3540   -0.5180   -4.2070 f         1 430     -0.233967
     29 F29         1.5690    0.2980   -3.2930 f         1 430     -0.233967
     30 F30         3.5180    0.7960   -2.4940 f         1 430     -0.233967
     31 H011       -0.5650    0.7180   -0.0030 hc        1 430      0.067033
     32 H012       -0.4790   -1.0930    0.1170 hc        1 430      0.067033
     33 H013       -0.3790   -0.2850   -1.5120 hc        1 430      0.067033
     34 H02         1.8120    0.7740   -0.8910 h1        1 430      0.080700
     35 H05         0.9950    2.5300   -0.0310 ha        1 430      0.193000
     36 H08         0.5720    4.6880   -0.5600 h5        1 430      0.090800
     37 H11         0.5100    9.2670    1.5660 ha        1 430      0.173000
     38 H12         1.2080    9.5440    3.9540 ha        1 430      0.158000
     39 H13         1.9310    7.6060    5.3130 ha        1 430      0.149000
     40 H14         1.9940    5.3070    4.3610 ha        1 430      0.127000
     41 H191        3.4360   -0.0750    5.6620 hn        1 430      0.457800
     42 H192        3.9490    1.3910    5.0510 hn        1 430      0.457800
     43 H22         1.5620   -2.4400    1.0200 ha        1 430      0.153000
     44 H23         2.6010   -4.5860    0.2810 ha        1 430      0.152000
     45 H24         3.7100   -4.7290   -1.9590 ha        1 430      0.157000
     46 H25         3.7790   -2.7290   -3.4420 ha        1 430      0.166000
     47 H193        2.4160    1.2460    5.6850 hn        1 430      0.457800
@<TRIPOS>BOND
     1    1    2 1   
     2    1   31 1   
     3    1   32 1   
     4    1   33 1   
     5    2    3 1   
     6    2   21 1   
     7    2   34 1   
     8    3    4 1   
     9    4    5 1   
    10    4   17 2   
    11    5    6 2   
    12    5   35 1   
    13    6    7 1   
    14    6   16 1   
    15    7    8 1   
    16    7   15 1   
    17    8    9 2   
    18    8   36 1   
    19    9   10 1   
    20   10   11 ar  
    21   10   15 ar  
    22   11   12 ar  
    23   11   37 1   
    24   12   13 ar  
    25   12   38 1   
    26   13   14 ar  
    27   13   39 1   
    28   14   15 ar  
    29   14   40 1   
    30   16   17 1   
    31   17   18 1   
    32   18   19 1   
    33   18   20 2   
    34   19   41 1   
    35   19   42 1   
    36   19   47 1   
    37   21   22 ar  
    38   21   26 ar  
    39   22   23 ar  
    40   22   43 1   
    41   23   24 ar  
    42   23   44 1   
    43   24   25 ar  
    44   24   45 1   
    45   25   26 ar  
    46   25   46 1   
    47   26   27 1   
    48   27   28 1   
    49   27   29 1   
    50   27   30 1   
@<TRIPOS>SUBSTRUCTURE
     1 430         1 TEMP              0 ****  ****    0 ROOT
