@<TRIPOS>MOLECULE
430
   46    49     1     0     0
SMALL
bcc


@<TRIPOS>ATOM
      1 C01        -1.8470   -0.3940   -1.7750 c3        1 430     -0.128100
      2 C02        -2.1690   -0.2700   -0.2980 c3        1 430      0.186400
      3 O03        -1.4130    0.7970    0.3300 os        1 430     -0.299900
      4 C04        -0.0650    0.7780    0.1160 cc        1 430      0.185100
      5 C05         0.7780   -0.3730    0.2000 cc        1 430     -0.256000
      6 C06         2.1210   -0.0230    0.0620 cd        1 430      0.057700
      7 N07         3.1890   -0.8950    0.1060 na        1 430     -0.083400
      8 C08         3.1420   -2.2740    0.4670 cc        1 430      0.444700
      9 N09         4.3290   -2.8760    0.4090 nd        1 430     -0.548100
     10 C10         5.2440   -1.8810   -0.0130 ca        1 430      0.073400
     11 C11         6.6220   -1.9410   -0.2450 ca        1 430     -0.063000
     12 C12         7.2700   -0.7830   -0.6600 ca        1 430     -0.146000
     13 C13         6.5790    0.4230   -0.8490 ca        1 430     -0.106000
     14 C14         5.2090    0.5250   -0.6280 ca        1 430     -0.132000
     15 C15         4.5390   -0.6260   -0.2090 ca        1 430     -0.073200
     16 S16         2.2980    1.6600   -0.1560 ss        1 430      0.049200
     17 C17         0.6480    1.9540   -0.0910 cd        1 430     -0.243700
     18 C18         0.0270    3.2740   -0.2720 c         1 430      0.716700
     19 N19         0.7360    4.3740    0.1750 n         1 430     -0.668000
     20 O20        -1.0720    3.4320   -0.8410 o         1 430     -0.599100
     21 C21        -3.6090    0.1130   -0.0940 ca        1 430     -0.042300
     22 C22        -3.9730    1.4550   -0.2720 ca        1 430     -0.104000
     23 C23        -5.2970    1.8550   -0.1110 ca        1 430     -0.104000
     24 C24        -6.2730    0.9170    0.2250 ca        1 430     -0.130000
     25 C25        -5.9220   -0.4190    0.4040 ca        1 430     -0.094000
     26 C26        -4.5920   -0.8250    0.2490 ca        1 430     -0.157300
     27 C27        -4.2570   -2.2980    0.4650 c3        1 430      0.686200
     28 F28        -5.3400   -3.1090    0.7030 f         1 430     -0.239300
     29 F29        -3.6260   -2.9060   -0.5960 f         1 430     -0.239300
     30 F30        -3.4250   -2.5470    1.5310 f         1 430     -0.239300
     31 H011       -0.7740   -0.6700   -1.9120 hc        1 430      0.060033
     32 H012       -2.4880   -1.1900   -2.2270 hc        1 430      0.060033
     33 H013       -2.0390    0.5760   -2.2960 hc        1 430      0.060033
     34 H02        -1.9210   -1.2270    0.2430 h1        1 430      0.061700
     35 H05         0.3930   -1.3830    0.3540 ha        1 430      0.171000
     36 H08         2.1960   -2.7460    0.7640 h5        1 430      0.079800
     37 H11         7.1700   -2.8830   -0.1010 ha        1 430      0.154000
     38 H12         8.3540   -0.8110   -0.8480 ha        1 430      0.138000
     39 H13         7.1350    1.3130   -1.1810 ha        1 430      0.137000
     40 H14         4.6800    1.4770   -0.7850 ha        1 430      0.140000
     41 H191        1.4740    4.2570    0.8200 hn        1 430      0.307000
     42 H192        0.2930    5.2590    0.1360 hn        1 430      0.307000
     43 H22        -3.1880    2.1920   -0.5310 ha        1 430      0.184000
     44 H23        -5.5700    2.9120   -0.2510 ha        1 430      0.144000
     45 H24        -7.3210    1.2270    0.3500 ha        1 430      0.141000
     46 H25        -6.6930   -1.1600    0.6700 ha        1 430      0.152000
@<TRIPOS>BOND
     1    1    2 1   
     2    1   31 1   
     3    1   32 1   
     4    1   33 1   
     5    2    3 1   
     6    2   21 1   
     7    2   34 1   
     8    3    4 1   
     9    4    5 1   
    10    4   17 2   
    11    5    6 2   
    12    5   35 1   
    13    6    7 1   
    14    6   16 1   
    15    7    8 1   
    16    7   15 1   
    17    8    9 2   
    18    8   36 1   
    19    9   10 1   
    20   10   11 ar  
    21   10   15 ar  
    22   11   12 ar  
    23   11   37 1   
    24   12   13 ar  
    25   12   38 1   
    26   13   14 ar  
    27   13   39 1   
    28   14   15 ar  
    29   14   40 1   
    30   16   17 1   
    31   17   18 1   
    32   18   19 1   
    33   18   20 2   
    34   19   41 1   
    35   19   42 1   
    36   21   22 ar  
    37   21   26 ar  
    38   22   23 ar  
    39   22   43 1   
    40   23   24 ar  
    41   23   44 1   
    42   24   25 ar  
    43   24   45 1   
    44   25   26 ar  
    45   25   46 1   
    46   26   27 1   
    47   27   28 1   
    48   27   29 1   
    49   27   30 1   
@<TRIPOS>SUBSTRUCTURE
     1 430         1 TEMP              0 ****  ****    0 ROOT
