@<TRIPOS>MOLECULE
430
   46    41     1     0     0
SMALL
bcc


@<TRIPOS>ATOM
      1 C01         0.5950   -0.4770   -2.7840 c3        1 430     -0.239000
      2 C02         1.4710    0.2290   -1.7740 c3        1 430      0.057000
      3 O03         1.6200   -0.5820   -0.6340 os        1 430     -0.217000
      4 C04         0.6100   -0.4020    0.3300 c2        1 430      0.075000
      5 C05        -0.7530   -1.2200    0.4160 c1        1 430     -0.221000
      6 C06        -1.4790   -0.7750    1.5910 c2        1 430     -0.217000
      7 N07        -2.6260   -1.2980    2.0540 n3        1 430     -0.130000
      8 C08        -2.0440   -2.2760    2.7990 c1        1 430     -0.015000
      9 N09        -3.0230   -2.9170    3.4890 n2        1 430     -0.124000
     10 C10        -4.2080   -2.3390    3.1730 c1        1 430     -0.067000
     11 C11        -5.5250   -2.5890    3.6040 c1        1 430     -0.110500
     12 C12        -6.5700   -1.8160    3.1250 c1        1 430     -0.110500
     13 C13        -6.3190   -0.7960    2.2200 c1        1 430     -0.110500
     14 C14        -5.0240   -0.5500    1.7960 c1        1 430     -0.110500
     15 C15        -3.9620   -1.3350    2.2830 c1        1 430     -0.030000
     16 S16        -0.6300    0.3210    2.2900 ss        1 430      0.703000
     17 C17         0.6650    0.5130    1.4570 c1        1 430     -0.477000
     18 C18         1.8220    1.4220    1.8090 c1        1 430      0.375000
     19 N19         1.7390    2.2680    2.9450 n3        1 430     -0.410000
     20 O20         2.8310    1.4110    1.1320 o         1 430     -0.384000
     21 C21         2.8290    0.4960   -2.3830 c2        1 430     -0.037000
     22 C22         3.7290   -0.5440   -2.5490 c2        1 430     -0.109000
     23 C23         4.9840   -0.2950   -3.0800 c1        1 430     -0.102000
     24 C24         5.3390    0.9930   -3.4450 c1        1 430     -0.110500
     25 C25         4.4380    2.0330   -3.2790 c1        1 430     -0.110500
     26 C26         3.1830    1.7840   -2.7480 c1        1 430     -0.151000
     27 C27         2.1770    2.9040   -2.6340 c3        1 430      0.464000
     28 F28         2.7470    4.0550   -3.0060 f         1 430     -0.165000
     29 F29         1.7610    3.0020   -1.3640 f         1 430     -0.165000
     30 F30         1.1300    2.6460   -3.4280 f         1 430     -0.165000
     31 H011        1.1430   -1.0860   -3.3220 hc        1 430      0.095667
     32 H012        0.1720    0.1860   -3.3700 hc        1 430      0.095667
     33 H013       -0.0960   -0.9870   -2.3160 hc        1 430      0.095667
     34 H02         1.0560    1.0770   -1.5190 h1        1 430      0.111000
     35 H05        -1.0510   -1.9000   -0.2160 DU        1 430      0.186000
     36 H08        -1.0890   -2.4710    2.8440 DU        1 430      0.186000
     37 H11        -5.7020   -3.3080    4.2410 ha        1 430      0.145500
     38 H12        -7.4830   -1.9900    3.4240 ha        1 430      0.145500
     39 H13        -7.0560   -0.2510    1.8820 ha        1 430      0.145500
     40 H14        -4.8470    0.1690    1.1590 ha        1 430      0.145500
     41 H191        2.3750    2.9100    3.0840 hn        1 430      0.234000
     42 H192        1.0630    2.1550    3.5510 hn        1 430      0.234000
     43 H22         3.4800   -1.4510   -2.2920 ha        1 430      0.156000
     44 H23         5.6180   -1.0270   -3.1970 ha        1 430      0.144000
     45 H24         6.2230    1.1690   -3.8190 ha        1 430      0.145500
     46 H25         4.6870    2.9410   -3.5360 ha        1 430      0.145500
@<TRIPOS>BOND
     1    1    2 1   
     2    1   31 1   
     3    1   32 1   
     4    1   33 1   
     5    2    3 1   
     6    2   21 1   
     7    2   34 1   
     8    3    4 1   
     9    4    5 1   
    10    4   17 1   
    11    5    6 1   
    12    6    7 1   
    13    6   16 1   
    14    7    8 1   
    15    7   15 1   
    16    8    9 1   
    17    9   10 1   
    18   10   15 1   
    19   11   12 1   
    20   11   37 1   
    21   12   38 1   
    22   13   14 1   
    23   13   39 1   
    24   14   40 1   
    25   16   17 1   
    26   18   19 1   
    27   18   20 1   
    28   19   41 1   
    29   19   42 1   
    30   21   22 1   
    31   21   26 1   
    32   22   23 1   
    33   22   43 1   
    34   23   44 1   
    35   24   25 1   
    36   24   45 1   
    37   25   46 1   
    38   26   27 1   
    39   27   28 1   
    40   27   29 1   
    41   27   30 1   
@<TRIPOS>SUBSTRUCTURE
     1 430         1 TEMP              0 ****  ****    0 ROOT
