@<TRIPOS>MOLECULE
430
   47    50     1     0     0
SMALL
bcc


@<TRIPOS>ATOM
      1 C01        -0.0940   -0.2190   -0.4090 c3        1 430     -0.126100
      2 C02         1.4160   -0.1250   -0.3170 c3        1 430      0.186400
      3 O03         1.8010    0.0210    1.0890 os        1 430     -0.278900
      4 C04         1.7730    1.2560    1.6150 cc        1 430      0.316100
      5 C05         1.3610    2.4640    0.9970 cc        1 430     -0.335000
      6 C06         1.4880    3.5670    1.8560 cd        1 430      0.215700
      7 N07         1.1810    4.8550    1.5530 na        1 430     -0.098400
      8 C08         0.6950    5.3550    0.2860 cc        1 430      0.453700
      9 N09         0.4840    6.6600    0.2890 nd        1 430     -0.496100
     10 C10         0.8270    7.1170    1.5930 ca        1 430      0.083400
     11 C11         0.7950    8.3970    2.1450 ca        1 430     -0.044000
     12 C12         1.1960    8.5470    3.4730 ca        1 430     -0.125000
     13 C13         1.6190    7.4590    4.2430 ca        1 430     -0.093000
     14 C14         1.6630    6.1640    3.7220 ca        1 430     -0.130000
     15 C15         1.2670    5.9950    2.3990 ca        1 430     -0.085200
     16 S16         2.0960    3.0840    3.3850 ss        1 430     -0.039800
     17 C17         2.2060    1.4470    2.9560 cd        1 430     -0.357700
     18 C18         2.6470    0.3790    3.7660 c         1 430      0.628700
     19 N19         3.1860    0.7940    5.1480 n4        1 430     -0.770400
     20 O20         2.6920   -0.8330    3.5950 o         1 430     -0.447100
     21 C21         2.0860   -1.3850   -0.7810 ca        1 430     -0.068300
     22 C22         2.0700   -2.5110    0.0490 ca        1 430     -0.105000
     23 C23         2.6600   -3.7050   -0.3630 ca        1 430     -0.098000
     24 C24         3.2680   -3.7850   -1.6130 ca        1 430     -0.111000
     25 C25         3.2920   -2.6690   -2.4490 ca        1 430     -0.081000
     26 C26         2.7080   -1.4680   -2.0370 ca        1 430     -0.149300
     27 C27         2.7680   -0.2720   -2.9850 c3        1 430      0.684200
     28 F28         3.3270   -0.5290   -4.2100 f         1 430     -0.233967
     29 F29         1.5430    0.2790   -3.2850 f         1 430     -0.233967
     30 F30         3.4960    0.7930   -2.5030 f         1 430     -0.233967
     31 H011       -0.3850   -0.3110   -1.4840 hc        1 430      0.067033
     32 H012       -0.4670   -1.1130    0.1480 hc        1 430      0.067033
     33 H013       -0.5660    0.6970    0.0210 hc        1 430      0.067033
     34 H02         1.8030    0.7660   -0.8860 h1        1 430      0.080700
     35 H05         0.9820    2.5200   -0.0270 ha        1 430      0.193000
     36 H08         0.5390    4.6720   -0.5610 h5        1 430      0.090800
     37 H11         0.4640    9.2600    1.5460 ha        1 430      0.173000
     38 H12         1.1790    9.5520    3.9270 ha        1 430      0.158000
     39 H13         1.9260    7.6240    5.2880 ha        1 430      0.149000
     40 H14         1.9970    5.3220    4.3450 ha        1 430      0.127000
     41 H191        3.9840    1.4220    5.0350 hn        1 430      0.457800
     42 H192        3.4860   -0.0450    5.6570 hn        1 430      0.457800
     43 H22         1.5920   -2.4420    1.0400 ha        1 430      0.153000
     44 H23         2.6400   -4.5840    0.3010 ha        1 430      0.152000
     45 H24         3.7310   -4.7280   -1.9480 ha        1 430      0.157000
     46 H25         3.7730   -2.7340   -3.4400 ha        1 430      0.166000
     47 H193        2.4580    1.2690    5.6830 hn        1 430      0.457800
@<TRIPOS>BOND
     1    1    2 1   
     2    1   31 1   
     3    1   32 1   
     4    1   33 1   
     5    2    3 1   
     6    2   21 1   
     7    2   34 1   
     8    3    4 1   
     9    4    5 1   
    10    4   17 2   
    11    5    6 2   
    12    5   35 1   
    13    6    7 1   
    14    6   16 1   
    15    7    8 1   
    16    7   15 1   
    17    8    9 2   
    18    8   36 1   
    19    9   10 1   
    20   10   11 ar  
    21   10   15 ar  
    22   11   12 ar  
    23   11   37 1   
    24   12   13 ar  
    25   12   38 1   
    26   13   14 ar  
    27   13   39 1   
    28   14   15 ar  
    29   14   40 1   
    30   16   17 1   
    31   17   18 1   
    32   18   19 1   
    33   18   20 2   
    34   19   41 1   
    35   19   42 1   
    36   19   47 1   
    37   21   22 ar  
    38   21   26 ar  
    39   22   23 ar  
    40   22   43 1   
    41   23   24 ar  
    42   23   44 1   
    43   24   25 ar  
    44   24   45 1   
    45   25   26 ar  
    46   25   46 1   
    47   26   27 1   
    48   27   28 1   
    49   27   29 1   
    50   27   30 1   
@<TRIPOS>SUBSTRUCTURE
     1 430         1 TEMP              0 ****  ****    0 ROOT
