@<TRIPOS>MOLECULE
430
   47    50     1     0     0
SMALL
bcc


@<TRIPOS>ATOM
      1 C01        -0.0820   -0.2050   -0.4430 c3        1 430     -0.126100
      2 C02         1.4260   -0.1170   -0.3310 c3        1 430      0.186400
      3 O03         1.7930    0.0210    1.0810 os        1 430     -0.278900
      4 C04         1.7630    1.2540    1.6120 cc        1 430      0.316100
      5 C05         1.3640    2.4660    0.9940 cc        1 430     -0.335000
      6 C06         1.4840    3.5650    1.8580 cd        1 430      0.215700
      7 N07         1.1860    4.8560    1.5570 na        1 430     -0.098400
      8 C08         0.7190    5.3630    0.2850 cc        1 430      0.453700
      9 N09         0.5130    6.6680    0.2910 nd        1 430     -0.496100
     10 C10         0.8410    7.1190    1.6020 ca        1 430      0.083400
     11 C11         0.8080    8.3960    2.1580 ca        1 430     -0.044000
     12 C12         1.1920    8.5400    3.4930 ca        1 430     -0.125000
     13 C13         1.6000    7.4460    4.2630 ca        1 430     -0.093000
     14 C14         1.6450    6.1530    3.7370 ca        1 430     -0.130000
     15 C15         1.2660    5.9920    2.4090 ca        1 430     -0.085200
     16 S16         2.0690    3.0730    3.3930 ss        1 430     -0.039800
     17 C17         2.1780    1.4380    2.9600 cd        1 430     -0.357700
     18 C18         2.6030    0.3640    3.7710 c         1 430      0.628700
     19 N19         3.1250    0.7710    5.1620 n4        1 430     -0.770400
     20 O20         2.6460   -0.8470    3.5950 o         1 430     -0.447100
     21 C21         2.0980   -1.3780   -0.7910 ca        1 430     -0.068300
     22 C22         2.0650   -2.5070    0.0350 ca        1 430     -0.105000
     23 C23         2.6560   -3.7030   -0.3750 ca        1 430     -0.098000
     24 C24         3.2810   -3.7800   -1.6170 ca        1 430     -0.111000
     25 C25         3.3210   -2.6600   -2.4480 ca        1 430     -0.081000
     26 C26         2.7360   -1.4590   -2.0390 ca        1 430     -0.149300
     27 C27         2.8140   -0.2590   -2.9810 c3        1 430      0.684200
     28 F28         3.3880   -0.5130   -4.2000 f         1 430     -0.233967
     29 F29         1.5950    0.2980   -3.2950 f         1 430     -0.233967
     30 F30         3.5390    0.8010   -2.4860 f         1 430     -0.233967
     31 H011       -0.4660   -1.0990    0.1040 hc        1 430      0.067033
     32 H012       -0.3600   -0.2920   -1.5230 hc        1 430      0.067033
     33 H013       -0.5560    0.7110   -0.0160 hc        1 430      0.067033
     34 H02         1.8250    0.7740   -0.8910 h1        1 430      0.080700
     35 H05         0.9990    2.5280   -0.0360 ha        1 430      0.193000
     36 H08         0.5720    4.6840   -0.5660 h5        1 430      0.090800
     37 H11         0.4880    9.2640    1.5590 ha        1 430      0.173000
     38 H12         1.1720    9.5420    3.9500 ha        1 430      0.158000
     39 H13         1.8940    7.6060    5.3130 ha        1 430      0.149000
     40 H14         1.9680    5.3070    4.3620 ha        1 430      0.127000
     41 H191        3.9270    1.3960    5.0630 hn        1 430      0.457800
     42 H192        3.4140   -0.0720    5.6710 hn        1 430      0.457800
     43 H22         1.5750   -2.4410    1.0190 ha        1 430      0.153000
     44 H23         2.6240   -4.5840    0.2850 ha        1 430      0.152000
     45 H24         3.7440   -4.7230   -1.9490 ha        1 430      0.157000
     46 H25         3.8140   -2.7230   -3.4330 ha        1 430      0.166000
     47 H193        2.3910    1.2470    5.6890 hn        1 430      0.457800
@<TRIPOS>BOND
     1    1    2 1   
     2    1   31 1   
     3    1   32 1   
     4    1   33 1   
     5    2    3 1   
     6    2   21 1   
     7    2   34 1   
     8    3    4 1   
     9    4    5 1   
    10    4   17 2   
    11    5    6 2   
    12    5   35 1   
    13    6    7 1   
    14    6   16 1   
    15    7    8 1   
    16    7   15 1   
    17    8    9 2   
    18    8   36 1   
    19    9   10 1   
    20   10   11 ar  
    21   10   15 ar  
    22   11   12 ar  
    23   11   37 1   
    24   12   13 ar  
    25   12   38 1   
    26   13   14 ar  
    27   13   39 1   
    28   14   15 ar  
    29   14   40 1   
    30   16   17 1   
    31   17   18 1   
    32   18   19 1   
    33   18   20 2   
    34   19   41 1   
    35   19   42 1   
    36   19   47 1   
    37   21   22 ar  
    38   21   26 ar  
    39   22   23 ar  
    40   22   43 1   
    41   23   24 ar  
    42   23   44 1   
    43   24   25 ar  
    44   24   45 1   
    45   25   26 ar  
    46   25   46 1   
    47   26   27 1   
    48   27   28 1   
    49   27   29 1   
    50   27   30 1   
@<TRIPOS>SUBSTRUCTURE
     1 430         1 TEMP              0 ****  ****    0 ROOT
