@<TRIPOS>MOLECULE
431
   30    32     1     0     0
SMALL
bcc


@<TRIPOS>ATOM
      1 CAB        -0.3770    1.5600    0.2920 cc        1 431     -0.321200
      2 CAD        -1.8290    1.7260    0.3200 c         1 431      0.590900
      3 OAH        -2.3760    2.8210    0.5090 o         1 431     -0.547100
      4 CAE        -2.5780    0.4780    0.1060 ca        1 431     -0.214600
      5 CAN        -3.9810    0.4550    0.1080 ca        1 431     -0.047000
      6 CAQ        -4.6640   -0.7370   -0.0970 ca        1 431     -0.166000
      7 CAR        -3.9570   -1.9270   -0.3080 ca        1 431     -0.079000
      8 CAO        -2.5680   -1.9370   -0.3150 ca        1 431     -0.160000
      9 CAF        -1.8860   -0.7240   -0.1060 ca        1 431      0.143100
     10 OAC        -0.5030   -0.8140   -0.1290 os        1 431     -0.225200
     11 CAA         0.2100    0.3600    0.0740 cd        1 431      0.199900
     12 CAG         1.6530    0.1210    0.0320 ca        1 431     -0.085800
     13 CAI         2.1820   -1.1270    0.3910 ca        1 431     -0.087500
     14 CAK         3.5570   -1.3390    0.3640 ca        1 431     -0.139000
     15 CAM         4.4270   -0.3120   -0.0230 ca        1 431     -0.051300
     16 CAP         5.8910   -0.5330   -0.0340 c3        1 431     -0.059800
     17 CAL         3.8960    0.9310   -0.3900 ca        1 431     -0.139000
     18 CAJ         2.5210    1.1480   -0.3650 ca        1 431     -0.087500
     19 H1          0.2260    2.4630    0.4670 ha        1 431      0.168000
     20 H2         -4.5220    1.4020    0.2750 ha        1 431      0.161000
     21 H3         -5.7630   -0.7490   -0.0950 ha        1 431      0.141000
     22 H4         -4.5070   -2.8680   -0.4700 ha        1 431      0.139000
     23 H5         -1.9980   -2.8610   -0.4800 ha        1 431      0.153000
     24 H6          1.5020   -1.9390    0.6920 ha        1 431      0.145000
     25 H7          3.9640   -2.3200    0.6500 ha        1 431      0.138000
     26 H8          6.3240   -0.2560    0.9600 hc        1 431      0.049367
     27 H9          6.1330   -1.6070   -0.2330 hc        1 431      0.049367
     28 H10         6.3850    0.0920   -0.8180 hc        1 431      0.049367
     29 H11         4.5700    1.7420   -0.7030 ha        1 431      0.138000
     30 H12         2.1160    2.1280   -0.6640 ha        1 431      0.145000
@<TRIPOS>BOND
     1    1    2 1   
     2    1   11 2   
     3    1   19 1   
     4    2    3 2   
     5    2    4 1   
     6    4    5 ar  
     7    4    9 ar  
     8    5    6 ar  
     9    5   20 1   
    10    6    7 ar  
    11    6   21 1   
    12    7    8 ar  
    13    7   22 1   
    14    8    9 ar  
    15    8   23 1   
    16    9   10 1   
    17   10   11 1   
    18   11   12 1   
    19   12   13 ar  
    20   12   18 ar  
    21   13   14 ar  
    22   13   24 1   
    23   14   15 ar  
    24   14   25 1   
    25   15   16 1   
    26   15   17 ar  
    27   16   26 1   
    28   16   27 1   
    29   16   28 1   
    30   17   18 ar  
    31   17   29 1   
    32   18   30 1   
@<TRIPOS>SUBSTRUCTURE
     1 431         1 TEMP              0 ****  ****    0 ROOT
