@<TRIPOS>MOLECULE
431
   30    32     1     0     0
SMALL
bcc


@<TRIPOS>ATOM
      1 CAB         0.0720   -0.2980   -0.0800 cc        1 431     -0.321200
      2 CAD         1.5330   -0.3260   -0.0610 c         1 431      0.590900
      3 OAH         2.2150   -0.5200   -1.0780 o         1 431     -0.547100
      4 CAE         2.1190   -0.1060    1.2690 ca        1 431     -0.214600
      5 CAN         3.5090   -0.1070    1.4690 ca        1 431     -0.047000
      6 CAQ         4.0350    0.1030    2.7370 ca        1 431     -0.166000
      7 CAR         3.1850    0.3200    3.8280 ca        1 431     -0.079000
      8 CAO         1.8060    0.3270    3.6620 ca        1 431     -0.160000
      9 CAF         1.2810    0.1120    2.3740 ca        1 431      0.143100
     10 OAC        -0.1020    0.1350    2.2890 os        1 431     -0.225200
     11 CAA        -0.6610   -0.0750    1.0350 cd        1 431      0.199900
     12 CAG        -2.1230   -0.0320    1.0910 ca        1 431     -0.085800
     13 CAI        -2.8040   -0.3850    2.2640 ca        1 431     -0.087500
     14 CAK        -4.1950   -0.3580    2.3000 ca        1 431     -0.139000
     15 CAM        -4.9290    0.0250    1.1710 ca        1 431     -0.051300
     16 CAP        -6.4090    0.0370    1.2060 c3        1 431     -0.059800
     17 CAL        -4.2450    0.3860    0.0030 ca        1 431     -0.139000
     18 CAJ        -2.8540    0.3600   -0.0400 ca        1 431     -0.087500
     19 H1         -0.4130   -0.4770   -1.0510 ha        1 431      0.168000
     20 H2          4.1640   -0.2780    0.5990 ha        1 431      0.161000
     21 H3          5.1250    0.1020    2.8870 ha        1 431      0.141000
     22 H4          3.6110    0.4860    4.8290 ha        1 431      0.139000
     23 H5          1.1240    0.4960    4.5060 ha        1 431      0.153000
     24 H6         -2.2320   -0.6820    3.1560 ha        1 431      0.145000
     25 H7         -4.7230   -0.6390    3.2240 ha        1 431      0.138000
     26 H8         -6.8200    0.8170    0.5180 hc        1 431      0.049367
     27 H9         -6.8040   -0.9600    0.8810 hc        1 431      0.049367
     28 H10        -6.7840    0.2410    2.2390 hc        1 431      0.049367
     29 H11        -4.8120    0.6950   -0.8880 ha        1 431      0.138000
     30 H12        -2.3290    0.6550   -0.9620 ha        1 431      0.145000
@<TRIPOS>BOND
     1    1    2 1   
     2    1   11 2   
     3    1   19 1   
     4    2    3 2   
     5    2    4 1   
     6    4    5 ar  
     7    4    9 ar  
     8    5    6 ar  
     9    5   20 1   
    10    6    7 ar  
    11    6   21 1   
    12    7    8 ar  
    13    7   22 1   
    14    8    9 ar  
    15    8   23 1   
    16    9   10 1   
    17   10   11 1   
    18   11   12 1   
    19   12   13 ar  
    20   12   18 ar  
    21   13   14 ar  
    22   13   24 1   
    23   14   15 ar  
    24   14   25 1   
    25   15   16 1   
    26   15   17 ar  
    27   16   26 1   
    28   16   27 1   
    29   16   28 1   
    30   17   18 ar  
    31   17   29 1   
    32   18   30 1   
@<TRIPOS>SUBSTRUCTURE
     1 431         1 TEMP              0 ****  ****    0 ROOT
