@<TRIPOS>MOLECULE
431
   30    32     1     0     0
SMALL
bcc


@<TRIPOS>ATOM
      1 CAB         0.0700   -0.3040   -0.0800 cc        1 431     -0.321200
      2 CAD         1.5310   -0.3340   -0.0630 c         1 431      0.590900
      3 OAH         2.2110   -0.5320   -1.0800 o         1 431     -0.547100
      4 CAE         2.1190   -0.1100    1.2660 ca        1 431     -0.214600
      5 CAN         3.5080   -0.1130    1.4640 ca        1 431     -0.047000
      6 CAQ         4.0370    0.1010    2.7310 ca        1 431     -0.166000
      7 CAR         3.1870    0.3220    3.8220 ca        1 431     -0.079000
      8 CAO         1.8090    0.3300    3.6580 ca        1 431     -0.160000
      9 CAF         1.2820    0.1120    2.3710 ca        1 431      0.143100
     10 OAC        -0.1010    0.1360    2.2870 os        1 431     -0.225200
     11 CAA        -0.6620   -0.0760    1.0350 cd        1 431      0.199900
     12 CAG        -2.1230   -0.0310    1.0920 ca        1 431     -0.085800
     13 CAI        -2.8040   -0.3800    2.2670 ca        1 431     -0.087500
     14 CAK        -4.1950   -0.3510    2.3050 ca        1 431     -0.139000
     15 CAM        -4.9290    0.0290    1.1750 ca        1 431     -0.051300
     16 CAP        -6.4090    0.0420    1.2120 c3        1 431     -0.059800
     17 CAL        -4.2460    0.3850    0.0050 ca        1 431     -0.139000
     18 CAJ        -2.8560    0.3580   -0.0390 ca        1 431     -0.087500
     19 H1         -0.4160   -0.4850   -1.0500 ha        1 431      0.168000
     20 H2          4.1630   -0.2870    0.5940 ha        1 431      0.161000
     21 H3          5.1270    0.0980    2.8800 ha        1 431      0.141000
     22 H4          3.6160    0.4910    4.8220 ha        1 431      0.139000
     23 H5          1.1280    0.5030    4.5030 ha        1 431      0.153000
     24 H6         -2.2310   -0.6750    3.1600 ha        1 431      0.145000
     25 H7         -4.7220   -0.6290    3.2300 ha        1 431      0.138000
     26 H8         -6.8210    0.8160    0.5180 hc        1 431      0.049367
     27 H9         -6.8060   -0.9560    0.8960 hc        1 431      0.049367
     28 H10        -6.7830    0.2560    2.2430 hc        1 431      0.049367
     29 H11        -4.8140    0.6920   -0.8860 ha        1 431      0.138000
     30 H12        -2.3310    0.6490   -0.9620 ha        1 431      0.145000
@<TRIPOS>BOND
     1    1    2 1   
     2    1   11 2   
     3    1   19 1   
     4    2    3 2   
     5    2    4 1   
     6    4    5 ar  
     7    4    9 ar  
     8    5    6 ar  
     9    5   20 1   
    10    6    7 ar  
    11    6   21 1   
    12    7    8 ar  
    13    7   22 1   
    14    8    9 ar  
    15    8   23 1   
    16    9   10 1   
    17   10   11 1   
    18   11   12 1   
    19   12   13 ar  
    20   12   18 ar  
    21   13   14 ar  
    22   13   24 1   
    23   14   15 ar  
    24   14   25 1   
    25   15   16 1   
    26   15   17 ar  
    27   16   26 1   
    28   16   27 1   
    29   16   28 1   
    30   17   18 ar  
    31   17   29 1   
    32   18   30 1   
@<TRIPOS>SUBSTRUCTURE
     1 431         1 TEMP              0 ****  ****    0 ROOT
