@<TRIPOS>MOLECULE
431
   30    23     1     0     0
SMALL
bcc


@<TRIPOS>ATOM
      1 CAB         0.9530    0.0270   -1.5830 c1        1 431     -0.302000
      2 CAD         2.3970    0.0570   -1.5880 c1        1 431      0.312000
      3 OAH         3.0020   -0.0030   -2.6400 o         1 431     -0.308000
      4 CAE         3.1490    0.0400   -0.2850 c2        1 431     -0.194000
      5 CAN         4.5470    0.0740   -0.2810 c2        1 431     -0.047000
      6 CAQ         5.2430    0.0300    0.9270 c1        1 431     -0.166000
      7 CAR         4.5400   -0.0480    2.1410 c1        1 431     -0.115500
      8 CAO         3.1450   -0.0820    2.1390 c1        1 431     -0.115500
      9 CAF         2.4460   -0.0380    0.9300 c1        1 431      0.098000
     10 OAC         0.9530    0.0340    0.9360 o         1 431     -0.136000
     11 CAA         0.2260   -0.0170   -0.3000 c1        1 431      0.144000
     12 CAG        -1.2880   -0.0110   -0.2880 c1        1 431     -0.059000
     13 CAI        -1.9850   -1.2090   -0.2820 c1        1 431     -0.115500
     14 CAK        -3.3710   -1.2040   -0.2820 c1        1 431     -0.115500
     15 CAM        -4.0600   -0.0010   -0.2860 c1        1 431     -0.059000
     16 CAP        -5.5720    0.0050   -0.2280 c2        1 431     -0.185000
     17 CAL        -3.3620    1.1970   -0.2920 c1        1 431     -0.115000
     18 CAJ        -1.9760    1.1920   -0.2930 c1        1 431     -0.115000
     19 H1          0.4610   -0.0070   -2.4260 ha        1 431      0.168000
     20 H2          5.0360    0.1280   -1.1240 ha        1 431      0.161000
     21 H3          6.2190    0.0540    0.9290 ha        1 431      0.141000
     22 H4          5.0280   -0.0780    2.9860 ha        1 431      0.144500
     23 H5          2.6580   -0.1360    2.9830 ha        1 431      0.144500
     24 H6         -1.5000   -2.0560   -0.2790 ha        1 431      0.144500
     25 H7         -3.8630   -2.0470   -0.2780 ha        1 431      0.144500
     26 H8         -5.9150    0.7760   -0.7270 ha        1 431      0.088667
     27 H9         -5.9170   -0.8210   -0.6260 ha        1 431      0.088667
     28 H10        -5.8620    0.0650    0.7060 ha        1 431      0.088667
     29 H11        -3.8470    2.0440   -0.2950 ha        1 431      0.140000
     30 H12        -1.4850    2.0350   -0.2960 ha        1 431      0.140000
@<TRIPOS>BOND
     1    1   11 1   
     2    1   19 1   
     3    2    3 1   
     4    2    4 1   
     5    4    5 1   
     6    4    9 1   
     7    5    6 1   
     8    5   20 1   
     9    6   21 1   
    10    7    8 1   
    11    7   22 1   
    12    8   23 1   
    13   10   11 1   
    14   12   18 1   
    15   13   14 1   
    16   13   24 1   
    17   14   25 1   
    18   15   17 1   
    19   16   26 1   
    20   16   27 1   
    21   16   28 1   
    22   17   29 1   
    23   18   30 1   
@<TRIPOS>SUBSTRUCTURE
     1 431         1 TEMP              0 ****  ****    0 ROOT
