@<TRIPOS>MOLECULE
433
   66    68     1     0     0
SMALL
bcc


@<TRIPOS>ATOM
      1 C1A        -5.3280   -1.1990   -3.1950 c         1 433      0.902600
      2 O1C        -5.1470   -2.4480   -3.2670 o         1 433     -0.864800
      3 O1B        -6.0890   -0.6270   -4.0440 o         1 433     -0.864800
      4 C1D        -4.6380   -0.3730   -2.0970 c3        1 433      0.067800
      5 C1X        -3.5130   -1.1510   -1.4350 c3        1 433     -0.090100
      6 C1Y        -5.6780    0.0560   -1.0690 c3        1 433     -0.090100
      7 O1E        -4.0730    0.8740   -2.5950 os        1 433     -0.339900
      8 C1F        -3.9210    0.9700   -3.9590 ca        1 433      0.178100
      9 C1G        -3.3310   -0.0430   -4.7330 ca        1 433     -0.162500
     10 C1I        -3.3160    0.0760   -6.1180 ca        1 433     -0.122500
     11 C1K        -3.8870    1.1950   -6.7370 ca        1 433     -0.165300
     12 C1J        -4.3430    2.2620   -5.9510 ca        1 433     -0.122500
     13 C1H        -4.3610    2.1620   -4.5650 ca        1 433     -0.162500
     14 C1L        -4.0800    1.2180   -8.2090 c3        1 433     -0.033100
     15 C1M        -5.5410    1.0220   -8.5780 c3        1 433     -0.098400
     16 C1N        -6.1070   -0.3340   -8.1780 c3        1 433      0.114800
     17 N2B        -6.5220   -0.4920   -6.7520 n4        1 433     -0.557200
     18 C2C        -7.4720    0.5450   -6.2500 c3        1 433      0.123800
     19 C2A        -7.1450   -1.8960   -6.6110 c         1 433      0.653100
     20 O2A        -8.2070   -2.0640   -7.2280 o         1 433     -0.545100
     21 N3A        -6.3940   -2.8300   -5.9250 n         1 433     -0.408100
     22 C3B        -6.9180   -4.1350   -5.7120 ca        1 433      0.026600
     23 C3C        -7.1590   -4.5640   -4.3890 ca        1 433     -0.103000
     24 C3E        -7.6160   -5.8550   -4.1470 ca        1 433     -0.117000
     25 C3G        -7.8400   -6.7380   -5.2000 ca        1 433     -0.112000
     26 C3F        -7.5790   -6.3350   -6.5120 ca        1 433      0.016400
     27 CL3F       -7.8380   -7.4430   -7.7730 cl        1 433     -0.069400
     28 C3D        -7.1020   -5.0430   -6.7810 ca        1 433      0.030400
     29 CL3D       -6.7250   -4.5950   -8.3740 cl        1 433     -0.069400
     30 C2D        -8.6740    0.8400   -7.1420 c3        1 433     -0.057100
     31 C2E        -9.4420    1.9810   -6.5720 ca        1 433     -0.117300
     32 C2F       -10.5340    1.8030   -5.7120 ca        1 433      0.049400
     33 CL2F      -11.0200    0.2470   -5.2360 cl        1 433     -0.064400
     34 C2H       -11.2510    2.8990   -5.2180 ca        1 433     -0.134000
     35 C2J       -10.8800    4.1920   -5.5770 ca        1 433     -0.090000
     36 C2I        -9.7980    4.4070   -6.4240 ca        1 433     -0.160000
     37 C2G        -9.0790    3.3050   -6.9180 ca        1 433      0.130900
     38 F2G        -8.0210    3.5190   -7.7390 f         1 433     -0.143900
     39 H1X1       -3.9150   -2.1240   -1.0630 hc        1 433      0.045533
     40 H1X2       -3.0880   -0.5670   -0.5850 hc        1 433      0.045533
     41 H1X3       -2.7000   -1.3620   -2.1690 hc        1 433      0.045533
     42 H1Y1       -6.5260    0.5680   -1.5830 hc        1 433      0.045533
     43 H1Y2       -6.0580   -0.8460   -0.5360 hc        1 433      0.045533
     44 H1Y3       -5.2230    0.7590   -0.3320 hc        1 433      0.045533
     45 H1G1       -2.9420   -0.9500   -4.2420 ha        1 433      0.156500
     46 H1I1       -2.8700   -0.7230   -6.7290 ha        1 433      0.131000
     47 H1J1       -4.7180    3.1740   -6.4390 ha        1 433      0.131000
     48 H1H1       -4.7450    2.9790   -3.9380 ha        1 433      0.156500
     49 H1L1       -3.7410    2.2050   -8.6250 hc        1 433      0.057700
     50 H1L2       -3.4590    0.4200   -8.6980 hc        1 433      0.057700
     51 H1M1       -5.6380    1.0850   -9.6970 hc        1 433      0.070200
     52 H1M2       -6.1540    1.8580   -8.1460 hc        1 433      0.070200
     53 H1N1       -7.0170   -0.5530   -8.8100 hx        1 433      0.093200
     54 H1N2       -5.3330   -1.1320   -8.3760 hx        1 433      0.093200
     55 H2C1       -7.8160    0.1960   -5.2280 hx        1 433      0.120700
     56 H2C2       -6.8650    1.4880   -6.1040 hx        1 433      0.120700
     57 HN31       -5.8160   -2.4990   -5.1450 hn        1 433      0.406500
     58 H3C1       -6.9440   -3.8770   -3.5460 ha        1 433      0.197000
     59 H3E1       -7.8010   -6.1790   -3.1110 ha        1 433      0.149000
     60 H3G1       -8.2140   -7.7550   -5.0010 ha        1 433      0.153000
     61 H2D1       -8.3340    1.1140   -8.1790 hc        1 433      0.083700
     62 H2D2       -9.3240   -0.0730   -7.2340 hc        1 433      0.083700
     63 H2H1      -12.1060    2.7380   -4.5430 ha        1 433      0.157000
     64 H2J1      -11.4460    5.0520   -5.1860 ha        1 433      0.148000
     65 H2I1       -9.4950    5.4250   -6.7110 ha        1 433      0.156000
     66 H2B1       -5.6890   -0.4150   -6.1220 hn        1 433      0.503800
@<TRIPOS>BOND
     1    1    2 1   
     2    1    3 1   
     3    1    4 1   
     4    4    5 1   
     5    4    6 1   
     6    4    7 1   
     7    5   39 1   
     8    5   40 1   
     9    5   41 1   
    10    6   42 1   
    11    6   43 1   
    12    6   44 1   
    13    7    8 1   
    14    8    9 ar  
    15    8   13 ar  
    16    9   10 ar  
    17    9   45 1   
    18   10   11 ar  
    19   10   46 1   
    20   11   12 ar  
    21   11   14 1   
    22   12   13 ar  
    23   12   47 1   
    24   13   48 1   
    25   14   15 1   
    26   14   49 1   
    27   14   50 1   
    28   15   16 1   
    29   15   51 1   
    30   15   52 1   
    31   16   17 1   
    32   16   53 1   
    33   16   54 1   
    34   17   18 1   
    35   17   19 1   
    36   17   66 1   
    37   18   30 1   
    38   18   55 1   
    39   18   56 1   
    40   19   20 2   
    41   19   21 1   
    42   21   22 1   
    43   21   57 1   
    44   22   23 ar  
    45   22   28 ar  
    46   23   24 ar  
    47   23   58 1   
    48   24   25 ar  
    49   24   59 1   
    50   25   26 ar  
    51   25   60 1   
    52   26   27 1   
    53   26   28 ar  
    54   28   29 1   
    55   30   31 1   
    56   30   61 1   
    57   30   62 1   
    58   31   32 ar  
    59   31   37 ar  
    60   32   33 1   
    61   32   34 ar  
    62   34   35 ar  
    63   34   63 1   
    64   35   36 ar  
    65   35   64 1   
    66   36   37 ar  
    67   36   65 1   
    68   37   38 1   
@<TRIPOS>SUBSTRUCTURE
     1 433         1 TEMP              0 ****  ****    0 ROOT
