@<TRIPOS>MOLECULE
433
   65    67     1     0     0
SMALL
bcc


@<TRIPOS>ATOM
      1 C1A         1.6250    0.7760    8.8410 c         1 433      0.939600
      2 O1C         2.6300    0.1240    9.2200 o         1 433     -0.810800
      3 O1B         1.2220    1.8620    9.3270 o         1 433     -0.810800
      4 C1D         0.7560    0.1300    7.6680 c3        1 433      0.007800
      5 C1X        -0.5320    0.8960    7.4340 c3        1 433     -0.108100
      6 C1Y         0.5090   -1.3210    8.0310 c3        1 433     -0.108100
      7 O1E         1.6460    0.2420    6.5370 os        1 433     -0.289900
      8 C1F         1.3150   -0.2820    5.3230 ca        1 433      0.180100
      9 C1G         0.0590   -0.7590    4.9180 ca        1 433     -0.202000
     10 C1I        -0.1200   -1.2340    3.6210 ca        1 433     -0.093500
     11 C1K         0.9320   -1.2420    2.7040 ca        1 433     -0.170300
     12 C1J         2.1870   -0.7620    3.1080 ca        1 433     -0.093500
     13 C1H         2.3870   -0.2890    4.3940 ca        1 433     -0.202000
     14 C1L         0.7410   -1.7630    1.3250 c3        1 433     -0.012100
     15 C1M         0.6430   -0.6370    0.3110 c3        1 433     -0.111400
     16 C1N         0.5770   -1.2180   -1.1020 c3        1 433      0.082000
     17 N2B         0.4760   -0.2600   -2.1760 n         1 433     -0.470800
     18 C2C         1.7160    0.2810   -2.6920 c3        1 433      0.104000
     19 C2A        -0.7180    0.3990   -2.5170 c         1 433      0.782100
     20 O2A        -0.7280    1.2080   -3.4760 o         1 433     -0.638100
     21 N3A        -1.8910    0.1330   -1.7780 n         1 433     -0.470100
     22 C3B        -3.1760    0.4900   -2.2050 ca        1 433      0.102600
     23 C3C        -3.4230    1.6660   -2.9480 ca        1 433     -0.136000
     24 C3E        -4.7180    2.0140   -3.3120 ca        1 433     -0.101000
     25 C3G        -5.8040    1.2230   -2.9480 ca        1 433     -0.149000
     26 C3F        -5.5850    0.0580   -2.2090 ca        1 433      0.043400
     27 CL3F       -6.9240   -0.8930   -1.7730 cl        1 433     -0.079400
     28 C3D        -4.2880   -0.3200   -1.8410 ca        1 433     -0.040600
     29 CL3D       -4.0490   -1.7500   -0.9470 cl        1 433     -0.078400
     30 C2D         2.3340   -0.5800   -3.8060 c3        1 433     -0.057100
     31 C2E         3.6850   -0.0700   -4.1640 ca        1 433     -0.101300
     32 C2F         3.8770    0.9730   -5.0820 ca        1 433      0.039400
     33 CL2F        2.5490    1.7250   -5.8320 cl        1 433     -0.071400
     34 C2H         5.1600    1.4280   -5.4080 ca        1 433     -0.142000
     35 C2J         6.2760    0.8430   -4.8160 ca        1 433     -0.102000
     36 C2I         6.1260   -0.1940   -3.9020 ca        1 433     -0.165000
     37 C2G         4.8350   -0.6500   -3.5780 ca        1 433      0.133900
     38 F2G         4.7040   -1.6650   -2.6890 f         1 433     -0.135900
     39 H1X1       -0.4770    1.4720    6.4790 hc        1 433      0.036033
     40 H1X2       -1.4150    0.2140    7.3930 hc        1 433      0.036033
     41 H1X3       -0.6840    1.6250    8.2710 hc        1 433      0.036033
     42 H1Y1        1.4880   -1.8070    8.2690 hc        1 433      0.036033
     43 H1Y2       -0.1400   -1.3620    8.9380 hc        1 433      0.036033
     44 H1Y3        0.0130   -1.8840    7.2050 hc        1 433      0.036033
     45 H1G1       -0.7890   -0.7590    5.6160 ha        1 433      0.147500
     46 H1I1       -1.1100   -1.6070    3.3190 ha        1 433      0.112500
     47 H1J1        3.0230   -0.7670    2.3930 ha        1 433      0.112500
     48 H1H1        3.3670    0.0860    4.7200 ha        1 433      0.147500
     49 H1L1        1.6050   -2.4290    1.0550 hc        1 433      0.034700
     50 H1L2       -0.1890   -2.3900    1.2750 hc        1 433      0.034700
     51 H1M1       -0.2610   -0.0120    0.5310 hc        1 433      0.055200
     52 H1M2        1.5380    0.0310    0.4090 hc        1 433      0.055200
     53 H1N1        1.5180   -1.8180   -1.2810 h1        1 433      0.052200
     54 H1N2       -0.2830   -1.9440   -1.1680 h1        1 433      0.052200
     55 H2C1        1.5380    1.3170   -3.1020 h1        1 433      0.067700
     56 H2C2        2.4550    0.3570   -1.8430 h1        1 433      0.067700
     57 HN31       -1.8490   -0.5380   -1.0400 hn        1 433      0.332500
     58 H3C1       -2.5810    2.3130   -3.2500 ha        1 433      0.181000
     59 H3E1       -4.8860    2.9330   -3.8940 ha        1 433      0.140000
     60 H3G1       -6.8260    1.5110   -3.2360 ha        1 433      0.147000
     61 H2D1        2.4170   -1.6470   -3.4660 hc        1 433      0.069700
     62 H2D2        1.6610   -0.5650   -4.7050 hc        1 433      0.069700
     63 H2H1        5.2860    2.2490   -6.1300 ha        1 433      0.149000
     64 H2J1        7.2840    1.2050   -5.0710 ha        1 433      0.141000
     65 H2I1        7.0000   -0.6620   -3.4270 ha        1 433      0.152000
@<TRIPOS>BOND
     1    1    2 1   
     2    1    3 1   
     3    1    4 1   
     4    4    5 1   
     5    4    6 1   
     6    4    7 1   
     7    5   39 1   
     8    5   40 1   
     9    5   41 1   
    10    6   42 1   
    11    6   43 1   
    12    6   44 1   
    13    7    8 1   
    14    8    9 ar  
    15    8   13 ar  
    16    9   10 ar  
    17    9   45 1   
    18   10   11 ar  
    19   10   46 1   
    20   11   12 ar  
    21   11   14 1   
    22   12   13 ar  
    23   12   47 1   
    24   13   48 1   
    25   14   15 1   
    26   14   49 1   
    27   14   50 1   
    28   15   16 1   
    29   15   51 1   
    30   15   52 1   
    31   16   17 1   
    32   16   53 1   
    33   16   54 1   
    34   17   18 1   
    35   17   19 1   
    36   18   30 1   
    37   18   55 1   
    38   18   56 1   
    39   19   20 2   
    40   19   21 1   
    41   21   22 1   
    42   21   57 1   
    43   22   23 ar  
    44   22   28 ar  
    45   23   24 ar  
    46   23   58 1   
    47   24   25 ar  
    48   24   59 1   
    49   25   26 ar  
    50   25   60 1   
    51   26   27 1   
    52   26   28 ar  
    53   28   29 1   
    54   30   31 1   
    55   30   61 1   
    56   30   62 1   
    57   31   32 ar  
    58   31   37 ar  
    59   32   33 1   
    60   32   34 ar  
    61   34   35 ar  
    62   34   63 1   
    63   35   36 ar  
    64   35   64 1   
    65   36   37 ar  
    66   36   65 1   
    67   37   38 1   
@<TRIPOS>SUBSTRUCTURE
     1 433         1 TEMP              0 ****  ****    0 ROOT
