@<TRIPOS>MOLECULE
433
   65    60     1     0     0
SMALL
bcc


@<TRIPOS>ATOM
      1 C1A         1.4640    5.3690    0.6450 c1        1 433      0.324000
      2 O1C         2.1230    4.3160    0.8410 o         1 433     -0.537000
      3 O1B         0.2680    5.4440    1.0340 os        1 433     -0.574000
      4 C1D         2.0820    6.5150   -0.1160 c3        1 433      0.002000
      5 C1X         3.1500    7.1750    0.7420 c3        1 433     -0.204000
      6 C1Y         1.0080    7.5330   -0.4600 c3        1 433     -0.204000
      7 O1E         2.6710    6.0250   -1.3150 os        1 433     -0.213000
      8 C1F         2.4700    4.6290   -1.5310 c2        1 433      0.135000
      9 C1G         1.5140    4.1970   -2.4400 c2        1 433     -0.194000
     10 C1I         1.3160    2.8290   -2.6480 c1        1 433     -0.103000
     11 C1K         2.0770    1.9030   -1.9440 c1        1 433     -0.154000
     12 C1J         3.0350    2.3380   -1.0330 c1        1 433     -0.098000
     13 C1H         3.2320    3.7010   -0.8270 c1        1 433     -0.194000
     14 C1L         1.7910    0.3980   -2.0980 c3        1 433     -0.101000
     15 C1M         0.7890   -0.0480   -1.0200 c3        1 433     -0.169000
     16 C1N         0.3730   -1.5080   -1.2780 c3        1 433     -0.030000
     17 N2B        -0.4150   -1.9920   -0.1610 n         1 433     -0.315000
     18 C2C         0.1130   -3.0330    0.7010 c3        1 433     -0.029000
     19 C2A        -1.7170   -1.4120    0.1140 c2        1 433      0.398000
     20 O2A        -1.8200   -0.2200    0.3140 o         1 433     -0.394000
     21 N3A        -2.8930   -2.2430    0.0930 n         1 433     -0.324000
     22 C3B        -4.1960   -1.6590    0.3100 c2        1 433      0.106000
     23 C3C        -5.2210   -1.8990   -0.5980 c2        1 433     -0.130000
     24 C3E        -6.5090   -1.4620   -0.3220 c1        1 433     -0.104000
     25 C3G        -6.7750   -0.7850    0.8580 c1        1 433     -0.148000
     26 C3F        -5.7530   -0.5450    1.7650 c1        1 433     -0.038000
     27 CL3F       -6.0800    0.3470    3.2290 cl        1 433     -0.005000
     28 C3D        -4.4620   -0.9820    1.4910 c2        1 433     -0.117000
     29 CL3D       -3.1710   -0.6370    2.6080 cl        1 433      0.001000
     30 C2D        -0.0740   -4.3970    0.0300 c3        1 433     -0.162000
     31 C2E         0.6000   -5.4800    0.8780 c2        1 433     -0.097000
     32 C2F         1.9860   -5.5930    0.8860 c2        1 433     -0.036000
     33 CL2F        2.9540   -4.4920   -0.0500 cl        1 433      0.014000
     34 C2H         2.5960   -6.6100    1.6130 c1        1 433     -0.134000
     35 C2J         1.8200   -7.5120    2.3320 c1        1 433     -0.132000
     36 C2I         0.4350   -7.3980    2.3240 c1        1 433     -0.132000
     37 C2G        -0.1750   -6.3820    1.5970 c1        1 433      0.091000
     38 F2G        -1.5060   -6.3320    1.5120 f         1 433     -0.107000
     39 H1X1        3.8860    6.5460    0.8900 hc        1 433      0.072667
     40 H1X2        3.4900    7.9750    0.2840 hc        1 433      0.072667
     41 H1X3        2.7610    7.4330    1.6070 hc        1 433      0.072667
     42 H1Y1        0.7400    8.0140    0.3550 hc        1 433      0.072667
     43 H1Y2        1.3600    8.1710   -1.1140 hc        1 433      0.072667
     44 H1Y3        0.2300    7.0710   -0.8390 hc        1 433      0.072667
     45 H1G1        1.0070    4.8440   -2.9570 ha        1 433      0.131000
     46 H1I1        0.6930    2.5270   -3.3340 ha        1 433      0.110000
     47 H1J1        3.5910    1.6890   -0.5610 ha        1 433      0.115000
     48 H1H1        3.9440    4.0050   -0.2360 ha        1 433      0.202000
     49 H1L1        2.6260   -0.1050   -1.9960 hc        1 433      0.075500
     50 H1L2        1.4130    0.2270   -2.9880 hc        1 433      0.075500
     51 H1M1        1.2060    0.0210   -0.1380 hc        1 433      0.092500
     52 H1M2       -0.0020    0.5280   -1.0530 hc        1 433      0.092500
     53 H1N1        1.1720   -2.0630   -1.3770 h1        1 433      0.097500
     54 H1N2       -0.1600   -1.5560   -2.0970 h1        1 433      0.097500
     55 H2C1        1.0660   -2.8750    0.8580 h1        1 433      0.104500
     56 H2C2       -0.3640   -3.0220    1.5550 h1        1 433      0.104500
     57 HN31       -2.8120   -3.1440   -0.0230 hn        1 433      0.243000
     58 H3C1       -5.0390   -2.3920   -1.4190 ha        1 433      0.178000
     59 H3E1       -7.2310   -1.6310   -0.9610 ha        1 433      0.140000
     60 H3G1       -7.6840   -0.4770    1.0520 ha        1 433      0.147000
     61 H2D1       -1.0290   -4.5930   -0.0500 hc        1 433      0.110000
     62 H2D2        0.3300   -4.3810   -0.8580 hc        1 433      0.110000
     63 H2H1        3.5670   -6.6900    1.6190 ha        1 433      0.155000
     64 H2J1        2.2490   -8.1920    2.8810 ha        1 433      0.146000
     65 H2I1       -0.1080   -8.0310    2.8280 ha        1 433      0.146000
@<TRIPOS>BOND
     1    1    2 1   
     2    1    4 1   
     3    4    5 1   
     4    4    6 1   
     5    4    7 1   
     6    5   39 1   
     7    5   40 1   
     8    5   41 1   
     9    6   42 1   
    10    6   43 1   
    11    6   44 1   
    12    7    8 1   
    13    8    9 1   
    14    8   13 1   
    15    9   10 1   
    16    9   45 1   
    17   10   46 1   
    18   11   12 1   
    19   11   14 1   
    20   12   47 1   
    21   13   48 1   
    22   14   15 1   
    23   14   49 1   
    24   14   50 1   
    25   15   16 1   
    26   15   51 1   
    27   15   52 1   
    28   16   17 1   
    29   16   53 1   
    30   16   54 1   
    31   17   18 1   
    32   17   19 1   
    33   18   30 1   
    34   18   55 1   
    35   18   56 1   
    36   19   20 1   
    37   19   21 1   
    38   21   22 1   
    39   21   57 1   
    40   22   23 1   
    41   22   28 1   
    42   23   24 1   
    43   23   58 1   
    44   24   59 1   
    45   25   26 1   
    46   25   60 1   
    47   26   28 1   
    48   28   29 1   
    49   30   31 1   
    50   30   61 1   
    51   30   62 1   
    52   31   32 1   
    53   31   37 1   
    54   32   33 1   
    55   32   34 1   
    56   34   63 1   
    57   35   36 1   
    58   35   64 1   
    59   36   65 1   
    60   37   38 1   
@<TRIPOS>SUBSTRUCTURE
     1 433         1 TEMP              0 ****  ****    0 ROOT
