@<TRIPOS>MOLECULE
433
   65    67     1     0     0
SMALL
bcc


@<TRIPOS>ATOM
      1 C1A        -0.0800   -0.9300   -0.1560 c         1 433      0.939600
      2 O1C        -0.7350   -1.9230    0.2450 o         1 433     -0.810800
      3 O1B         1.0500   -0.5710    0.2620 o         1 433     -0.810800
      4 C1D        -0.7780   -0.0130   -1.2620 c3        1 433      0.007800
      5 C1X         0.0110    1.2560   -1.5200 c3        1 433     -0.108100
      6 C1Y        -2.1920    0.2690   -0.7920 c3        1 433     -0.108100
      7 O1E        -0.7720   -0.8780   -2.4170 os        1 433     -0.289900
      8 C1F        -1.3680   -0.5020   -3.5830 ca        1 433      0.180100
      9 C1G        -1.8330    0.7780   -3.9260 ca        1 433     -0.202000
     10 C1I        -2.3900    1.0030   -5.1820 ca        1 433     -0.093500
     11 C1K        -2.4950   -0.0260   -6.1200 ca        1 433     -0.170300
     12 C1J        -2.0280   -1.3040   -5.7780 ca        1 433     -0.093500
     13 C1H        -1.4740   -1.5500   -4.5340 ca        1 433     -0.202000
     14 C1L        -3.1040    0.2140   -7.4540 c3        1 433     -0.012100
     15 C1M        -2.0480    0.3030   -8.5420 c3        1 433     -0.111400
     16 C1N        -2.7230    0.4210   -9.9090 c3        1 433      0.082000
     17 N2B        -1.8390    0.5190  -11.0460 n         1 433     -0.470800
     18 C2C        -1.3760   -0.7250  -11.6260 c3        1 433      0.104000
     19 C2A        -1.1660    1.7000  -11.4050 c         1 433      0.782100
     20 O2A        -0.4260    1.7080  -12.4180 o         1 433     -0.638100
     21 N3A        -1.3430    2.8620  -10.6230 n         1 433     -0.470100
     22 C3B        -0.9730    4.1460  -11.0450 ca        1 433      0.102600
     23 C3C         0.1560    4.3740  -11.8630 ca        1 433     -0.136000
     24 C3E         0.5190    5.6660  -12.2210 ca        1 433     -0.101000
     25 C3G        -0.2080    6.7670  -11.7780 ca        1 433     -0.149000
     26 C3F        -1.3250    6.5660  -10.9650 ca        1 433      0.043400
     27 CL3F       -2.2000    7.9230  -10.4340 cl        1 433     -0.079400
     28 C3D        -1.7200    5.2730  -10.6000 ca        1 433     -0.040600
     29 CL3D       -3.0910    5.0560   -9.6140 cl        1 433     -0.078400
     30 C2D        -2.3310   -1.2870  -12.6910 c3        1 433     -0.057100
     31 C2E        -1.8920   -2.6440  -13.1130 ca        1 433     -0.101300
     32 C2F        -0.9220   -2.8460  -14.1060 ca        1 433      0.039400
     33 CL2F       -0.1810   -1.5240  -14.8770 cl        1 433     -0.071400
     34 C2H        -0.5330   -4.1330  -14.4920 ca        1 433     -0.142000
     35 C2J        -1.1110   -5.2450  -13.8860 ca        1 433     -0.102000
     36 C2I        -2.0780   -5.0860  -12.8990 ca        1 433     -0.165000
     37 C2G        -2.4670   -3.7900  -12.5140 ca        1 433      0.133900
     38 F2G        -3.4130   -3.6500  -11.5540 f         1 433     -0.135900
     39 H1X1        0.8000    1.3670   -0.7330 hc        1 433      0.036033
     40 H1X2       -0.6450    2.1600   -1.4920 hc        1 433      0.036033
     41 H1X3        0.5160    1.2080   -2.5140 hc        1 433      0.036033
     42 H1Y1       -2.1490    0.8960    0.1300 hc        1 433      0.036033
     43 H1Y2       -2.6910   -0.7010   -0.5420 hc        1 433      0.036033
     44 H1Y3       -2.7950    0.8010   -1.5650 hc        1 433      0.036033
     45 H1G1       -1.7580    1.6080   -3.2110 ha        1 433      0.147500
     46 H1I1       -2.7520    2.0100   -5.4350 ha        1 433      0.112500
     47 H1J1       -2.1080   -2.1220   -6.5100 ha        1 433      0.112500
     48 H1H1       -1.1090   -2.5490   -4.2560 ha        1 433      0.147500
     49 H1L1       -3.8150   -0.6220   -7.6960 hc        1 433      0.034700
     50 H1L2       -3.7030    1.1640   -7.4400 hc        1 433      0.034700
     51 H1M1       -1.3810    1.1810   -8.3460 hc        1 433      0.055200
     52 H1M2       -1.4040   -0.6150   -8.5110 hc        1 433      0.055200
     53 H1N1       -3.4240    1.3050   -9.9050 h1        1 433      0.052200
     54 H1N2       -3.3640   -0.4960  -10.0670 h1        1 433      0.052200
     55 H2C1       -0.3660   -0.5680  -12.1030 h1        1 433      0.067700
     56 H2C2       -1.2660   -1.4860  -10.8000 h1        1 433      0.067700
     57 HN31       -1.9620    2.8230   -9.8410 hn        1 433      0.332500
     58 H3C1        0.7520    3.5200  -12.2280 ha        1 433      0.181000
     59 H3E1        1.4020    5.8190  -12.8620 ha        1 433      0.140000
     60 H3G1        0.0930    7.7860  -12.0630 ha        1 433      0.147000
     61 H2D1       -2.3580   -0.5940  -13.5730 hc        1 433      0.069700
     62 H2D2       -3.3750   -1.3450  -12.2780 hc        1 433      0.069700
     63 H2H1        0.2320   -4.2670  -15.2720 ha        1 433      0.149000
     64 H2J1       -0.8010   -6.2570  -14.1880 ha        1 433      0.141000
     65 H2I1       -2.5400   -5.9560  -12.4120 ha        1 433      0.152000
@<TRIPOS>BOND
     1    1    2 1   
     2    1    3 1   
     3    1    4 1   
     4    4    5 1   
     5    4    6 1   
     6    4    7 1   
     7    5   39 1   
     8    5   40 1   
     9    5   41 1   
    10    6   42 1   
    11    6   43 1   
    12    6   44 1   
    13    7    8 1   
    14    8    9 ar  
    15    8   13 ar  
    16    9   10 ar  
    17    9   45 1   
    18   10   11 ar  
    19   10   46 1   
    20   11   12 ar  
    21   11   14 1   
    22   12   13 ar  
    23   12   47 1   
    24   13   48 1   
    25   14   15 1   
    26   14   49 1   
    27   14   50 1   
    28   15   16 1   
    29   15   51 1   
    30   15   52 1   
    31   16   17 1   
    32   16   53 1   
    33   16   54 1   
    34   17   18 1   
    35   17   19 1   
    36   18   30 1   
    37   18   55 1   
    38   18   56 1   
    39   19   20 2   
    40   19   21 1   
    41   21   22 1   
    42   21   57 1   
    43   22   23 ar  
    44   22   28 ar  
    45   23   24 ar  
    46   23   58 1   
    47   24   25 ar  
    48   24   59 1   
    49   25   26 ar  
    50   25   60 1   
    51   26   27 1   
    52   26   28 ar  
    53   28   29 1   
    54   30   31 1   
    55   30   61 1   
    56   30   62 1   
    57   31   32 ar  
    58   31   37 ar  
    59   32   33 1   
    60   32   34 ar  
    61   34   35 ar  
    62   34   63 1   
    63   35   36 ar  
    64   35   64 1   
    65   36   37 ar  
    66   36   65 1   
    67   37   38 1   
@<TRIPOS>SUBSTRUCTURE
     1 433         1 TEMP              0 ****  ****    0 ROOT
