@<TRIPOS>MOLECULE
433
   66    68     1     0     0
SMALL
bcc


@<TRIPOS>ATOM
      1 C1A        -5.1120   -0.6760   -3.2170 c         1 433      0.902600
      2 O1C        -5.8790   -0.2680   -4.1540 o         1 433     -0.868300
      3 O1B        -5.1070   -1.9030   -2.9170 o         1 433     -0.868300
      4 C1D        -4.1980    0.3270   -2.4920 c3        1 433      0.073800
      5 C1X        -3.5540   -0.2980   -1.2660 c3        1 433     -0.090600
      6 C1Y        -4.9760    1.5810   -2.1270 c3        1 433     -0.090600
      7 O1E        -3.0710    0.7220   -3.3330 os        1 433     -0.352900
      8 C1F        -3.3230    0.6650   -4.6910 ca        1 433      0.150100
      9 C1G        -2.9790   -0.4970   -5.4010 ca        1 433     -0.133000
     10 C1I        -3.2830   -0.5820   -6.7560 ca        1 433     -0.134000
     11 C1K        -3.9240    0.4800   -7.4060 ca        1 433     -0.147300
     12 C1J        -4.1620    1.6740   -6.7140 ca        1 433     -0.134000
     13 C1H        -3.8610    1.7760   -5.3590 ca        1 433     -0.133000
     14 C1L        -4.3880    0.3270   -8.8100 c3        1 433     -0.037100
     15 C1M        -5.9010    0.2360   -8.9000 c3        1 433     -0.098400
     16 C1N        -6.4890   -0.9620   -8.1660 c3        1 433      0.114800
     17 N2B        -6.7000   -0.7930   -6.6990 nx        1 433     -0.558200
     18 C2C        -7.5350    0.3850   -6.3150 c3        1 433      0.125800
     19 C2A        -7.3520   -2.0860   -6.1700 c         1 433      0.652100
     20 O2A        -8.4610   -2.3510   -6.6570 o         1 433     -0.548100
     21 N3A        -6.5880   -2.8470   -5.3110 ns        1 433     -0.408100
     22 C3B        -7.1310   -4.0300   -4.7370 ca        1 433      0.027600
     23 C3C        -7.2780   -4.1000   -3.3350 ca        1 433     -0.103000
     24 C3E        -7.7540   -5.2640   -2.7420 ca        1 433     -0.117000
     25 C3G        -8.0900   -6.3710   -3.5160 ca        1 433     -0.112000
     26 C3F        -7.9220   -6.3250   -4.9030 ca        1 433      0.016400
     27 Cl3F       -8.3160   -7.7000   -5.8180 cl        1 433     -0.069400
     28 C3D        -7.4280   -5.1680   -5.5240 ca        1 433      0.029400
     29 Cl3D       -7.1620   -5.1560   -7.2010 cl        1 433     -0.068400
     30 C2D        -8.8270    0.5720   -7.1060 c3        1 433     -0.058100
     31 C2E        -9.4860    1.8370   -6.6800 ca        1 433     -0.116300
     32 C2F       -10.5140    1.8740   -5.7280 ca        1 433      0.049400
     33 Cl2F      -11.0450    0.4520   -4.9650 cl        1 433     -0.064400
     34 C2H       -11.1280    3.0810   -5.3760 ca        1 433     -0.134000
     35 C2J       -10.7180    4.2710   -5.9710 ca        1 433     -0.090000
     36 C2I        -9.6970    4.2730   -6.9160 ca        1 433     -0.159000
     37 C2G        -9.0810    3.0590   -7.2670 ca        1 433      0.130900
     38 F2G        -8.0820    3.0650   -8.1850 f         1 433     -0.144900
     39 H1X1       -4.3490   -0.5400   -0.5220 hc        1 433      0.044367
     40 H1X2       -3.0340   -1.2430   -1.5540 hc        1 433      0.044367
     41 H1X3       -2.8170    0.4070   -0.8140 hc        1 433      0.044367
     42 H1Y1       -5.4630    2.0010   -3.0400 hc        1 433      0.044367
     43 H1Y2       -4.2920    2.3450   -1.6900 hc        1 433      0.044367
     44 H1Y3       -5.7670    1.3250   -1.3820 hc        1 433      0.044367
     45 H1G1       -2.5100   -1.3380   -4.8690 ha        1 433      0.154500
     46 H1I1       -3.0280   -1.4950   -7.3150 ha        1 433      0.130000
     47 H1J1       -4.6070    2.5310   -7.2430 ha        1 433      0.130000
     48 H1H1       -4.0730    2.6980   -4.7980 ha        1 433      0.154500
     49 H1L1       -3.9310   -0.5890   -9.2720 hc        1 433      0.058700
     50 H1L2       -4.0500    1.2090   -9.4190 hc        1 433      0.058700
     51 H1M1       -6.1870    0.1190   -9.9820 hc        1 433      0.070200
     52 H1M2       -6.3610    1.1970   -8.5420 hc        1 433      0.070200
     53 H1N1       -5.8020   -1.8490   -8.2910 hx        1 433      0.094700
     54 H1N2       -7.4910   -1.2210   -8.6170 hx        1 433      0.094700
     55 H2C1       -6.8790    1.2970   -6.4360 hx        1 433      0.120200
     56 H2C2       -7.7610    0.2740   -5.2100 hx        1 433      0.120200
     57 HN31       -5.9320   -2.3620   -4.6880 hn        1 433      0.409500
     58 H3C1       -6.9720   -3.2370   -2.7110 ha        1 433      0.198000
     59 H3E1       -7.8640   -5.3080   -1.6470 ha        1 433      0.150000
     60 H3G1       -8.4780   -7.2840   -3.0400 ha        1 433      0.153000
     61 H2D1       -8.6040    0.6350   -8.2070 hc        1 433      0.083200
     62 H2D2       -9.5080   -0.3100   -6.9510 hc        1 433      0.083200
     63 H2H1      -11.9350    3.0900   -4.6260 ha        1 433      0.157000
     64 H2J1      -11.2040    5.2190   -5.6910 ha        1 433      0.149000
     65 H2I1       -9.3640    5.2080   -7.3900 ha        1 433      0.156000
     66 H2B1       -5.7810   -0.6380   -6.2200 hn        1 433      0.504800
@<TRIPOS>BOND
     1    1    2 1   
     2    1    3 1   
     3    1    4 1   
     4    4    5 1   
     5    4    6 1   
     6    4    7 1   
     7    5   39 1   
     8    5   40 1   
     9    5   41 1   
    10    6   42 1   
    11    6   43 1   
    12    6   44 1   
    13    7    8 1   
    14    8    9 ar  
    15    8   13 ar  
    16    9   10 ar  
    17    9   45 1   
    18   10   11 ar  
    19   10   46 1   
    20   11   12 ar  
    21   11   14 1   
    22   12   13 ar  
    23   12   47 1   
    24   13   48 1   
    25   14   15 1   
    26   14   49 1   
    27   14   50 1   
    28   15   16 1   
    29   15   51 1   
    30   15   52 1   
    31   16   17 1   
    32   16   53 1   
    33   16   54 1   
    34   17   18 1   
    35   17   19 1   
    36   17   66 1   
    37   18   30 1   
    38   18   55 1   
    39   18   56 1   
    40   19   20 2   
    41   19   21 1   
    42   21   22 1   
    43   21   57 1   
    44   22   23 ar  
    45   22   28 ar  
    46   23   24 ar  
    47   23   58 1   
    48   24   25 ar  
    49   24   59 1   
    50   25   26 ar  
    51   25   60 1   
    52   26   27 1   
    53   26   28 ar  
    54   28   29 1   
    55   30   31 1   
    56   30   61 1   
    57   30   62 1   
    58   31   32 ar  
    59   31   37 ar  
    60   32   33 1   
    61   32   34 ar  
    62   34   35 ar  
    63   34   63 1   
    64   35   36 ar  
    65   35   64 1   
    66   36   37 ar  
    67   36   65 1   
    68   37   38 1   
@<TRIPOS>SUBSTRUCTURE
     1 433         1 TEMP              0 ****  ****    0 ROOT
