@<TRIPOS>MOLECULE
434
   59    64     1     0     0
SMALL
bcc


@<TRIPOS>ATOM
      1 C1         -0.3800    0.2600   -0.1910 c3        1 434      0.199400
      2 C2         -0.5450    0.0410   -1.6610 ca        1 434     -0.060300
      3 O4          0.9510    0.7690    0.0370 os        1 434     -0.397600
      4 C5          1.4800    0.2380    1.2560 c3        1 434     -0.024200
      5 C6          0.4010   -0.6380    1.9050 c3        1 434     -0.192700
      6 C8         -0.6020   -0.9250    0.7760 c3        1 434     -0.127700
      7 C10         2.8130   -0.4770    0.9400 c         1 434      0.640700
      8 C11         3.8420    0.1260    1.8280 ca        1 434     -0.083600
      9 O12         3.0070   -1.2640    0.0200 o         1 434     -0.504100
     10 C13         1.8770    1.4130    2.1790 c         1 434      0.593700
     11 O14         1.1300    2.3150    2.5480 o         1 434     -0.523100
     12 C15         5.1550   -0.2620    2.0260 ca        1 434     -0.076000
     13 C17         5.9540    0.4730    2.9220 ca        1 434     -0.067300
     14 C19         5.4200    1.5750    3.5960 ca        1 434     -0.143000
     15 C21         4.0880    1.9630    3.4050 ca        1 434     -0.073000
     16 C23         3.3040    1.2360    2.5240 ca        1 434     -0.159600
     17 C24         0.9520   -1.8530    2.6860 c         1 434      0.918600
     18 O25         0.1380   -2.4600    3.4410 o         1 434     -0.805300
     19 O26         2.1710   -2.1390    2.5670 o         1 434     -0.805300
     20 C28        -0.4860   -2.3200    0.1690 c         1 434      0.684100
     21 O29        -0.0620   -2.5310   -0.9800 o         1 434     -0.589100
     22 N30        -0.9920   -3.3490    0.9700 ns        1 434     -0.463100
     23 C31        -0.9700   -4.7090    0.6430 ca        1 434      0.113600
     24 C33        -1.0080   -5.6650    1.6930 ca        1 434     -0.176000
     25 C35        -1.0800   -7.0210    1.4160 ca        1 434     -0.078000
     26 C37        -1.1020   -7.4830    0.0910 ca        1 434     -0.194500
     27 C38        -1.1570   -8.8980   -0.2170 cc        1 434      0.378800
     28 C39        -1.0510   -6.5440   -0.9500 ca        1 434     -0.078000
     29 C41        -0.9870   -5.1830   -0.6890 ca        1 434     -0.176000
     30 N43        -1.7040   -9.8600    0.6860 nc        1 434     -0.283000
     31 N44        -1.6720  -11.0190    0.2550 nd        1 434     -0.131100
     32 S46        -0.9880  -11.1530   -1.2910 ss        1 434      0.056200
     33 C47        -0.7040   -9.5000   -1.3920 cd        1 434     -0.225400
     34 C49        -1.7750    0.3300   -2.2580 ca        1 434     -0.114000
     35 C51        -1.9320    0.1910   -3.6410 ca        1 434      0.006400
     36 C53        -0.8540   -0.2290   -4.4300 ca        1 434      0.021400
     37 C55         0.3760   -0.5200   -3.8290 ca        1 434     -0.129000
     38 C57         0.5290   -0.3880   -2.4520 ca        1 434     -0.040000
     39 C3          7.3550    0.0540    3.1580 c3        1 434     -0.053800
     40 Cl1        -3.4450    0.5480   -4.3350 cl        1 434     -0.103400
     41 Cl2        -1.0120   -0.3960   -6.1160 cl        1 434     -0.103400
     42 H1         -1.0810    1.0880    0.1310 h1        1 434      0.051700
     43 H6         -0.1360   -0.0100    2.6720 hc        1 434      0.076700
     44 H8         -1.6470   -0.8350    1.1890 hc        1 434      0.078700
     45 H15         5.5600   -1.1410    1.5020 ha        1 434      0.154000
     46 H19         6.0520    2.1440    4.2940 ha        1 434      0.123000
     47 H21         3.6690    2.8230    3.9470 ha        1 434      0.140000
     48 H30        -1.0180   -3.1550    1.9630 hn        1 434      0.366500
     49 H33        -0.9580   -5.3270    2.7420 ha        1 434      0.163500
     50 H35        -1.1070   -7.7370    2.2510 ha        1 434      0.129500
     51 H39        -1.0680   -6.8870   -1.9960 ha        1 434      0.129500
     52 H41        -0.9330   -4.4730   -1.5310 ha        1 434      0.163500
     53 H47        -0.2340   -8.9810   -2.2230 h4        1 434      0.194000
     54 H49        -2.6240    0.6680   -1.6430 ha        1 434      0.142000
     55 H55         1.2210   -0.8650   -4.4440 ha        1 434      0.146000
     56 H57         1.4840   -0.6490   -1.9580 ha        1 434      0.185000
     57 H31         7.8560   -0.2080    2.1930 hc        1 434      0.042033
     58 H32         7.9440    0.8630    3.6560 hc        1 434      0.042033
     59 H33A        7.3730   -0.8520    3.8170 hc        1 434      0.042033
@<TRIPOS>BOND
     1    1    2 1   
     2    1    3 1   
     3    1    6 1   
     4    1   42 1   
     5    2   34 ar  
     6    2   38 ar  
     7    3    4 1   
     8    4    5 1   
     9    4    7 1   
    10    4   10 1   
    11    5    6 1   
    12    5   17 1   
    13    5   43 1   
    14    6   20 1   
    15    6   44 1   
    16    7    8 1   
    17    7    9 2   
    18    8   12 ar  
    19    8   16 ar  
    20   10   11 2   
    21   10   16 1   
    22   12   13 ar  
    23   12   45 1   
    24   13   14 ar  
    25   13   39 1   
    26   14   15 ar  
    27   14   46 1   
    28   15   16 ar  
    29   15   47 1   
    30   17   18 1   
    31   17   19 1   
    32   20   21 2   
    33   20   22 1   
    34   22   23 1   
    35   22   48 1   
    36   23   24 ar  
    37   23   29 ar  
    38   24   25 ar  
    39   24   49 1   
    40   25   26 ar  
    41   25   50 1   
    42   26   27 1   
    43   26   28 ar  
    44   27   30 1   
    45   27   33 2   
    46   28   29 ar  
    47   28   51 1   
    48   29   52 1   
    49   30   31 2   
    50   31   32 1   
    51   32   33 1   
    52   33   53 1   
    53   34   35 ar  
    54   34   54 1   
    55   35   36 ar  
    56   35   40 1   
    57   36   37 ar  
    58   36   41 1   
    59   37   38 ar  
    60   37   55 1   
    61   38   56 1   
    62   39   57 1   
    63   39   58 1   
    64   39   59 1   
@<TRIPOS>SUBSTRUCTURE
     1 434         1 TEMP              0 ****  ****    0 ROOT
