@<TRIPOS>MOLECULE
434
   60    65     1     0     0
SMALL
bcc


@<TRIPOS>ATOM
      1 C1         -0.1860    1.0210    0.1860 c3        1 434      0.213400
      2 C2         -0.4860    0.3770   -1.1300 ca        1 434     -0.122300
      3 O4          1.2240    1.3210    0.2570 os        1 434     -0.373600
      4 C5          1.8160    0.8250    1.4570 c3        1 434     -0.036200
      5 C6          0.7530    0.0640    2.2500 c3        1 434     -0.157700
      6 C8         -0.5530    0.1940    1.4290 c3        1 434     -0.167700
      7 C10         3.0780    0.0210    1.0560 c         1 434      0.590700
      8 C11         4.2390    0.6980    1.6630 ca        1 434     -0.136600
      9 O12         3.0710   -0.9650    0.3280 o         1 434     -0.477100
     10 C13         2.3650    2.0250    2.2760 c         1 434      0.585700
     11 O14         1.6650    2.9070    2.7600 o         1 434     -0.486100
     12 C15         5.5720    0.3360    1.6130 ca        1 434     -0.066000
     13 C17         6.5210    1.1490    2.2680 ca        1 434     -0.049300
     14 C19         6.1080    2.2970    2.9480 ca        1 434     -0.118000
     15 C21         4.7550    2.6650    3.0010 ca        1 434     -0.057000
     16 C23         3.8260    1.8630    2.3600 ca        1 434     -0.157600
     17 C24         0.9610   -1.4280    2.3870 c         1 434      0.727600
     18 O25         1.8010   -2.1040    2.9520 o         1 434     -0.506500
     19 O26        -0.0800   -2.1290    1.7770 os        1 434     -0.435200
     20 C28        -0.9880   -1.2330    1.2000 c         1 434      0.734600
     21 O29        -1.9690   -1.7490    0.6940 o         1 434     -0.518500
     22 N30        -1.6610   -4.6460    1.4700 nh        1 434     -0.825200
     23 C31        -1.5860   -5.8740    0.8220 ca        1 434      0.173600
     24 C33        -2.6000   -6.2870   -0.0770 ca        1 434     -0.207000
     25 C35        -2.5720   -7.5510   -0.6470 ca        1 434     -0.060500
     26 C37        -1.5330   -8.4480   -0.3570 ca        1 434     -0.188500
     27 C38        -1.4860   -9.7670   -0.9570 cc        1 434      0.361800
     28 C39        -0.5220   -8.0450    0.5290 ca        1 434     -0.060500
     29 C41        -0.5370   -6.7850    1.1060 ca        1 434     -0.207000
     30 N43        -2.6450  -10.4000   -1.4980 nc        1 434     -0.283000
     31 N44        -2.4210  -11.5240   -1.9650 nd        1 434     -0.128100
     32 S46        -0.8040  -12.0070   -1.8350 ss        1 434      0.100200
     33 C47        -0.3540  -10.5760   -1.0860 cd        1 434     -0.230400
     34 C49        -1.7040    0.6620   -1.7540 ca        1 434     -0.093000
     35 C51        -2.0060    0.0950   -2.9970 ca        1 434      0.015400
     36 C53        -1.0790   -0.7530   -3.6230 ca        1 434      0.033400
     37 C55         0.1440   -1.0240   -3.0000 ca        1 434     -0.117000
     38 C57         0.4400   -0.4600   -1.7620 ca        1 434     -0.089000
     39 C3          7.9510    0.7670    2.2240 c3        1 434     -0.066800
     40 CL1        -3.4960    0.4550   -3.7220 cl        1 434     -0.061400
     41 CL2        -1.4120   -1.4540   -5.1290 cl        1 434     -0.058400
     42 H1         -0.7040    2.0230    0.2450 h1        1 434      0.089700
     43 H6          0.6410    0.5060    3.2770 hc        1 434      0.128700
     44 H8         -1.3580    0.7180    2.0090 hc        1 434      0.122700
     45 H15         5.8900   -0.5700    1.0740 ha        1 434      0.161000
     46 H19         6.8550    2.9290    3.4540 ha        1 434      0.147000
     47 H21         4.4400    3.5720    3.5390 ha        1 434      0.159000
     48 H30        -0.7960   -4.2970    1.8230 hn        1 434      0.407300
     49 H33        -3.4260   -5.6030   -0.3240 ha        1 434      0.136000
     50 H35        -3.3790   -7.8430   -1.3380 ha        1 434      0.136500
     51 H39         0.2960   -8.7380    0.7770 ha        1 434      0.136500
     52 H41         0.2690   -6.4970    1.7980 ha        1 434      0.136000
     53 H47         0.6490  -10.3140   -0.7620 h4        1 434      0.191000
     54 H49        -2.4330    1.3310   -1.2700 ha        1 434      0.151000
     55 H55         0.8760   -1.6860   -3.4890 ha        1 434      0.159000
     56 H57         1.4120   -0.6680   -1.2800 ha        1 434      0.166000
     57 H31         8.1050   -0.2010    2.7660 hc        1 434      0.056367
     58 H32         8.2840    0.6290    1.1650 hc        1 434      0.056367
     59 H33A        8.5970    1.5450    2.6990 hc        1 434      0.056367
     60 H302       -2.2150   -3.9540    1.0150 hn        1 434      0.407300
@<TRIPOS>BOND
     1    1    2 1   
     2    1    3 1   
     3    1    6 1   
     4    1   42 1   
     5    2   34 ar  
     6    2   38 ar  
     7    3    4 1   
     8    4    5 1   
     9    4    7 1   
    10    4   10 1   
    11    5    6 1   
    12    5   17 1   
    13    5   43 1   
    14    6   20 1   
    15    6   44 1   
    16    7    8 1   
    17    7    9 2   
    18    8   12 ar  
    19    8   16 ar  
    20   10   11 2   
    21   10   16 1   
    22   12   13 ar  
    23   12   45 1   
    24   13   14 ar  
    25   13   39 1   
    26   14   15 ar  
    27   14   46 1   
    28   15   16 ar  
    29   15   47 1   
    30   17   18 2   
    31   17   19 1   
    32   19   20 1   
    33   20   21 2   
    34   22   23 1   
    35   22   48 1   
    36   22   60 1   
    37   23   24 ar  
    38   23   29 ar  
    39   24   25 ar  
    40   24   49 1   
    41   25   26 ar  
    42   25   50 1   
    43   26   27 1   
    44   26   28 ar  
    45   27   30 1   
    46   27   33 2   
    47   28   29 ar  
    48   28   51 1   
    49   29   52 1   
    50   30   31 2   
    51   31   32 1   
    52   32   33 1   
    53   33   53 1   
    54   34   35 ar  
    55   34   54 1   
    56   35   36 ar  
    57   35   40 1   
    58   36   37 ar  
    59   36   41 1   
    60   37   38 ar  
    61   37   55 1   
    62   38   56 1   
    63   39   57 1   
    64   39   58 1   
    65   39   59 1   
@<TRIPOS>SUBSTRUCTURE
     1 434         1 TEMP              0 ****  ****    0 ROOT
