@<TRIPOS>MOLECULE
434
   59    64     1     0     0
SMALL
bcc


@<TRIPOS>ATOM
      1 C1         -2.2090   -0.7920    1.7460 c3        1 434      0.199400
      2 C2         -3.0290    0.1460    0.9190 ca        1 434     -0.060300
      3 O4         -1.7360   -0.0700    2.9010 os        1 434     -0.397600
      4 C5         -0.4120   -0.4950    3.2400 c3        1 434     -0.024200
      5 C6         -0.0060   -1.6150    2.2730 c3        1 434     -0.192700
      6 C8         -0.9940   -1.4980    1.1020 c3        1 434     -0.127700
      7 C10         0.5130    0.7430    3.2450 c         1 434      0.640700
      8 C11         1.1710    0.7790    4.5790 ca        1 434     -0.083600
      9 O12         0.5590    1.6100    2.3800 o         1 434     -0.504100
     10 C13        -0.4080   -0.9910    4.7040 c         1 434      0.593700
     11 O14        -1.1290   -1.8740    5.1610 o         1 434     -0.523100
     12 C15         2.1860    1.6070    5.0250 ca        1 434     -0.076000
     13 C17         2.6510    1.4600    6.3450 ca        1 434     -0.067300
     14 C19         2.0900    0.4920    7.1830 ca        1 434     -0.143000
     15 C21         1.0710   -0.3540    6.7300 ca        1 434     -0.073000
     16 C23         0.6170   -0.2100    5.4290 ca        1 434     -0.159600
     17 C24         1.4990   -1.6440    1.9260 c         1 434      0.918600
     18 O25         1.9290   -2.6800    1.3420 o         1 434     -0.805300
     19 O26         2.2140   -0.6700    2.2810 o         1 434     -0.805300
     20 C28        -0.4170   -0.8390   -0.1480 c         1 434      0.684100
     21 O29        -0.7580    0.2890   -0.5420 o         1 434     -0.589100
     22 N30         0.4600   -1.6450   -0.8810 n         1 434     -0.463100
     23 C31         1.1360   -1.2520   -2.0400 ca        1 434      0.113600
     24 C33         2.3460   -1.9110   -2.3820 ca        1 434     -0.176000
     25 C35         3.0030   -1.6190   -3.5680 ca        1 434     -0.078000
     26 C37         2.4950   -0.6540   -4.4510 ca        1 434     -0.194500
     27 C38         3.1790   -0.3230   -5.6850 cc        1 434      0.378800
     28 C39         1.3070    0.0090   -4.1130 ca        1 434     -0.078000
     29 C41         0.6340   -0.2770   -2.9340 ca        1 434     -0.176000
     30 N43         4.0540   -1.2370   -6.3480 nc        1 434     -0.283000
     31 N44         4.5470   -0.7850   -7.3890 nd        1 434     -0.131100
     32 S46         4.0500    0.7960   -7.7490 ss        1 434      0.056200
     33 C47         3.0850    0.8870   -6.3760 cd        1 434     -0.225400
     34 C49        -4.1770   -0.3320    0.2820 ca        1 434     -0.114000
     35 C51        -4.9910    0.5420   -0.4450 ca        1 434      0.006400
     36 C53        -4.6600    1.9010   -0.5290 ca        1 434      0.021400
     37 C55        -3.5090    2.3770    0.1080 ca        1 434     -0.129000
     38 C57        -2.6960    1.5050    0.8260 ca        1 434     -0.040000
     39 C3          3.7510    2.3260    6.8280 c3        1 434     -0.053800
     40 CL1        -6.3800   -0.0750   -1.2120 cl        1 434     -0.103400
     41 CL2        -5.6380    2.9910   -1.3960 cl        1 434     -0.103400
     42 H1         -2.8890   -1.6020    2.1500 h1        1 434      0.051700
     43 H6         -0.2130   -2.6000    2.7820 hc        1 434      0.076700
     44 H8         -1.3230   -2.5330    0.8010 hc        1 434      0.078700
     45 H15         2.6300    2.3550    4.3510 ha        1 434      0.154000
     46 H19         2.4600    0.3850    8.2140 ha        1 434      0.123000
     47 H21         0.6420   -1.1230    7.3890 ha        1 434      0.140000
     48 H30         0.9150   -2.3820   -0.3560 hn        1 434      0.366500
     49 H33         2.7820   -2.6490   -1.6880 ha        1 434      0.163500
     50 H35         3.9400   -2.1460   -3.8040 ha        1 434      0.129500
     51 H39         0.8920    0.7690   -4.7930 ha        1 434      0.129500
     52 H41        -0.2890    0.2740   -2.6910 ha        1 434      0.163500
     53 H47         2.4950    1.7440   -6.0640 h4        1 434      0.194000
     54 H49        -4.4450   -1.3980    0.3500 ha        1 434      0.142000
     55 H55        -3.2380    3.4410    0.0330 ha        1 434      0.146000
     56 H57        -1.7640    1.8590    1.3040 ha        1 434      0.185000
     57 H31         4.7250    1.9750    6.4010 hc        1 434      0.042033
     58 H32         3.5900    3.3840    6.5050 hc        1 434      0.042033
     59 H33A        3.8280    2.3040    7.9430 hc        1 434      0.042033
@<TRIPOS>BOND
     1    1    2 1   
     2    1    3 1   
     3    1    6 1   
     4    1   42 1   
     5    2   34 ar  
     6    2   38 ar  
     7    3    4 1   
     8    4    5 1   
     9    4    7 1   
    10    4   10 1   
    11    5    6 1   
    12    5   17 1   
    13    5   43 1   
    14    6   20 1   
    15    6   44 1   
    16    7    8 1   
    17    7    9 2   
    18    8   12 ar  
    19    8   16 ar  
    20   10   11 2   
    21   10   16 1   
    22   12   13 ar  
    23   12   45 1   
    24   13   14 ar  
    25   13   39 1   
    26   14   15 ar  
    27   14   46 1   
    28   15   16 ar  
    29   15   47 1   
    30   17   18 1   
    31   17   19 1   
    32   20   21 2   
    33   20   22 1   
    34   22   23 1   
    35   22   48 1   
    36   23   24 ar  
    37   23   29 ar  
    38   24   25 ar  
    39   24   49 1   
    40   25   26 ar  
    41   25   50 1   
    42   26   27 1   
    43   26   28 ar  
    44   27   30 1   
    45   27   33 2   
    46   28   29 ar  
    47   28   51 1   
    48   29   52 1   
    49   30   31 2   
    50   31   32 1   
    51   32   33 1   
    52   33   53 1   
    53   34   35 ar  
    54   34   54 1   
    55   35   36 ar  
    56   35   40 1   
    57   36   37 ar  
    58   36   41 1   
    59   37   38 ar  
    60   37   55 1   
    61   38   56 1   
    62   39   57 1   
    63   39   58 1   
    64   39   59 1   
@<TRIPOS>SUBSTRUCTURE
     1 434         1 TEMP              0 ****  ****    0 ROOT
