@<TRIPOS>MOLECULE
434
   59    56     1     0     0
SMALL
bcc


@<TRIPOS>ATOM
      1 C1         -0.5360    2.0170   -0.5030 c3        1 434      0.077000
      2 C2         -1.0370    1.4310   -1.8220 c2        1 434     -0.048000
      3 O4          1.0410    1.9930   -0.4720 os        1 434     -0.251000
      4 C5          1.3900    2.0600    0.7070 c3        1 434      0.004000
      5 C6          0.2330    1.4190    1.5570 c3        1 434     -0.180000
      6 C8         -0.9650    1.2900    0.4970 c3        1 434     -0.119000
      7 C10         2.6570    1.3210    0.9160 c2        1 434      0.305000
      8 C11         3.7030    2.3190    1.4580 c2        1 434     -0.100500
      9 O12         2.8590    0.1560    0.6350 o         1 434     -0.269500
     10 C13         1.6020    3.4540    1.1010 c2        1 434      0.305000
     11 O14         0.7960    4.3570    0.9940 o         1 434     -0.269500
     12 C15         5.0450    2.1740    1.7820 c1        1 434     -0.075000
     13 C17         5.7810    3.2790    2.2260 c1        1 434     -0.060000
     14 C19         5.1600    4.5410    2.3440 c1        1 434     -0.144000
     15 C21         3.8070    4.6900    2.0170 c1        1 434     -0.075000
     16 C23         3.0750    3.5960    1.5770 c2        1 434     -0.100500
     17 C24         0.5970    0.1580    2.2010 c2        1 434      0.340000
     18 O25         0.2850   -0.0480    3.4030 o         1 434     -0.543000
     19 O26         1.2090   -0.7280    1.5490 o         1 434     -0.543000
     20 C28        -1.3250   -0.2370    0.0930 c2        1 434      0.326000
     21 O29        -0.5130   -0.9150   -0.5020 o         1 434     -0.348000
     22 N30        -2.5800   -0.7920    0.4640 n         1 434     -0.317000
     23 C31        -2.8830   -2.1410    0.1380 c2        1 434      0.121000
     24 C33        -3.8470   -2.4230   -0.8180 c2        1 434     -0.171000
     25 C35        -4.1990   -3.7380   -1.0810 c1        1 434     -0.069000
     26 C37        -3.5880   -4.7710   -0.3890 c1        1 434     -0.087000
     27 C38        -3.9000   -6.0880   -0.6910 c1        1 434     -0.057000
     28 C39        -2.6240   -4.4900    0.5670 c1        1 434     -0.088000
     29 C41        -2.2720   -3.1750    0.8300 c1        1 434     -0.180000
     30 N43        -5.1630   -6.6790   -0.0530 n2        1 434     -0.020000
     31 N44        -5.2390   -8.0790   -0.4050 n2        1 434     -0.174000
     32 S46        -4.0720   -8.4000   -1.2430 ss        1 434      0.367000
     33 C47        -3.2450   -7.1110   -1.4030 c1        1 434     -0.429000
     34 C49        -0.0480    1.1280   -2.7450 c2        1 434     -0.041000
     35 C51        -0.3940    0.7860   -4.0430 c1        1 434     -0.064000
     36 C53        -1.7280    0.7460   -4.4180 c1        1 434     -0.061000
     37 C55        -2.7160    1.0480   -3.4940 c1        1 434     -0.133000
     38 C57        -2.3710    1.3910   -2.1960 c1        1 434     -0.121000
     39 C3          7.2410    3.1190    2.5850 c3        1 434     -0.179000
     40 CL1         0.8510    0.4430   -5.2150 cl        1 434     -0.009000
     41 CL2        -2.1650    0.2700   -6.0370 cl        1 434     -0.024000
     42 H1         -0.8550    2.9360   -0.4050 h1        1 434      0.091000
     43 H6         -0.0110    1.9730    2.3250 hc        1 434      0.114000
     44 H8         -1.8160    1.6130    0.8540 hc        1 434      0.119000
     45 H15         5.4750    1.3010    1.7030 ha        1 434      0.147000
     46 H19         5.6800    5.3150    2.6360 ha        1 434      0.123000
     47 H21         3.3740    5.5590    2.1200 ha        1 434      0.147000
     48 H30        -3.1940   -0.2800    0.9020 hn        1 434      0.280000
     49 H33        -4.2970   -1.6940   -1.2860 ha        1 434      0.169000
     50 H35        -4.8780   -3.9360   -1.7550 ha        1 434      0.139000
     51 H39        -2.1930   -5.2180    1.0550 ha        1 434      0.121000
     52 H41        -1.5930   -2.9770    1.5040 ha        1 434      0.160000
     53 H47        -2.4520   -7.0040   -1.9640 DU        1 434      0.194000
     54 H49         0.8920    1.1780   -2.4870 ha        1 434      0.190000
     55 H55        -3.6570    1.0020   -3.7530 ha        1 434      0.139000
     56 H57        -3.0670    1.6040   -1.5460 ha        1 434      0.132000
     57 H31         7.4100    2.1940    2.8620 hc        1 434      0.081333
     58 H32         7.7950    3.3330    1.8050 hc        1 434      0.081333
     59 H33A        7.4650    3.7260    3.3210 hc        1 434      0.081333
@<TRIPOS>BOND
     1    1    2 1   
     2    1    3 1   
     3    1    6 1   
     4    1   42 1   
     5    2   34 1   
     6    2   38 1   
     7    3    4 1   
     8    4    5 1   
     9    4    7 1   
    10    4   10 1   
    11    5    6 1   
    12    5   17 1   
    13    5   43 1   
    14    6   20 1   
    15    6   44 1   
    16    7    8 1   
    17    7    9 1   
    18    8   12 1   
    19    8   16 1   
    20   10   11 1   
    21   10   16 1   
    22   12   45 1   
    23   13   14 1   
    24   13   39 1   
    25   14   46 1   
    26   15   16 1   
    27   15   47 1   
    28   17   18 1   
    29   17   19 1   
    30   20   21 1   
    31   20   22 1   
    32   22   23 1   
    33   22   48 1   
    34   23   24 1   
    35   23   29 1   
    36   24   25 1   
    37   24   49 1   
    38   25   50 1   
    39   26   28 1   
    40   27   30 1   
    41   27   33 1   
    42   28   51 1   
    43   29   52 1   
    44   30   31 1   
    45   31   32 1   
    46   32   33 1   
    47   34   35 1   
    48   34   54 1   
    49   35   40 1   
    50   36   37 1   
    51   36   41 1   
    52   37   55 1   
    53   38   56 1   
    54   39   57 1   
    55   39   58 1   
    56   39   59 1   
@<TRIPOS>SUBSTRUCTURE
     1 434         1 TEMP              0 ****  ****    0 ROOT
