@<TRIPOS>MOLECULE
434
   59    64     1     0     0
SMALL
bcc


@<TRIPOS>ATOM
      1 C1         -0.3790    0.2610   -0.1830 c3        1 434      0.199400
      2 C2         -0.5430    0.0480   -1.6540 ca        1 434     -0.060300
      3 O4          0.9510    0.7700    0.0480 os        1 434     -0.397600
      4 C5          1.4790    0.2350    1.2660 c3        1 434     -0.024200
      5 C6          0.4000   -0.6440    1.9100 c3        1 434     -0.192700
      6 C8         -0.6020   -0.9270    0.7800 c3        1 434     -0.127700
      7 C10         2.8130   -0.4780    0.9480 c         1 434      0.640700
      8 C11         3.8410    0.1230    1.8390 ca        1 434     -0.083600
      9 O12         3.0080   -1.2610    0.0260 o         1 434     -0.504100
     10 C13         1.8750    1.4060    2.1930 c         1 434      0.593700
     11 O14         1.1270    2.3070    2.5660 o         1 434     -0.523100
     12 C15         5.1540   -0.2660    2.0370 ca        1 434     -0.076000
     13 C17         5.9510    0.4670    2.9370 ca        1 434     -0.067300
     14 C19         5.4160    1.5670    3.6140 ca        1 434     -0.143000
     15 C21         4.0850    1.9540    3.4230 ca        1 434     -0.073000
     16 C23         3.3010    1.2300    2.5390 ca        1 434     -0.159600
     17 C24         0.9500   -1.8620    2.6870 c         1 434      0.918600
     18 O25         0.1360   -2.4720    3.4390 o         1 434     -0.805300
     19 O26         2.1710   -2.1460    2.5680 o         1 434     -0.805300
     20 C28        -0.4850   -2.3200    0.1670 c         1 434      0.684100
     21 O29        -0.0600   -2.5260   -0.9810 o         1 434     -0.589100
     22 N30        -0.9920   -3.3520    0.9640 n         1 434     -0.463100
     23 C31        -0.9700   -4.7100    0.6320 ca        1 434      0.113600
     24 C33        -1.0090   -5.6710    1.6770 ca        1 434     -0.176000
     25 C35        -1.0810   -7.0260    1.3950 ca        1 434     -0.078000
     26 C37        -1.1030   -7.4820    0.0680 ca        1 434     -0.194500
     27 C38        -1.1580   -8.8960   -0.2460 cc        1 434      0.378800
     28 C39        -1.0520   -6.5390   -0.9690 ca        1 434     -0.078000
     29 C41        -0.9870   -5.1790   -0.7030 ca        1 434     -0.176000
     30 N43        -1.7060   -9.8610    0.6540 nc        1 434     -0.283000
     31 N44        -1.6740  -11.0190    0.2180 nd        1 434     -0.131100
     32 S46        -0.9890  -11.1470   -1.3290 ss        1 434      0.056200
     33 C47        -0.7050   -9.4930   -1.4230 cd        1 434     -0.225400
     34 C49        -1.7720    0.3380   -2.2510 ca        1 434     -0.114000
     35 C51        -1.9280    0.2030   -3.6350 ca        1 434      0.006400
     36 C53        -0.8490   -0.2140   -4.4240 ca        1 434      0.021400
     37 C55         0.3810   -0.5060   -3.8230 ca        1 434     -0.129000
     38 C57         0.5330   -0.3780   -2.4450 ca        1 434     -0.040000
     39 C3          7.3530    0.0490    3.1720 c3        1 434     -0.053800
     40 CL1        -3.4410    0.5610   -4.3300 cl        1 434     -0.103400
     41 CL2        -1.0050   -0.3750   -6.1110 cl        1 434     -0.103400
     42 H1         -1.0810    1.0880    0.1410 h1        1 434      0.051700
     43 H6         -0.1380   -0.0190    2.6800 hc        1 434      0.076700
     44 H8         -1.6470   -0.8390    1.1920 hc        1 434      0.078700
     45 H15         5.5600   -1.1420    1.5100 ha        1 434      0.154000
     46 H19         6.0470    2.1330    4.3140 ha        1 434      0.123000
     47 H21         3.6640    2.8120    3.9680 ha        1 434      0.140000
     48 H30        -1.0190   -3.1610    1.9580 hn        1 434      0.366500
     49 H33        -0.9590   -5.3370    2.7280 ha        1 434      0.163500
     50 H35        -1.1090   -7.7450    2.2280 ha        1 434      0.129500
     51 H39        -1.0680   -6.8770   -2.0160 ha        1 434      0.129500
     52 H41        -0.9330   -4.4660   -1.5410 ha        1 434      0.163500
     53 H47        -0.2350   -8.9710   -2.2520 h4        1 434      0.194000
     54 H49        -2.6220    0.6720   -1.6360 ha        1 434      0.142000
     55 H55         1.2270   -0.8470   -4.4380 ha        1 434      0.146000
     56 H57         1.4870   -0.6400   -1.9520 ha        1 434      0.185000
     57 H31         7.9400    0.8550    3.6750 hc        1 434      0.042033
     58 H32         7.8550   -0.2060    2.2060 hc        1 434      0.042033
     59 H33A        7.3720   -0.8610    3.8240 hc        1 434      0.042033
@<TRIPOS>BOND
     1    1    2 1   
     2    1    3 1   
     3    1    6 1   
     4    1   42 1   
     5    2   34 ar  
     6    2   38 ar  
     7    3    4 1   
     8    4    5 1   
     9    4    7 1   
    10    4   10 1   
    11    5    6 1   
    12    5   17 1   
    13    5   43 1   
    14    6   20 1   
    15    6   44 1   
    16    7    8 1   
    17    7    9 2   
    18    8   12 ar  
    19    8   16 ar  
    20   10   11 2   
    21   10   16 1   
    22   12   13 ar  
    23   12   45 1   
    24   13   14 ar  
    25   13   39 1   
    26   14   15 ar  
    27   14   46 1   
    28   15   16 ar  
    29   15   47 1   
    30   17   18 1   
    31   17   19 1   
    32   20   21 2   
    33   20   22 1   
    34   22   23 1   
    35   22   48 1   
    36   23   24 ar  
    37   23   29 ar  
    38   24   25 ar  
    39   24   49 1   
    40   25   26 ar  
    41   25   50 1   
    42   26   27 1   
    43   26   28 ar  
    44   27   30 1   
    45   27   33 2   
    46   28   29 ar  
    47   28   51 1   
    48   29   52 1   
    49   30   31 2   
    50   31   32 1   
    51   32   33 1   
    52   33   53 1   
    53   34   35 ar  
    54   34   54 1   
    55   35   36 ar  
    56   35   40 1   
    57   36   37 ar  
    58   36   41 1   
    59   37   38 ar  
    60   37   55 1   
    61   38   56 1   
    62   39   57 1   
    63   39   58 1   
    64   39   59 1   
@<TRIPOS>SUBSTRUCTURE
     1 434         1 TEMP              0 ****  ****    0 ROOT
