@<TRIPOS>MOLECULE
435
   46    47     1     0     0
SMALL
bcc


@<TRIPOS>ATOM
      1 C1         -0.5280   -0.8060    0.8030 ca        1 435     -0.139300
      2 C2          0.8180   -1.1050    0.9610 ca        1 435     -0.039000
      3 C3          1.6900   -0.1940    1.6060 ca        1 435      0.006400
      4 C4          1.1770    1.0270    2.0910 ca        1 435     -0.039000
      5 C5         -0.1700    1.3460    1.9430 ca        1 435     -0.139300
      6 C6         -1.0220    0.4250    1.2980 ca        1 435      0.182100
      7 O7         -2.3570    0.6470    1.1050 oh        1 435     -0.475100
      8 C8         -0.6950    2.6320    2.4570 c3        1 435     -0.056800
      9 N9          3.0480   -0.6120    1.7080 ne        1 435     -0.112400
     10 N10         3.8920    0.0960    2.2480 nf        1 435     -0.256400
     11 C11         5.2500   -0.2910    2.3650 ca        1 435      0.307400
     12 C12         5.7140   -0.9240    3.5500 ca        1 435     -0.174500
     13 C13         7.0620   -1.1030    3.7570 ca        1 435      0.045500
     14 C14         8.0340   -0.6760    2.8110 ca        1 435     -0.630500
     15 C15         7.5480   -0.0630    1.6250 ca        1 435      0.045500
     16 C16         6.2020    0.1240    1.3990 ca        1 435     -0.174500
     17 S17         9.5590   -0.8440    3.0830 s4        1 435      1.675300
     18 O18        10.4410   -0.1590    2.3100 o         1 435     -0.443900
     19 O19         9.9150   -1.3300    4.3090 o         1 435     -0.443900
     20 N20         9.7530   -2.9130    2.1140 nh        1 435     -0.989500
     21 C21        10.3490   -2.8130    0.7980 ca        1 435      0.497200
     22 N22         9.7740   -1.9180   -0.0650 nb        1 435     -0.698000
     23 C23        10.3370   -1.7870   -1.2730 ca        1 435      0.432200
     24 C24        11.4730   -2.5100   -1.6960 ca        1 435     -0.211300
     25 C25        12.0480   -3.4150   -0.8090 ca        1 435     -0.065000
     26 C26        11.4860   -3.5820    0.4620 ca        1 435     -0.223300
     27 C27        -1.4530   -1.7480    0.1310 c3        1 435     -0.056800
     28 H2          1.2020   -2.0650    0.5760 ha        1 435      0.154500
     29 H4          1.8380    1.7520    2.5970 ha        1 435      0.154500
     30 HO7        -2.5940    1.5110    1.4780 ho        1 435      0.437000
     31 H8         -1.1320    3.2400    1.6240 hc        1 435      0.056700
     32 H8A         0.1140    3.2360    2.9370 hc        1 435      0.056700
     33 H8B        -1.4930    2.4530    3.2230 hc        1 435      0.056700
     34 H12         4.9900   -1.2680    4.3090 ha        1 435      0.179500
     35 H13         7.4080   -1.5890    4.6910 ha        1 435      0.172500
     36 H15         8.2790    0.2670    0.8610 ha        1 435      0.172500
     37 H16         5.8650    0.6030    0.4630 ha        1 435      0.179500
     38 HN20        8.8270   -3.3090    2.0440 hn        1 435      0.420800
     39 H23         9.8490   -1.0550   -1.9450 h4        1 435      0.045100
     40 H24        11.8850   -2.3530   -2.7030 ha        1 435      0.173000
     41 H25        12.9370   -4.0000   -1.0960 ha        1 435      0.168000
     42 H26        11.9300   -4.2950    1.1730 ha        1 435      0.160000
     43 H27        -2.2780   -2.0360    0.8310 hc        1 435      0.056700
     44 H27A       -0.9230   -2.6720   -0.2040 hc        1 435      0.056700
     45 H27B       -1.9190   -1.2540   -0.7590 hc        1 435      0.056700
     46 H202       10.3210   -3.5060    2.7010 hn        1 435      0.420800
@<TRIPOS>BOND
     1    1    2 ar  
     2    1    6 ar  
     3    1   27 1   
     4    2    3 ar  
     5    2   28 1   
     6    3    4 ar  
     7    3    9 1   
     8    4    5 ar  
     9    4   29 1   
    10    5    6 ar  
    11    5    8 1   
    12    6    7 1   
    13    7   30 1   
    14    8   31 1   
    15    8   32 1   
    16    8   33 1   
    17    9   10 2   
    18   10   11 1   
    19   11   12 ar  
    20   11   16 ar  
    21   12   13 ar  
    22   12   34 1   
    23   13   14 ar  
    24   13   35 1   
    25   14   15 ar  
    26   14   17 1   
    27   15   16 ar  
    28   15   36 1   
    29   16   37 1   
    30   17   18 1   
    31   17   19 1   
    32   20   21 1   
    33   20   38 1   
    34   20   46 1   
    35   21   22 ar  
    36   21   26 ar  
    37   22   23 ar  
    38   23   24 ar  
    39   23   39 1   
    40   24   25 ar  
    41   24   40 1   
    42   25   26 ar  
    43   25   41 1   
    44   26   42 1   
    45   27   43 1   
    46   27   44 1   
    47   27   45 1   
@<TRIPOS>SUBSTRUCTURE
     1 435         1 TEMP              0 ****  ****    0 ROOT
