@<TRIPOS>MOLECULE
435
   45    47     1     0     0
SMALL
bcc


@<TRIPOS>ATOM
      1 C1         -0.0700   -0.5430    0.1000 ca        1 435     -0.139300
      2 C2          1.3130   -0.6210    0.2290 ca        1 435     -0.058000
      3 C3          1.9570   -0.1610    1.3990 ca        1 435      0.047400
      4 C4          1.1830    0.3820    2.4410 ca        1 435     -0.058000
      5 C5         -0.2050    0.4730    2.3320 ca        1 435     -0.139300
      6 C6         -0.8270    0.0070    1.1580 ca        1 435      0.149100
      7 O7         -2.1850    0.0530    0.9580 oh        1 435     -0.491100
      8 C8         -1.0030    1.0510    3.4380 c3        1 435     -0.049800
      9 N9          3.3870   -0.2760    1.4080 ne        1 435     -0.177400
     10 N10         4.0180   -0.0290    2.4340 nf        1 435     -0.226400
     11 C11         5.4530   -0.1280    2.4130 ca        1 435      0.175400
     12 C12         6.0820   -0.6390    3.5690 ca        1 435     -0.145500
     13 C13         7.4680   -0.6710    3.6420 ca        1 435     -0.003000
     14 C14         8.2670   -0.2060    2.5880 ca        1 435     -0.385500
     15 C15         7.6360    0.3040    1.4490 ca        1 435     -0.003000
     16 C16         6.2480    0.3430    1.3510 ca        1 435     -0.145500
     17 S17         9.9400   -0.2170    2.7170 sy        1 435      1.523200
     18 O18        10.4980    0.7140    1.8320 o         1 435     -0.645300
     19 O19        10.2940   -0.0720    4.0790 o         1 435     -0.645300
     20 N20        10.3640   -1.7640    2.3380 nu        1 435     -0.862800
     21 C21        10.2520   -2.3930    1.0920 ca        1 435      0.672200
     22 N22         9.6200   -1.7080    0.0860 nb        1 435     -0.728000
     23 C23         9.5270   -2.3110   -1.1080 ca        1 435      0.442200
     24 C24        10.0250   -3.5950   -1.3880 ca        1 435     -0.282300
     25 C25        10.6600   -4.2910   -0.3580 ca        1 435     -0.058000
     26 C26        10.7820   -3.7020    0.8970 ca        1 435     -0.285300
     27 C27        -0.7550   -1.0240   -1.1210 c3        1 435     -0.049800
     28 H2          1.9050   -1.0500   -0.5970 ha        1 435      0.152500
     29 H4          1.6650    0.7490    3.3630 ha        1 435      0.152500
     30 HO7        -2.5990    0.4480    1.7400 ho        1 435      0.425000
     31 H8         -1.7360    0.3000    3.8290 hc        1 435      0.048700
     32 H8A        -0.3460    1.3660    4.2860 hc        1 435      0.048700
     33 H8B        -1.5690    1.9500    3.0870 hc        1 435      0.048700
     34 H12         5.4810   -1.0080    4.4150 ha        1 435      0.153500
     35 H13         7.9540   -1.0540    4.5570 ha        1 435      0.160500
     36 H15         8.2540    0.6840    0.6140 ha        1 435      0.160500
     37 H16         5.7810    0.7490    0.4400 ha        1 435      0.153500
     38 HN20       10.7680   -2.3460    3.0380 hn        1 435      0.458800
     39 H23         9.0160   -1.7180   -1.8900 h4        1 435      0.026100
     40 H24         9.9160   -4.0300   -2.3890 ha        1 435      0.148000
     41 H25        11.0640   -5.3000   -0.5330 ha        1 435      0.141000
     42 H26        11.2810   -4.2340    1.7170 ha        1 435      0.145000
     43 H27        -1.4850   -1.8290   -0.8560 hc        1 435      0.048700
     44 H27A       -1.3290   -0.1850   -1.5910 hc        1 435      0.048700
     45 H27B       -0.0280   -1.4260   -1.8660 hc        1 435      0.048700
@<TRIPOS>BOND
     1    1    2 ar  
     2    1    6 ar  
     3    1   27 1   
     4    2    3 ar  
     5    2   28 1   
     6    3    4 ar  
     7    3    9 1   
     8    4    5 ar  
     9    4   29 1   
    10    5    6 ar  
    11    5    8 1   
    12    6    7 1   
    13    7   30 1   
    14    8   31 1   
    15    8   32 1   
    16    8   33 1   
    17    9   10 2   
    18   10   11 1   
    19   11   12 ar  
    20   11   16 ar  
    21   12   13 ar  
    22   12   34 1   
    23   13   14 ar  
    24   13   35 1   
    25   14   15 ar  
    26   14   17 1   
    27   15   16 ar  
    28   15   36 1   
    29   16   37 1   
    30   17   18 2   
    31   17   19 2   
    32   17   20 1   
    33   20   21 1   
    34   20   38 1   
    35   21   22 ar  
    36   21   26 ar  
    37   22   23 ar  
    38   23   24 ar  
    39   23   39 1   
    40   24   25 ar  
    41   24   40 1   
    42   25   26 ar  
    43   25   41 1   
    44   26   42 1   
    45   27   43 1   
    46   27   44 1   
    47   27   45 1   
@<TRIPOS>SUBSTRUCTURE
     1 435         1 TEMP              0 ****  ****    0 ROOT
