@<TRIPOS>MOLECULE
435
   45    47     1     0     0
SMALL
bcc


@<TRIPOS>ATOM
      1 C1         -0.0700   -0.5460    0.0960 ca        1 435     -0.139300
      2 C2          1.3130   -0.6210    0.2240 ca        1 435     -0.058000
      3 C3          1.9570   -0.1600    1.3950 ca        1 435      0.047400
      4 C4          1.1820    0.3800    2.4370 ca        1 435     -0.058000
      5 C5         -0.2060    0.4680    2.3290 ca        1 435     -0.139300
      6 C6         -0.8280    0.0020    1.1550 ca        1 435      0.149100
      7 O7         -2.1860    0.0450    0.9570 oh        1 435     -0.491100
      8 C8         -1.0040    1.0430    3.4370 c3        1 435     -0.049800
      9 N9          3.3860   -0.2740    1.4030 ne        1 435     -0.177400
     10 N10         4.0180   -0.0220    2.4280 nf        1 435     -0.226400
     11 C11         5.4540   -0.1190    2.4050 ca        1 435      0.175400
     12 C12         6.0850   -0.6200    3.5650 ca        1 435     -0.145500
     13 C13         7.4700   -0.6500    3.6360 ca        1 435     -0.003000
     14 C14         8.2680   -0.1930    2.5790 ca        1 435     -0.385500
     15 C15         7.6350    0.3070    1.4360 ca        1 435     -0.003000
     16 C16         6.2470    0.3440    1.3390 ca        1 435     -0.145500
     17 S17         9.9410   -0.2010    2.7070 sy        1 435      1.523200
     18 O18        10.4970    0.7220    1.8120 o         1 435     -0.645300
     19 O19        10.2960   -0.0430    4.0670 o         1 435     -0.645300
     20 N20        10.3670   -1.7500    2.3410 nh        1 435     -0.862800
     21 C21        10.2530   -2.3920    1.1020 ca        1 435      0.672200
     22 N22         9.6190   -1.7170    0.0900 nb        1 435     -0.728000
     23 C23         9.5250   -2.3320   -1.0980 ca        1 435      0.442200
     24 C24        10.0240   -3.6180   -1.3660 ca        1 435     -0.282300
     25 C25        10.6610   -4.3030   -0.3310 ca        1 435     -0.058000
     26 C26        10.7840   -3.7020    0.9180 ca        1 435     -0.285300
     27 C27        -0.7550   -1.0260   -1.1250 c3        1 435     -0.049800
     28 H2          1.9050   -1.0480   -0.6030 ha        1 435      0.152500
     29 H4          1.6640    0.7460    3.3590 ha        1 435      0.152500
     30 HO7        -2.6010    0.4370    1.7390 ho        1 435      0.425000
     31 H8         -1.5730    1.9410    3.0870 hc        1 435      0.048700
     32 H8A        -0.3470    1.3590    4.2840 hc        1 435      0.048700
     33 H8B        -1.7350    0.2900    3.8280 hc        1 435      0.048700
     34 H12         5.4840   -0.9830    4.4140 ha        1 435      0.153500
     35 H13         7.9570   -1.0240    4.5550 ha        1 435      0.160500
     36 H15         8.2520    0.6800    0.5970 ha        1 435      0.160500
     37 H16         5.7790    0.7420    0.4240 ha        1 435      0.153500
     38 HN20       10.7720   -2.3260    3.0460 hn        1 435      0.458800
     39 H23         9.0120   -1.7470   -1.8850 h4        1 435      0.026100
     40 H24         9.9140   -4.0620   -2.3630 ha        1 435      0.148000
     41 H25        11.0660   -5.3130   -0.4970 ha        1 435      0.141000
     42 H26        11.2850   -4.2260    1.7420 ha        1 435      0.145000
     43 H27        -1.3280   -0.1880   -1.5960 hc        1 435      0.048700
     44 H27A       -0.0280   -1.4310   -1.8690 hc        1 435      0.048700
     45 H27B       -1.4870   -1.8310   -0.8590 hc        1 435      0.048700
@<TRIPOS>BOND
     1    1    2 ar  
     2    1    6 ar  
     3    1   27 1   
     4    2    3 ar  
     5    2   28 1   
     6    3    4 ar  
     7    3    9 1   
     8    4    5 ar  
     9    4   29 1   
    10    5    6 ar  
    11    5    8 1   
    12    6    7 1   
    13    7   30 1   
    14    8   31 1   
    15    8   32 1   
    16    8   33 1   
    17    9   10 2   
    18   10   11 1   
    19   11   12 ar  
    20   11   16 ar  
    21   12   13 ar  
    22   12   34 1   
    23   13   14 ar  
    24   13   35 1   
    25   14   15 ar  
    26   14   17 1   
    27   15   16 ar  
    28   15   36 1   
    29   16   37 1   
    30   17   18 2   
    31   17   19 2   
    32   17   20 1   
    33   20   21 1   
    34   20   38 1   
    35   21   22 ar  
    36   21   26 ar  
    37   22   23 ar  
    38   23   24 ar  
    39   23   39 1   
    40   24   25 ar  
    41   24   40 1   
    42   25   26 ar  
    43   25   41 1   
    44   26   42 1   
    45   27   43 1   
    46   27   44 1   
    47   27   45 1   
@<TRIPOS>SUBSTRUCTURE
     1 435         1 TEMP              0 ****  ****    0 ROOT
