@<TRIPOS>MOLECULE
437
   57    60     1     0     0
SMALL
bcc


@<TRIPOS>ATOM
      1 C1          6.2380   -0.6310   -1.0970 ca        1 437     -0.135000
      2 C2          5.2500   -1.4480   -1.5820 ca        1 437     -0.107000
      3 C3          3.8910   -1.1670   -1.3290 ca        1 437     -0.127000
      4 C4          5.9050    0.5020   -0.3070 ca        1 437     -0.023000
      5 C5          4.5470    0.7940   -0.0140 ca        1 437     -0.051000
      6 C6          3.5230   -0.0610   -0.5690 ca        1 437      0.058600
      7 N7          2.1620    0.2710   -0.3940 n         1 437     -0.464100
      8 C8          1.1840   -0.7030   -0.1060 c         1 437      0.762100
      9 O9          1.4050   -1.9250   -0.2350 o         1 437     -0.590100
     10 N10        -0.0740   -0.2300    0.3670 n         1 437     -0.429100
     11 C11        -1.1890   -1.0710    0.2940 cc        1 437      0.015300
     12 C12        -1.2770   -2.4650    0.4530 cd        1 437     -0.271300
     13 C13        -2.6830   -2.7780    0.2750 cd        1 437      0.332600
     14 C14        -3.2470   -4.1640    0.3470 c3        1 437     -0.076300
     15 C15        -2.9240   -4.7510    1.7180 c3        1 437     -0.085100
     16 C16        -4.7560   -4.1770    0.1440 c3        1 437     -0.085100
     17 C17        -2.5900   -5.0140   -0.7360 c3        1 437     -0.085100
     18 N18        -3.3940   -1.6450    0.0330 nc        1 437     -0.492800
     19 N19        -2.5180   -0.6210   -0.0070 na        1 437      0.120300
     20 C20        -2.9300    0.7430    0.0070 ca        1 437      0.012800
     21 C21        -3.7650    1.2280   -1.0190 ca        1 437     -0.133500
     22 C22        -2.5120    1.6160    1.0320 ca        1 437     -0.133500
     23 C23        -2.8950    2.9530    1.0010 ca        1 437     -0.108500
     24 C24        -3.7120    3.4380   -0.0260 ca        1 437     -0.087300
     25 C25        -4.1180    4.8750   -0.0030 c3        1 437      0.176700
     26 C26        -4.1470    2.5670   -1.0270 ca        1 437     -0.108500
     27 O27        -4.6790    5.2240   -1.2600 oh        1 437     -0.597800
     28 C28         4.2670    1.9140    0.8190 ca        1 437     -0.128000
     29 C29         5.2770    2.7070    1.3070 ca        1 437     -0.124000
     30 C30         6.6260    2.4260    0.9920 ca        1 437     -0.128000
     31 C31         6.9310    1.3440    0.2060 ca        1 437     -0.114000
     32 H1          7.2980   -0.8390   -1.3020 ha        1 437      0.135000
     33 H2          5.4980   -2.3350   -2.1850 ha        1 437      0.138000
     34 H3          3.1260   -1.8500   -1.7340 ha        1 437      0.167000
     35 HN7         1.9860    1.2100   -0.1140 hn        1 437      0.311500
     36 H12        -0.4600   -3.1570    0.6350 ha        1 437      0.192000
     37 H15        -3.4150   -4.1520    2.5210 hc        1 437      0.039367
     38 H15A       -3.2950   -5.8020    1.7760 hc        1 437      0.039367
     39 H15B       -1.8210   -4.7480    1.8920 hc        1 437      0.039367
     40 H16        -5.0210   -3.7660   -0.8590 hc        1 437      0.039367
     41 H16A       -5.1330   -5.2260    0.2100 hc        1 437      0.039367
     42 H16B       -5.2630   -3.5660    0.9280 hc        1 437      0.039367
     43 H17        -1.4810   -5.0140   -0.6110 hc        1 437      0.039367
     44 H17A       -2.9610   -6.0650   -0.6690 hc        1 437      0.039367
     45 H17B       -2.8370   -4.6110   -1.7470 hc        1 437      0.039367
     46 H21        -4.1250    0.5510   -1.8100 ha        1 437      0.153500
     47 H22        -1.9050    1.2460    1.8730 ha        1 437      0.153500
     48 H23        -2.5600    3.6300    1.8020 ha        1 437      0.148000
     49 H25        -4.8790    5.0360    0.8110 h1        1 437      0.034700
     50 H25A       -3.2230    5.5250    0.2030 h1        1 437      0.034700
     51 H26        -4.7970    2.9480   -1.8330 ha        1 437      0.148000
     52 HO27       -4.9660    6.1410   -1.1820 ho        1 437      0.406000
     53 H28         3.2330    2.1560    1.1050 ha        1 437      0.119000
     54 H29         5.0470    3.5680    1.9520 ha        1 437      0.132000
     55 H30         7.4180    3.0780    1.3880 ha        1 437      0.135000
     56 H31         7.9760    1.1040   -0.0430 ha        1 437      0.135000
     57 H261       -0.2700    0.7450    0.2610 hn        1 437      0.309500
@<TRIPOS>BOND
     1    1    2 ar  
     2    1    4 ar  
     3    1   32 1   
     4    2    3 ar  
     5    2   33 1   
     6    3    6 ar  
     7    3   34 1   
     8    4    5 ar  
     9    4   31 ar  
    10    5    6 ar  
    11    5   28 ar  
    12    6    7 1   
    13    7    8 1   
    14    7   35 1   
    15    8    9 2   
    16    8   10 1   
    17   10   11 1   
    18   10   57 1   
    19   11   12 2   
    20   11   19 1   
    21   12   13 1   
    22   12   36 1   
    23   13   14 1   
    24   13   18 2   
    25   14   15 1   
    26   14   16 1   
    27   14   17 1   
    28   15   37 1   
    29   15   38 1   
    30   15   39 1   
    31   16   40 1   
    32   16   41 1   
    33   16   42 1   
    34   17   43 1   
    35   17   44 1   
    36   17   45 1   
    37   18   19 1   
    38   19   20 1   
    39   20   21 ar  
    40   20   22 ar  
    41   21   26 ar  
    42   21   46 1   
    43   22   23 ar  
    44   22   47 1   
    45   23   24 ar  
    46   23   48 1   
    47   24   25 1   
    48   24   26 ar  
    49   25   27 1   
    50   25   49 1   
    51   25   50 1   
    52   26   51 1   
    53   27   52 1   
    54   28   29 ar  
    55   28   53 1   
    56   29   30 ar  
    57   29   54 1   
    58   30   31 ar  
    59   30   55 1   
    60   31   56 1   
@<TRIPOS>SUBSTRUCTURE
     1 437         1 TEMP              0 ****  ****    0 ROOT
