@<TRIPOS>MOLECULE
437
   57    60     1     0     0
SMALL
bcc


@<TRIPOS>ATOM
      1 C1         -0.3460   -0.5130    0.0840 ca        1 437     -0.135000
      2 C2          1.0120   -0.5430   -0.0980 ca        1 437     -0.107000
      3 C3          1.8900   -0.3820    0.9940 ca        1 437     -0.127000
      4 C4         -0.8890   -0.2940    1.3780 ca        1 437     -0.023000
      5 C5         -0.0290   -0.1040    2.4910 ca        1 437     -0.051000
      6 C6          1.3980   -0.1770    2.2790 ca        1 437      0.058600
      7 N7          2.2740   -0.1090    3.3830 n         1 437     -0.464100
      8 C8          3.4800    0.6210    3.3390 c         1 437      0.762100
      9 O9          3.9680    1.0350    2.2670 o         1 437     -0.590100
     10 N10         4.1130    0.8910    4.5870 n         1 437     -0.429100
     11 C11         5.4670    1.2430    4.6030 cc        1 437      0.015300
     12 C12         6.2110    1.9980    3.6800 cd        1 437     -0.271300
     13 C13         7.5580    2.0370    4.2220 cd        1 437      0.332600
     14 C14         8.7060    2.7320    3.5580 c3        1 437     -0.076300
     15 C15         8.3500    4.2060    3.3850 c3        1 437     -0.085100
     16 C16         9.9870    2.6230    4.3740 c3        1 437     -0.085100
     17 C17         8.9320    2.1010    2.1880 c3        1 437     -0.085100
     18 N18         7.6160    1.3560    5.3960 nc        1 437     -0.492800
     19 N19         6.3930    0.8330    5.6200 na        1 437      0.120300
     20 C20         6.0160    0.2680    6.8720 ca        1 437      0.012800
     21 C21         6.7370   -0.8290    7.3860 ca        1 437     -0.133500
     22 C22         4.9300    0.7890    7.6060 ca        1 437     -0.133500
     23 C23         4.5580    0.1950    8.8060 ca        1 437     -0.109000
     24 C24         5.2640   -0.9030    9.3090 ca        1 437     -0.087300
     25 C25         4.8420   -1.4930   10.6140 c3        1 437      0.176700
     26 C26         6.3550   -1.4040    8.5950 ca        1 437     -0.109000
     27 O27         5.4760   -2.7520   10.7880 oh        1 437     -0.597800
     28 C28        -0.6210    0.1570    3.7590 ca        1 437     -0.128000
     29 C29        -1.9860    0.1980    3.9110 ca        1 437     -0.124000
     30 C30        -2.8390   -0.0170    2.8040 ca        1 437     -0.128000
     31 C31        -2.3000   -0.2530    1.5650 ca        1 437     -0.114000
     32 H1         -1.0350   -0.6500   -0.7630 ha        1 437      0.135000
     33 H2          1.4430   -0.6990   -1.0990 ha        1 437      0.138000
     34 H3          2.9770   -0.4090    0.8050 ha        1 437      0.167000
     35 HN7         1.8530   -0.2660    4.2710 hn        1 437      0.311500
     36 H12         5.8580    2.4290    2.7480 ha        1 437      0.192000
     37 H15         9.1760    4.7340    2.8500 hc        1 437      0.039367
     38 H15A        8.2030    4.6880    4.3810 hc        1 437      0.039367
     39 H15B        7.4110    4.3120    2.7920 hc        1 437      0.039367
     40 H16        10.2800    1.5540    4.5030 hc        1 437      0.039367
     41 H16A        9.8510    3.0830    5.3820 hc        1 437      0.039367
     42 H16B       10.8140    3.1580    3.8460 hc        1 437      0.039367
     43 H17         9.7540    2.6370    1.6550 hc        1 437      0.039367
     44 H17A        9.2160    1.0280    2.2980 hc        1 437      0.039367
     45 H17B        8.0020    2.1640    1.5730 hc        1 437      0.039367
     46 H21         7.6060   -1.2280    6.8390 ha        1 437      0.153500
     47 H22         4.3880    1.6800    7.2510 ha        1 437      0.153500
     48 H23         3.7060    0.6040    9.3710 ha        1 437      0.148500
     49 H25         3.7250   -1.6290   10.6340 h1        1 437      0.034700
     50 H25A        5.1380   -0.7990   11.4510 h1        1 437      0.034700
     51 H26         6.9150   -2.2660    8.9940 ha        1 437      0.148500
     52 HO27        5.2120   -3.0690   11.6590 ho        1 437      0.406000
     53 H28         0.0050    0.3500    4.6420 ha        1 437      0.119000
     54 H29        -2.4310    0.4030    4.8960 ha        1 437      0.132000
     55 H30        -3.9280    0.0140    2.9500 ha        1 437      0.135000
     56 H31        -2.9470   -0.4140    0.6890 ha        1 437      0.135000
     57 H261        3.7990    0.3760    5.3850 hn        1 437      0.309500
@<TRIPOS>BOND
     1    1    2 ar  
     2    1    4 ar  
     3    1   32 1   
     4    2    3 ar  
     5    2   33 1   
     6    3    6 ar  
     7    3   34 1   
     8    4    5 ar  
     9    4   31 ar  
    10    5    6 ar  
    11    5   28 ar  
    12    6    7 1   
    13    7    8 1   
    14    7   35 1   
    15    8    9 2   
    16    8   10 1   
    17   10   11 1   
    18   10   57 1   
    19   11   12 2   
    20   11   19 1   
    21   12   13 1   
    22   12   36 1   
    23   13   14 1   
    24   13   18 2   
    25   14   15 1   
    26   14   16 1   
    27   14   17 1   
    28   15   37 1   
    29   15   38 1   
    30   15   39 1   
    31   16   40 1   
    32   16   41 1   
    33   16   42 1   
    34   17   43 1   
    35   17   44 1   
    36   17   45 1   
    37   18   19 1   
    38   19   20 1   
    39   20   21 ar  
    40   20   22 ar  
    41   21   26 ar  
    42   21   46 1   
    43   22   23 ar  
    44   22   47 1   
    45   23   24 ar  
    46   23   48 1   
    47   24   25 1   
    48   24   26 ar  
    49   25   27 1   
    50   25   49 1   
    51   25   50 1   
    52   26   51 1   
    53   27   52 1   
    54   28   29 ar  
    55   28   53 1   
    56   29   30 ar  
    57   29   54 1   
    58   30   31 ar  
    59   30   55 1   
    60   31   56 1   
@<TRIPOS>SUBSTRUCTURE
     1 437         1 TEMP              0 ****  ****    0 ROOT
