@<TRIPOS>MOLECULE
437
   57    60     1     0     0
SMALL
bcc


@<TRIPOS>ATOM
      1 C1         -0.3540   -0.5310    0.0980 ca        1 437     -0.135000
      2 C2          1.0040   -0.5730   -0.0830 ca        1 437     -0.107000
      3 C3          1.8830   -0.4060    1.0080 ca        1 437     -0.127000
      4 C4         -0.8960   -0.2930    1.3890 ca        1 437     -0.023000
      5 C5         -0.0350   -0.0960    2.5000 ca        1 437     -0.051000
      6 C6          1.3910   -0.1830    2.2900 ca        1 437      0.058600
      7 N7          2.2680   -0.1090    3.3940 ns        1 437     -0.464100
      8 C8          3.4780    0.6140    3.3430 c         1 437      0.762100
      9 O9          3.9670    1.0150    2.2670 o         1 437     -0.590100
     10 N10         4.1130    0.8900    4.5880 ns        1 437     -0.429100
     11 C11         5.4690    1.2370    4.5990 cc        1 437      0.015300
     12 C12         6.2140    1.9850    3.6700 cd        1 437     -0.271300
     13 C13         7.5610    2.0220    4.2100 cd        1 437      0.332600
     14 C14         8.7110    2.7100    3.5390 c3        1 437     -0.076300
     15 C15         8.3600    4.1840    3.3610 c3        1 437     -0.085100
     16 C16         9.9930    2.6000    4.3520 c3        1 437     -0.085100
     17 C17         8.9310    2.0720    2.1710 c3        1 437     -0.085100
     18 N18         7.6200    1.3460    5.3870 nc        1 437     -0.492800
     19 N19         6.3960    0.8290    5.6160 na        1 437      0.120300
     20 C20         6.0210    0.2700    6.8710 ca        1 437      0.012800
     21 C21         6.7380   -0.8270    7.3870 ca        1 437     -0.133500
     22 C22         4.9380    0.7980    7.6050 ca        1 437     -0.133500
     23 C23         4.5660    0.2100    8.8090 ca        1 437     -0.108500
     24 C24         5.2700   -0.8890    9.3150 ca        1 437     -0.087300
     25 C25         4.8500   -1.4720   10.6230 c3        1 437      0.176700
     26 C26         6.3580   -1.3960    8.6000 ca        1 437     -0.108500
     27 O27         5.4840   -2.7300   10.8020 oh        1 437     -0.597800
     28 C28        -0.6260    0.1840    3.7650 ca        1 437     -0.128000
     29 C29        -1.9910    0.2380    3.9150 ca        1 437     -0.124000
     30 C30        -2.8440    0.0170    2.8100 ca        1 437     -0.128000
     31 C31        -2.3060   -0.2390    1.5740 ca        1 437     -0.114000
     32 H1         -1.0440   -0.6730   -0.7470 ha        1 437      0.135000
     33 H2          1.4350   -0.7440   -1.0810 ha        1 437      0.138000
     34 H3          2.9690   -0.4440    0.8210 ha        1 437      0.166000
     35 HN7         1.8450   -0.2540    4.2830 hn        1 437      0.311500
     36 H12         5.8590    2.4130    2.7370 ha        1 437      0.192000
     37 H15         9.1850    4.7060    2.8210 hc        1 437      0.039367
     38 H15A        8.2160    4.6710    4.3550 hc        1 437      0.039367
     39 H15B        7.4190    4.2910    2.7700 hc        1 437      0.039367
     40 H16        10.8210    3.1290    3.8200 hc        1 437      0.039367
     41 H16A       10.2830    1.5300    4.4860 hc        1 437      0.039367
     42 H16B        9.8620    3.0640    5.3580 hc        1 437      0.039367
     43 H17         8.0000    2.1360    1.5580 hc        1 437      0.039367
     44 H17A        9.2110    0.9980    2.2850 hc        1 437      0.039367
     45 H17B        9.7530    2.6030    1.6340 hc        1 437      0.039367
     46 H21         7.6050   -1.2320    6.8410 ha        1 437      0.153500
     47 H22         4.3970    1.6890    7.2490 ha        1 437      0.153500
     48 H23         3.7170    0.6240    9.3740 ha        1 437      0.148000
     49 H25         5.1460   -0.7750   11.4560 h1        1 437      0.034700
     50 H25A        3.7330   -1.6070   10.6450 h1        1 437      0.034700
     51 H26         6.9170   -2.2580    9.0010 ha        1 437      0.148000
     52 HO27        5.2200   -3.0430   11.6760 ho        1 437      0.406000
     53 H28         0.0010    0.3820    4.6460 ha        1 437      0.119000
     54 H29        -2.4350    0.4580    4.8970 ha        1 437      0.132000
     55 H30        -3.9340    0.0580    2.9550 ha        1 437      0.135000
     56 H31        -2.9550   -0.4050    0.7000 ha        1 437      0.135000
     57 H261        3.7990    0.3820    5.3900 hn        1 437      0.309500
@<TRIPOS>BOND
     1    1    2 ar  
     2    1    4 ar  
     3    1   32 1   
     4    2    3 ar  
     5    2   33 1   
     6    3    6 ar  
     7    3   34 1   
     8    4    5 ar  
     9    4   31 ar  
    10    5    6 ar  
    11    5   28 ar  
    12    6    7 1   
    13    7    8 1   
    14    7   35 1   
    15    8    9 2   
    16    8   10 1   
    17   10   11 1   
    18   10   57 1   
    19   11   12 2   
    20   11   19 1   
    21   12   13 1   
    22   12   36 1   
    23   13   14 1   
    24   13   18 2   
    25   14   15 1   
    26   14   16 1   
    27   14   17 1   
    28   15   37 1   
    29   15   38 1   
    30   15   39 1   
    31   16   40 1   
    32   16   41 1   
    33   16   42 1   
    34   17   43 1   
    35   17   44 1   
    36   17   45 1   
    37   18   19 1   
    38   19   20 1   
    39   20   21 ar  
    40   20   22 ar  
    41   21   26 ar  
    42   21   46 1   
    43   22   23 ar  
    44   22   47 1   
    45   23   24 ar  
    46   23   48 1   
    47   24   25 1   
    48   24   26 ar  
    49   25   27 1   
    50   25   49 1   
    51   25   50 1   
    52   26   51 1   
    53   27   52 1   
    54   28   29 ar  
    55   28   53 1   
    56   29   30 ar  
    57   29   54 1   
    58   30   31 ar  
    59   30   55 1   
    60   31   56 1   
@<TRIPOS>SUBSTRUCTURE
     1 437         1 TEMP              0 ****  ****    0 ROOT
