@<TRIPOS>MOLECULE
437
   57    50     1     0     0
SMALL
bcc


@<TRIPOS>ATOM
      1 C1         -2.5990   -3.8330   -4.2200 c1        1 437     -0.125000
      2 C2         -1.4590   -3.8510   -3.4320 c1        1 437     -0.122500
      3 C3         -1.3440   -2.9670   -2.3340 c1        1 437     -0.122500
      4 C4         -3.6330   -2.9440   -3.9300 c1        1 437     -0.022000
      5 C5         -3.5220   -2.0690   -2.8440 c1        1 437     -0.052000
      6 C6         -2.3680   -2.0870   -2.0470 c1        1 437      0.066000
      7 N7         -2.1680   -1.2160   -0.9290 n         1 437     -0.313000
      8 C8         -0.8250   -0.5820   -0.7010 c2        1 437      0.377000
      9 O9          0.1080   -0.8140   -1.4810 o         1 437     -0.352000
     10 N10        -0.6700    0.4130    0.3300 n         1 437     -0.287000
     11 C11         0.5730    1.1410    0.4540 c2        1 437      0.029000
     12 C12         1.0560    2.0660   -0.4280 c1        1 437     -0.176000
     13 C13         2.2240    2.5760    0.0930 c1        1 437     -0.109000
     14 C14         3.1180    3.6560   -0.5650 c2        1 437      0.020000
     15 C15         2.3070    4.9760   -0.7210 c3        1 437     -0.202667
     16 C16         4.3190    3.9150    0.3030 c3        1 437     -0.202667
     17 C17         3.5820    3.1600   -1.9510 c3        1 437     -0.202667
     18 N18         2.4560    1.9630    1.2920 n2        1 437     -0.045000
     19 N19         1.4420    1.0780    1.5210 n2        1 437     -0.104000
     20 C20         1.2960    0.2330    2.6990 c1        1 437     -0.014000
     21 C21         0.7230    0.7440    3.8450 c2        1 437     -0.108000
     22 C22         1.8370   -1.0540    2.7020 c1        1 437     -0.130000
     23 C23         1.8000   -1.8170    3.8530 c1        1 437     -0.130000
     24 C24         1.2230   -1.3040    5.0090 c1        1 437     -0.014000
     25 C25         1.1860   -2.1330    6.2550 c2        1 437      0.018000
     26 C26         0.6850   -0.0250    5.0060 c2        1 437     -0.108000
     27 O27        -0.1490   -2.7450    6.4010 oh        1 437     -0.326000
     28 C28        -4.5380   -1.1290   -2.5910 c1        1 437     -0.128000
     29 C29        -5.6570   -1.0700   -3.4260 c1        1 437     -0.122500
     30 C30        -5.7680   -1.9530   -4.5200 c1        1 437     -0.122500
     31 C31        -4.7610   -2.8830   -4.7690 c1        1 437     -0.125000
     32 H1         -2.6790   -4.4640   -5.0040 ha        1 437      0.135000
     33 H2         -0.7150   -4.4910   -3.6430 ha        1 437      0.142500
     34 H3         -0.5470   -2.9790   -1.7820 ha        1 437      0.142500
     35 HN7        -2.8200   -1.1210   -0.3130 hn        1 437      0.226000
     36 H12         0.6330    2.3270   -1.3120 DU        1 437      0.174000
     37 H15         2.0350    5.3040    0.1730 hc        1 437      0.078111
     38 H15A        2.8400    5.6230   -1.1400 hc        1 437      0.078111
     39 H15B        1.5020    4.8060   -1.2680 hc        1 437      0.078111
     40 H16         4.0390    4.2040    1.1430 hc        1 437      0.078111
     41 H16A        4.8220    3.1160    0.3940 hc        1 437      0.078111
     42 H16B        4.8950    4.6290   -0.1230 hc        1 437      0.078111
     43 H17         3.9980    2.2560   -1.8570 hc        1 437      0.078111
     44 H17A        4.2750    3.8170   -2.3370 hc        1 437      0.078111
     45 H17B        2.7710    3.1020   -2.5870 hc        1 437      0.078111
     46 H21         0.3430    1.6510    3.8410 ha        1 437      0.157000
     47 H22         2.2570   -1.4270    1.8640 ha        1 437      0.150000
     48 H23         2.1810   -2.7230    3.8540 ha        1 437      0.150000
     49 H25         1.3670   -1.5850    7.0050 h4        1 437      0.074500
     50 H25A        1.8310   -2.8050    6.1990 h4        1 437      0.074500
     51 H26         0.2900    0.3280    5.7970 ha        1 437      0.157000
     52 HO27       -0.1520   -3.3180    7.1520 ho        1 437      0.204000
     53 H28        -4.4640   -0.5370   -1.8570 ha        1 437      0.121000
     54 H29        -6.4080   -0.3770   -3.2400 ha        1 437      0.142500
     55 H30        -6.5690   -1.9120   -5.1180 ha        1 437      0.142500
     56 H31        -4.8380   -3.5090   -5.5440 ha        1 437      0.135000
     57 H261       -1.3600    0.6390    0.8280 hn        1 437      0.223000
@<TRIPOS>BOND
     1    1    4 1   
     2    1   32 1   
     3    2    3 1   
     4    2   33 1   
     5    3   34 1   
     6    4   31 1   
     7    5    6 1   
     8    5   28 1   
     9    6    7 1   
    10    7    8 1   
    11    7   35 1   
    12    8    9 1   
    13    8   10 1   
    14   10   11 1   
    15   10   57 1   
    16   11   12 1   
    17   11   19 1   
    18   12   13 1   
    19   13   18 1   
    20   14   15 1   
    21   14   16 1   
    22   14   17 1   
    23   15   37 1   
    24   15   38 1   
    25   15   39 1   
    26   16   40 1   
    27   16   41 1   
    28   16   42 1   
    29   17   43 1   
    30   17   44 1   
    31   17   45 1   
    32   18   19 1   
    33   20   21 1   
    34   20   22 1   
    35   21   26 1   
    36   21   46 1   
    37   22   47 1   
    38   23   24 1   
    39   23   48 1   
    40   24   26 1   
    41   25   27 1   
    42   25   49 1   
    43   25   50 1   
    44   26   51 1   
    45   27   52 1   
    46   28   53 1   
    47   29   30 1   
    48   29   54 1   
    49   30   55 1   
    50   31   56 1   
@<TRIPOS>SUBSTRUCTURE
     1 437         1 TEMP              0 ****  ****    0 ROOT
