@<TRIPOS>MOLECULE
437
   59    62     1     0     0
SMALL
bcc


@<TRIPOS>ATOM
      1 C1         -0.2030   -2.1600    1.8190 ca        1 437      0.010000
      2 C2         -0.8350   -1.7880    2.9900 ca        1 437     -0.139000
      3 C3         -0.3140   -0.7530    3.7780 ca        1 437     -0.022000
      4 C4          0.9740   -1.4950    1.3850 ca        1 437     -0.054000
      5 C5          1.5200   -0.4250    2.1510 ca        1 437     -0.008000
      6 C6          0.8480   -0.0910    3.3730 ca        1 437     -0.153400
      7 N7          1.3550    1.0010    4.2090 n4        1 437     -0.484200
      8 C8          2.3260    0.4700    5.2230 c         1 437      0.485100
      9 O9          2.0110    0.3760    6.3970 o         1 437     -0.314100
     10 N10         3.6840    0.0480    4.7350 n4        1 437     -0.449200
     11 C11         4.6090    1.1480    4.8340 cc        1 437     -0.224700
     12 C12         4.6550    2.3480    4.0660 cd        1 437     -0.223300
     13 C13         5.7830    3.0610    4.5830 cd        1 437      0.369600
     14 C14         6.2900    4.3990    4.1300 c3        1 437     -0.085300
     15 C15         6.2420    5.3810    5.2960 c3        1 437     -0.096100
     16 C16         7.7290    4.2570    3.6420 c3        1 437     -0.096100
     17 C17         5.4210    4.9210    2.9930 c3        1 437     -0.096100
     18 N18         6.3700    2.3280    5.6010 nc        1 437     -0.380800
     19 N19         5.6770    1.2210    5.7740 na        1 437      0.269300
     20 C20         6.0310    0.1380    6.6490 ca        1 437     -0.096200
     21 C21         7.3450   -0.3610    6.6550 ca        1 437     -0.123500
     22 C22         5.0610   -0.3930    7.5270 ca        1 437     -0.123500
     23 C23         5.4050   -1.4460    8.3640 ca        1 437     -0.095000
     24 C24         6.7070   -1.9710    8.3560 ca        1 437     -0.025300
     25 C25         7.0820   -3.0960    9.2680 c3        1 437      0.160700
     26 C26         7.6690   -1.4170    7.5070 ca        1 437     -0.095000
     27 O27         5.8930   -3.7570    9.6710 oh        1 437     -0.609800
     28 C28         2.6690    0.2440    1.6580 ca        1 437     -0.259000
     29 C29         3.2560   -0.1440    0.4700 ca        1 437     -0.016000
     30 C30         2.7310   -1.2230   -0.2760 ca        1 437     -0.116000
     31 C31         1.6070   -1.8790    0.1690 ca        1 437     -0.050000
     32 H1         -0.6130   -2.9800    1.2000 ha        1 437      0.190000
     33 H2         -1.7600   -2.2980    3.3160 ha        1 437      0.197000
     34 H3         -0.8470   -0.4820    4.7080 ha        1 437      0.171000
     35 HN7         0.5660    1.4290    4.7340 hn        1 437      0.500300
     36 H12         4.0090    2.6680    3.2550 ha        1 437      0.178000
     37 H15         5.2020    5.4760    5.6890 hc        1 437      0.054033
     38 H15A        6.9150    5.0480    6.1230 hc        1 437      0.054033
     39 H15B        6.5850    6.3860    4.9470 hc        1 437      0.054033
     40 H16         8.0890    5.2440    3.2620 hc        1 437      0.054033
     41 H16A        8.3990    3.9340    4.4740 hc        1 437      0.054033
     42 H16B        7.7910    3.5130    2.8130 hc        1 437      0.054033
     43 H17         5.8080    5.9170    2.6620 hc        1 437      0.054033
     44 H17A        5.4500    4.2270    2.1200 hc        1 437      0.054033
     45 H17B        4.3650    5.0500    3.3280 hc        1 437      0.054033
     46 H21         8.1260    0.0730    6.0070 ha        1 437      0.155500
     47 H22         4.0590    0.0560    7.6160 ha        1 437      0.155500
     48 H23         4.6590   -1.8730    9.0590 ha        1 437      0.182000
     49 H25         7.6240   -2.6800   10.1640 h1        1 437      0.065700
     50 H25A        7.7560   -3.8210    8.7330 h1        1 437      0.065700
     51 H26         8.7010   -1.8080    7.5110 ha        1 437      0.182000
     52 HO27        6.1480   -4.4000   10.3470 ho        1 437      0.435000
     53 H28         3.0730    1.1380    2.1550 ha        1 437      0.107000
     54 H29         4.1390    0.3960    0.0820 ha        1 437      0.173000
     55 H30         3.2200   -1.5160   -1.2220 ha        1 437      0.188000
     56 H31         1.1710   -2.7100   -0.4160 ha        1 437      0.182000
     57 H261        4.0050   -0.7370    5.3500 hn        1 437      0.513300
     58 H72         1.7970    1.7280    3.6220 hn        1 437      0.500300
     59 H102        3.6450   -0.2760    3.7470 hn        1 437      0.513300
@<TRIPOS>BOND
     1    1    2 ar  
     2    1    4 ar  
     3    1   32 1   
     4    2    3 ar  
     5    2   33 1   
     6    3    6 ar  
     7    3   34 1   
     8    4    5 ar  
     9    4   31 ar  
    10    5    6 ar  
    11    5   28 ar  
    12    6    7 1   
    13    7    8 1   
    14    7   35 1   
    15    7   58 1   
    16    8    9 2   
    17    8   10 1   
    18   10   11 1   
    19   10   57 1   
    20   10   59 1   
    21   11   12 2   
    22   11   19 1   
    23   12   13 1   
    24   12   36 1   
    25   13   14 1   
    26   13   18 2   
    27   14   15 1   
    28   14   16 1   
    29   14   17 1   
    30   15   37 1   
    31   15   38 1   
    32   15   39 1   
    33   16   40 1   
    34   16   41 1   
    35   16   42 1   
    36   17   43 1   
    37   17   44 1   
    38   17   45 1   
    39   18   19 1   
    40   19   20 1   
    41   20   21 ar  
    42   20   22 ar  
    43   21   26 ar  
    44   21   46 1   
    45   22   23 ar  
    46   22   47 1   
    47   23   24 ar  
    48   23   48 1   
    49   24   25 1   
    50   24   26 ar  
    51   25   27 1   
    52   25   49 1   
    53   25   50 1   
    54   26   51 1   
    55   27   52 1   
    56   28   29 ar  
    57   28   53 1   
    58   29   30 ar  
    59   29   54 1   
    60   30   31 ar  
    61   30   55 1   
    62   31   56 1   
@<TRIPOS>SUBSTRUCTURE
     1 437         1 TEMP              0 ****  ****    0 ROOT
