@<TRIPOS>MOLECULE
438
   78    82     1     0     0
SMALL
bcc


@<TRIPOS>ATOM
      1 N1         -8.8050    3.0990    0.0850 n3        1 438     -0.901800
      2 C2         -8.0410    2.9060    1.2940 c3        1 438      0.194100
      3 C3         -4.2370    3.1030    1.3650 cp        1 438     -0.008000
      4 C4         -4.0450    4.4900    1.2800 ca        1 438     -0.123000
      5 C5         -5.1410    5.3470    1.2020 ca        1 438     -0.134000
      6 C6         -6.4360    4.8350    1.2050 ca        1 438     -0.140000
      7 C7         -6.6410    3.4540    1.2870 ca        1 438     -0.136300
      8 C8         -5.5440    2.5940    1.3660 ca        1 438     -0.112000
      9 C9         -3.0910    2.1990    1.4480 cp        1 438     -0.054000
     10 C10        -1.9490    2.4460    0.6760 ca        1 438     -0.141000
     11 C11        -0.8570    1.5730    0.7760 ca        1 438      0.112100
     12 C12        -0.8820    0.4610    1.6240 ca        1 438     -0.122000
     13 C13        -2.0350    0.2190    2.3710 ca        1 438     -0.097000
     14 C14        -3.1290    1.0780    2.2910 ca        1 438     -0.147000
     15 O15         0.2650    1.9580    0.0370 os        1 438     -0.371400
     16 N16         0.6220   -0.2090   -0.8850 nb        1 438     -0.710000
     17 C17         1.1250    0.9420   -0.3800 ca        1 438      0.619600
     18 C18         2.5060    1.2520   -0.2900 ca        1 438     -0.062400
     19 C19         3.4610    0.3030   -0.7680 ca        1 438      0.099600
     20 C20         2.9520   -0.9250   -1.2550 ca        1 438      0.026600
     21 C21         1.5270   -1.1390   -1.2510 ca        1 438      0.709600
     22 F22         2.8870    2.4330    0.2520 f         1 438     -0.138900
     23 N23         4.8700    0.5050   -0.7880 nh        1 438     -0.609000
     24 F24         3.7560   -1.9100   -1.7030 f         1 438     -0.110900
     25 O25         1.1460   -2.3570   -1.7770 os        1 438     -0.353400
     26 C26        -0.1250   -2.8540   -1.4540 ca        1 438      0.140100
     27 C27        -0.8850   -3.2240   -2.5730 ca        1 438     -0.164000
     28 C28        -2.1220   -3.8740   -2.3910 ca        1 438      0.098600
     29 N29        -2.8500   -4.2990   -3.5460 nh        1 438     -0.633000
     30 C30        -2.5630   -4.1190   -1.0740 ca        1 438     -0.195000
     31 C31        -1.7900   -3.7320    0.0140 ca        1 438     -0.080000
     32 C32        -0.5570   -3.0870   -0.1440 ca        1 438     -0.139600
     33 C33         0.2020   -2.6670    1.1010 c         1 438      0.915200
     34 O34        -0.3990   -2.7380    2.2110 o         1 438     -0.829800
     35 O35         1.3870   -2.2400    0.9800 o         1 438     -0.829800
     36 C36        -3.3090   -3.2160   -4.3870 c3        1 438      0.171600
     37 C37        -3.8620   -5.2990   -3.3090 c3        1 438      0.171600
     38 C38         5.3620    1.8550   -1.0340 c3        1 438      0.170800
     39 C39         6.0480    2.3730    0.2700 c3        1 438      0.148500
     40 C40         6.4280    1.0750    1.0160 c3        1 438     -0.095400
     41 C41         5.5710   -0.0340    0.3860 c3        1 438      0.166800
     42 N42         7.1740    3.2760    0.0240 n3        1 438     -0.723600
     43 C43         6.8090    4.3960   -0.8160 c3        1 438      0.154600
     44 C44         7.8080    3.7030    1.2530 c3        1 438      0.154600
     45 HN1        -8.8220    4.0690   -0.1680 hn        1 438      0.344300
     46 HN1A       -8.4020    2.5840   -0.6740 hn        1 438      0.344300
     47 H2         -8.6080    3.4000    2.1360 h1        1 438      0.055700
     48 H2A        -8.0100    1.8000    1.5090 h1        1 438      0.055700
     49 H6         -7.2990    5.5140    1.1500 ha        1 438      0.121000
     50 H8         -5.6990    1.5050    1.4240 ha        1 438      0.141000
     51 H10        -1.9010    3.3060   -0.0060 ha        1 438      0.138000
     52 H12        -0.0340   -0.2490    1.6940 ha        1 438      0.207000
     53 H13        -2.0630   -0.6810    3.0090 ha        1 438      0.168000
     54 H14        -4.0270    0.8790    2.8920 ha        1 438      0.123000
     55 H27        -0.4910   -3.0190   -3.5790 ha        1 438      0.138000
     56 H30        -3.5260   -4.6170   -0.8910 ha        1 438      0.116000
     57 H31        -2.1390   -3.9160    1.0450 ha        1 438      0.159000
     58 H36        -2.4820   -2.4740   -4.5290 h1        1 438      0.028200
     59 H36A       -3.5930   -3.6410   -5.3860 h1        1 438      0.028200
     60 H36B       -4.2020   -2.6780   -3.9650 h1        1 438      0.028200
     61 H37        -4.7750   -4.9020   -2.7850 h1        1 438      0.028200
     62 H37A       -4.1820   -5.7140   -4.3020 h1        1 438      0.028200
     63 H37B       -3.4270   -6.1280   -2.6930 h1        1 438      0.028200
     64 H38         6.1150    1.7630   -1.8660 h1        1 438      0.059700
     65 H38A        4.5530    2.5590   -1.3590 h1        1 438      0.059700
     66 H39         5.2520    2.9050    0.8770 h1        1 438      0.038700
     67 H40         7.5110    0.8300    0.8970 hc        1 438      0.050700
     68 H40A        6.2080    1.1750    2.1060 hc        1 438      0.050700
     69 H41         4.8560   -0.4630    1.1390 h1        1 438      0.066200
     70 H41A        6.2250   -0.8690    0.0130 h1        1 438      0.066200
     71 H43         5.9990    5.0400   -0.3740 h1        1 438      0.029033
     72 H43A        7.7170    5.0340   -0.9830 h1        1 438      0.029033
     73 H43B        6.4560    4.0120   -1.8080 h1        1 438      0.029033
     74 H44         8.1280    2.8020    1.8370 h1        1 438      0.029033
     75 H44A        8.7190    4.3060    0.9960 h1        1 438      0.029033
     76 H44B        7.1390    4.3300    1.9050 h1        1 438      0.029033
     77 H4         -3.0230    4.8980    1.2810 ha        1 438      0.139000
     78 H5         -4.9810    6.4340    1.1400 ha        1 438      0.124000
@<TRIPOS>BOND
     1    1    2 1   
     2    1   45 1   
     3    1   46 1   
     4    2    7 1   
     5    2   47 1   
     6    2   48 1   
     7    3    4 ar  
     8    3    8 ar  
     9    3    9 1   
    10    4    5 ar  
    11    4   77 1   
    12    5    6 ar  
    13    5   78 1   
    14    6    7 ar  
    15    6   49 1   
    16    7    8 ar  
    17    8   50 1   
    18    9   10 ar  
    19    9   14 ar  
    20   10   11 ar  
    21   10   51 1   
    22   11   12 ar  
    23   11   15 1   
    24   12   13 ar  
    25   12   52 1   
    26   13   14 ar  
    27   13   53 1   
    28   14   54 1   
    29   15   17 1   
    30   16   17 ar  
    31   16   21 ar  
    32   17   18 ar  
    33   18   19 ar  
    34   18   22 1   
    35   19   20 ar  
    36   19   23 1   
    37   20   21 ar  
    38   20   24 1   
    39   21   25 1   
    40   23   38 1   
    41   23   41 1   
    42   25   26 1   
    43   26   27 ar  
    44   26   32 ar  
    45   27   28 ar  
    46   27   55 1   
    47   28   29 1   
    48   28   30 ar  
    49   29   36 1   
    50   29   37 1   
    51   30   31 ar  
    52   30   56 1   
    53   31   32 ar  
    54   31   57 1   
    55   32   33 1   
    56   33   34 1   
    57   33   35 1   
    58   36   58 1   
    59   36   59 1   
    60   36   60 1   
    61   37   61 1   
    62   37   62 1   
    63   37   63 1   
    64   38   39 1   
    65   38   64 1   
    66   38   65 1   
    67   39   40 1   
    68   39   42 1   
    69   39   66 1   
    70   40   41 1   
    71   40   67 1   
    72   40   68 1   
    73   41   69 1   
    74   41   70 1   
    75   42   43 1   
    76   42   44 1   
    77   43   71 1   
    78   43   72 1   
    79   43   73 1   
    80   44   74 1   
    81   44   75 1   
    82   44   76 1   
@<TRIPOS>SUBSTRUCTURE
     1 438         1 TEMP              0 ****  ****    0 ROOT
