@<TRIPOS>MOLECULE
438
   81    85     1     0     0
SMALL
bcc


@<TRIPOS>ATOM
      1 N1          2.5190   -2.6270   -0.0950 n4        1 438     -0.844600
      2 C2          3.6480   -1.6350   -0.0970 c3        1 438      0.176100
      3 C3          4.3560    0.0330    3.2320 cp        1 438      0.000000
      4 C4          5.1730   -0.9370    3.8340 ca        1 438     -0.075000
      5 C5          5.4780   -2.1230    3.1660 ca        1 438     -0.113000
      6 C6          4.9750   -2.3580    1.8890 ca        1 438     -0.116000
      7 C7          4.1510   -1.4010    1.2840 ca        1 438     -0.196300
      8 C8          3.8390   -0.2120    1.9510 ca        1 438     -0.090000
      9 C9          4.0720    1.2880    3.9240 cp        1 438     -0.069000
     10 C10         3.8540    1.2890    5.3080 ca        1 438     -0.123000
     11 C11         3.6570    2.5120    5.9640 ca        1 438      0.111100
     12 C12         3.6460    3.7280    5.2730 ca        1 438     -0.116000
     13 C13         3.8380    3.7030    3.8920 ca        1 438     -0.109000
     14 C14         4.0520    2.5010    3.2200 ca        1 438     -0.129000
     15 O15         3.6120    2.4120    7.3560 os        1 438     -0.360400
     16 N16         1.6550    3.7680    7.5850 nb        1 438     -0.648000
     17 C17         2.8250    3.3080    8.0680 ca        1 438      0.625600
     18 C18         3.3530    3.6270    9.3610 ca        1 438     -0.005400
     19 C19         2.5720    4.3970   10.2590 ca        1 438      0.101600
     20 C20         1.2910    4.8230    9.7810 ca        1 438      0.068600
     21 C21         0.9390    4.5410    8.4320 ca        1 438      0.591600
     22 F22         4.5960    3.1950    9.6690 f         1 438     -0.133900
     23 N23         2.9460    4.7990   11.5710 nh        1 438     -0.580000
     24 F24         0.4400    5.5210   10.5550 f         1 438     -0.091900
     25 O25        -0.3030    5.0110    7.9960 os        1 438     -0.355400
     26 C26        -0.3040    6.1780    7.2330 ca        1 438      0.158100
     27 C27        -1.5710    6.4250    6.6750 ca        1 438     -0.148000
     28 C28        -1.7640    7.6050    5.9400 ca        1 438     -0.059400
     29 N29        -3.1070    7.8920    5.4050 n4        1 438     -0.541800
     30 C30        -0.7080    8.5060    5.7330 ca        1 438     -0.133000
     31 C31         0.5350    8.2250    6.2910 ca        1 438     -0.070000
     32 C32         0.7590    7.0770    7.0590 ca        1 438     -0.102600
     33 C33         2.1480    6.9320    7.6830 c         1 438      0.914200
     34 O34         3.0510    6.3900    6.9970 o         1 438     -0.804800
     35 O35         2.3000    7.3970    8.8450 o         1 438     -0.804800
     36 C36        -3.0870    7.9950    3.9210 c3        1 438      0.090100
     37 C37        -3.6720    9.1240    6.0190 c3        1 438      0.090100
     38 C38         4.1010    4.1920   12.2060 c3        1 438      0.157800
     39 C39         5.2960    5.2000   12.0620 c3        1 438      0.070500
     40 C40         4.6120    6.5690   11.8630 c3        1 438     -0.123400
     41 C41         3.1120    6.2580   11.7120 c3        1 438      0.138800
     42 N42         6.2460    5.1640   13.2270 n4        1 438     -0.669400
     43 C43         6.7460    3.7870   13.4730 c3        1 438      0.083100
     44 C44         7.3850    6.0950   13.0060 c3        1 438      0.083100
     45 HN1         2.8320   -3.5010    0.3430 hn        1 438      0.458133
     46 HN1A        2.2100   -2.8190   -1.0510 hn        1 438      0.458133
     47 H2          3.2610   -0.6820   -0.5610 hx        1 438      0.112700
     48 H2A         4.4640   -2.0580   -0.7530 hx        1 438      0.112700
     49 H8          3.2000    0.5470    1.4720 ha        1 438      0.144000
     50 H10         3.8500    0.3530    5.8850 ha        1 438      0.148000
     51 H12         3.4950    4.6890    5.8040 ha        1 438      0.220000
     52 H13         3.8370    4.6520    3.3320 ha        1 438      0.151000
     53 H14         4.2310    2.5080    2.1350 ha        1 438      0.130000
     54 H27        -2.3760    5.6940    6.8470 ha        1 438      0.157000
     55 H30        -0.8450    9.4300    5.1510 ha        1 438      0.142000
     56 H31         1.3730    8.9290    6.1420 ha        1 438      0.176000
     57 H36        -2.6660    7.0460    3.4940 hx        1 438      0.101367
     58 H36A       -4.1330    8.1560    3.5490 hx        1 438      0.101367
     59 H36B       -2.4380    8.8570    3.6140 hx        1 438      0.101367
     60 H37        -3.6920    9.0010    7.1360 hx        1 438      0.101367
     61 H37A       -3.0250   10.0030    5.7580 hx        1 438      0.101367
     62 H37B       -4.7120    9.2860    5.6300 hx        1 438      0.101367
     63 H38         4.3650    3.1860   11.7920 h1        1 438      0.080700
     64 H38A        3.8260    4.0680   13.2930 h1        1 438      0.080700
     65 H39         5.8960    4.9240   11.1450 hx        1 438      0.119700
     66 H40         4.9990    7.0560   10.9310 hc        1 438      0.086200
     67 H40A        4.7690    7.2730   12.7160 hc        1 438      0.086200
     68 H41         2.5530    6.5560   12.6410 h1        1 438      0.118700
     69 H41A        2.6740    6.8190   10.8330 h1        1 438      0.118700
     70 H43         7.4790    3.8050   14.3240 hx        1 438      0.104867
     71 H43A        7.2530    3.4020   12.5480 hx        1 438      0.104867
     72 H43B        5.8850    3.1150   13.7330 hx        1 438      0.104867
     73 H44         7.9880    5.7460   12.1260 hx        1 438      0.104867
     74 H44A        8.0320    6.1130   13.9230 hx        1 438      0.104867
     75 H44B        6.9910    7.1270   12.7990 hx        1 438      0.104867
     76 H4          5.5900   -0.7500    4.8380 ha        1 438      0.164000
     77 H5          6.1310   -2.8710    3.6450 ha        1 438      0.161000
     78 H131        1.7320   -2.2600    0.4500 hn        1 438      0.458133
     79 H291       -3.7180    7.1020    5.6600 hn        1 438      0.447800
     80 H421        5.7290    5.4770   14.0610 hn        1 438      0.448800
     81 H6          5.2450   -3.2810    1.3550 ha        1 438      0.135000
@<TRIPOS>BOND
     1    1    2 1   
     2    1   45 1   
     3    1   46 1   
     4    1   78 1   
     5    2    7 1   
     6    2   47 1   
     7    2   48 1   
     8    3    4 ar  
     9    3    8 ar  
    10    3    9 1   
    11    4    5 ar  
    12    4   76 1   
    13    5    6 ar  
    14    5   77 1   
    15    6    7 ar  
    16    6   81 1   
    17    7    8 ar  
    18    8   49 1   
    19    9   10 ar  
    20    9   14 ar  
    21   10   11 ar  
    22   10   50 1   
    23   11   12 ar  
    24   11   15 1   
    25   12   13 ar  
    26   12   51 1   
    27   13   14 ar  
    28   13   52 1   
    29   14   53 1   
    30   15   17 1   
    31   16   17 ar  
    32   16   21 ar  
    33   17   18 ar  
    34   18   19 ar  
    35   18   22 1   
    36   19   20 ar  
    37   19   23 1   
    38   20   21 ar  
    39   20   24 1   
    40   21   25 1   
    41   23   38 1   
    42   23   41 1   
    43   25   26 1   
    44   26   27 ar  
    45   26   32 ar  
    46   27   28 ar  
    47   27   54 1   
    48   28   29 1   
    49   28   30 ar  
    50   29   36 1   
    51   29   37 1   
    52   29   79 1   
    53   30   31 ar  
    54   30   55 1   
    55   31   32 ar  
    56   31   56 1   
    57   32   33 1   
    58   33   34 1   
    59   33   35 1   
    60   36   57 1   
    61   36   58 1   
    62   36   59 1   
    63   37   60 1   
    64   37   61 1   
    65   37   62 1   
    66   38   39 1   
    67   38   63 1   
    68   38   64 1   
    69   39   40 1   
    70   39   42 1   
    71   39   65 1   
    72   40   41 1   
    73   40   66 1   
    74   40   67 1   
    75   41   68 1   
    76   41   69 1   
    77   42   43 1   
    78   42   44 1   
    79   42   80 1   
    80   43   70 1   
    81   43   71 1   
    82   43   72 1   
    83   44   73 1   
    84   44   74 1   
    85   44   75 1   
@<TRIPOS>SUBSTRUCTURE
     1 438         1 TEMP              0 ****  ****    0 ROOT
