@<TRIPOS>MOLECULE
438
   78    71     1     0     0
SMALL
bcc


@<TRIPOS>ATOM
      1 N1          5.3350   -4.2160   -8.3340 n3        1 438     -0.334000
      2 C2          5.4880   -2.9890   -7.5890 c3        1 438     -0.050000
      3 C3          2.4620   -1.8720   -5.4730 c1        1 438     -0.005000
      4 C4          1.5240   -1.6030   -6.4500 c1        1 438     -0.125000
      5 C5          1.8590   -1.7520   -7.7990 c1        1 438     -0.125000
      6 C6          3.1430   -2.1730   -8.1590 c1        1 438     -0.142000
      7 C7          4.0760   -2.4410   -7.1880 c2        1 438     -0.129000
      8 C8          3.7420   -2.2920   -5.8350 c2        1 438     -0.114000
      9 C9          2.2020   -1.5100   -4.1420 c1        1 438     -0.061000
     10 C10         1.2480   -2.1870   -3.4230 c1        1 438     -0.137000
     11 C11         1.0400   -1.8790   -2.0650 c1        1 438      0.061000
     12 C12         1.7990   -0.8930   -1.4540 c1        1 438     -0.110000
     13 C13         2.7580   -0.2130   -2.1780 c1        1 438     -0.125000
     14 C14         2.9630   -0.5200   -3.5290 c1        1 438     -0.125000
     15 O15         0.1380   -2.6270   -1.3130 os        1 438     -0.156000
     16 N16        -1.7170   -1.2330   -0.5770 n1        1 438     -0.140000
     17 C17        -0.4820   -1.7800   -0.3240 c1        1 438      0.134000
     18 C18         0.0720   -1.6910    0.9620 c1        1 438     -0.014000
     19 C19        -0.6270   -1.0520    1.9740 c1        1 438      0.086000
     20 C20        -1.8620   -0.5070    1.7170 c1        1 438     -0.008000
     21 C21        -2.4140   -0.5970    0.4310 c1        1 438      0.173000
     22 F22         1.2150   -2.3690    1.2530 f         1 438     -0.101000
     23 N23        -0.0780   -1.0090    3.3300 n3        1 438     -0.229000
     24 F24        -2.5190    0.1470    2.6810 f         1 438     -0.101000
     25 O25        -3.7910   -0.1220    0.1840 os        1 438     -0.165000
     26 C26        -4.0330    1.0970    0.9440 c2        1 438      0.095000
     27 C27        -4.9800    1.0970    1.9990 c2        1 438     -0.193000
     28 C28        -5.2300    2.2620    2.7040 c1        1 438      0.014000
     29 N29        -6.1390    2.2430    3.8370 n2        1 438     -0.232000
     30 C30        -4.5480    3.4420    2.3780 c2        1 438     -0.170000
     31 C31        -3.6040    3.4450    1.3290 c1        1 438     -0.084000
     32 C32        -3.3490    2.2750    0.6160 c1        1 438     -0.121000
     33 C33        -2.4700    2.3300   -0.6850 c2        1 438      0.364000
     34 O34        -2.8690    3.0080   -1.7040 o         1 438     -0.566500
     35 O35        -1.3460    1.7310   -0.7200 o         1 438     -0.566500
     36 C36        -7.1570    1.1660    3.9580 c3        1 438     -0.106000
     37 C37        -6.0250    3.2400    4.8570 c3        1 438     -0.106000
     38 C38         1.4640   -0.7180    3.2660 c3        1 438     -0.054000
     39 C39         1.6010    0.5570    3.6670 c3        1 438     -0.035000
     40 C40         0.3490    0.8600    4.6400 c3        1 438     -0.167000
     41 C41        -0.7020    0.2040    4.1160 c3        1 438     -0.057000
     42 N42         2.8550    0.7190    4.3900 n3        1 438     -0.249000
     43 C43         3.9590    0.6800    3.4480 c3        1 438     -0.123000
     44 C44         2.8550    1.9310    5.0460 c3        1 438     -0.123000
     45 HN1         5.1460   -4.0170   -9.2260 hn        1 438      0.139000
     46 HN1A        4.6640   -4.6960   -7.9850 hn        1 438      0.139000
     47 H2          5.9580   -2.3160   -8.1490 h1        1 438      0.094500
     48 H2A         6.0160   -3.1650   -6.7750 h1        1 438      0.094500
     49 H4          0.5670   -1.4330   -6.1900 ha        1 438      0.136500
     50 H5          1.1980   -1.5630   -8.4890 ha        1 438      0.136500
     51 H6          3.3780   -2.2750   -9.1010 ha        1 438      0.120000
     52 H8          4.3870   -2.4780   -5.1640 ha        1 438      0.140000
     53 H10         0.6370   -2.8300   -3.8880 ha        1 438      0.136000
     54 H12         1.6220   -0.6440   -0.5190 ha        1 438      0.225000
     55 H13         3.2920    0.4810   -1.7490 ha        1 438      0.136500
     56 H14         3.6420   -0.0380   -4.0420 ha        1 438      0.136500
     57 H27        -5.4340    0.2440    2.2640 ha        1 438      0.134000
     58 H30        -4.7400    4.2820    2.8760 ha        1 438      0.122000
     59 H31        -3.1240    4.2780    1.1000 ha        1 438      0.146000
     60 H36        -7.8280    1.2710    3.2560 h1        1 438      0.067167
     61 H36A       -7.6000    1.2220    4.8550 h1        1 438      0.067167
     62 H36B       -6.7230    0.3000    3.8640 h1        1 438      0.067167
     63 H37        -6.8610    3.2590    5.3970 h1        1 438      0.067167
     64 H37A       -5.2640    3.0280    5.4380 h1        1 438      0.067167
     65 H37B       -5.8790    4.1530    4.4240 h1        1 438      0.067167
     66 H38         1.7840   -0.8210    2.3700 h1        1 438      0.105500
     67 H38A        1.9730   -1.3490    3.9020 h1        1 438      0.105500
     68 H39         1.5800    1.1780    2.8680 h1        1 438      0.071000
     69 H40         0.5420    0.5210    5.5690 hc        1 438      0.091500
     70 H40A        0.1580    1.8710    4.6650 hc        1 438      0.091500
     71 H41        -1.2070    0.8020    3.4940 h1        1 438      0.099500
     72 H41A       -1.3180   -0.1370    4.8640 h1        1 438      0.099500
     73 H43         3.7400    1.2600    2.6480 h1        1 438      0.069500
     74 H43A        4.7810    1.0200    3.8870 h1        1 438      0.069500
     75 H43B        4.1060   -0.2530    3.1490 h1        1 438      0.069500
     76 H44         2.4510    1.8280    5.9080 h1        1 438      0.069500
     77 H44A        2.3540    2.5720    4.5340 h1        1 438      0.069500
     78 H44B        3.8000    2.2540    5.1550 h1        1 438      0.069500
@<TRIPOS>BOND
     1    1    2 1   
     2    1   45 1   
     3    1   46 1   
     4    2    7 1   
     5    2   47 1   
     6    2   48 1   
     7    3    8 1   
     8    4    5 1   
     9    4   49 1   
    10    5   50 1   
    11    6    7 1   
    12    6   51 1   
    13    7    8 1   
    14    8   52 1   
    15    9   10 1   
    16   10   53 1   
    17   11   12 1   
    18   11   15 1   
    19   12   54 1   
    20   13   14 1   
    21   13   55 1   
    22   14   56 1   
    23   15   17 1   
    24   16   21 1   
    25   17   18 1   
    26   18   22 1   
    27   19   20 1   
    28   19   23 1   
    29   20   24 1   
    30   21   25 1   
    31   23   38 1   
    32   23   41 1   
    33   25   26 1   
    34   26   27 1   
    35   26   32 1   
    36   27   28 1   
    37   27   57 1   
    38   28   30 1   
    39   29   36 1   
    40   29   37 1   
    41   30   31 1   
    42   30   58 1   
    43   31   59 1   
    44   32   33 1   
    45   33   34 1   
    46   33   35 1   
    47   36   60 1   
    48   36   61 1   
    49   36   62 1   
    50   37   63 1   
    51   37   64 1   
    52   37   65 1   
    53   38   39 1   
    54   38   66 1   
    55   38   67 1   
    56   39   40 1   
    57   39   42 1   
    58   39   68 1   
    59   40   41 1   
    60   40   69 1   
    61   40   70 1   
    62   41   71 1   
    63   41   72 1   
    64   42   43 1   
    65   42   44 1   
    66   43   73 1   
    67   43   74 1   
    68   43   75 1   
    69   44   76 1   
    70   44   77 1   
    71   44   78 1   
@<TRIPOS>SUBSTRUCTURE
     1 438         1 TEMP              0 ****  ****    0 ROOT
