@<TRIPOS>MOLECULE
438
   80    85     1     0     0
SMALL
bcc


@<TRIPOS>ATOM
      1 N1         -0.2040    2.8370    2.5250 nz        1 438     -0.837600
      2 C2          0.7270    2.6590    1.3720 c3        1 438      0.169100
      3 C3          3.9570    1.5880    3.0310 cp        1 438     -0.003000
      4 C4          4.2200    0.3910    2.3460 ca        1 438     -0.083000
      5 C5          3.3330   -0.0750    1.3770 ca        1 438     -0.121000
      6 C6          2.1780    0.6450    1.0760 ca        1 438     -0.100000
      7 C7          1.9200    1.8470    1.7420 ca        1 438     -0.182300
      8 C8          2.8060    2.3180    2.7170 ca        1 438     -0.110000
      9 C9          4.8760    2.0750    4.0580 cp        1 438     -0.071000
     10 C10         4.3910    2.4070    5.3300 ca        1 438     -0.105000
     11 C11         5.2910    2.8510    6.3030 ca        1 438      0.125100
     12 C12         6.6550    3.0070    6.0160 ca        1 438     -0.114000
     13 C13         7.1210    2.6770    4.7450 ca        1 438     -0.120000
     14 C14         6.2420    2.2040    3.7720 ca        1 438     -0.117000
     15 O15         4.9070    3.0010    7.6320 os        1 438     -0.259200
     16 N16         3.2960    4.6660    7.1020 n2        1 438     -0.635200
     17 C17         4.1220    4.1050    7.9830 ce        1 438      0.350100
     18 C18         4.3060    4.4750    9.3420 cf        1 438     -0.180500
     19 C19         3.5190    5.5490    9.8700 cf        1 438      0.119000
     20 C20         2.6250    6.1840    9.0200 c2        1 438      0.004300
     21 C21         2.5100    5.7570    7.5750 c3        1 438      0.660000
     22 F22         5.2240    3.8180   10.1030 f         1 438     -0.205500
     23 N23         3.6110    5.9970   11.2290 nh        1 438     -0.581400
     24 F24         1.8330    7.2090    9.3990 f         1 438     -0.150500
     25 O25         1.0630    5.4520    7.4170 os        1 438     -0.352900
     26 C26         0.5620    5.4360    6.1600 ca        1 438      0.257100
     27 C27        -0.6220    4.7110    5.9240 ca        1 438     -0.234000
     28 C28        -1.2170    4.7480    4.6540 ca        1 438      0.120600
     29 N29        -2.3550    3.9480    4.3190 nh        1 438     -0.674000
     30 C30        -0.6110    5.5210    3.6270 ca        1 438     -0.304000
     31 C31         0.5590    6.2320    3.8740 ca        1 438     -0.015000
     32 C32         1.1620    6.1850    5.1260 ca        1 438     -0.253600
     33 C33         2.3490    6.9710    5.4780 c         1 438      0.762200
     34 O34         2.9980    7.7280    4.7570 o         1 438     -0.578500
     35 O35         2.7250    6.9570    6.7960 os        1 438     -0.433900
     36 C36        -2.7550    2.9870    5.3300 c3        1 438      0.147600
     37 C37        -3.4890    4.7070    3.8170 c3        1 438      0.147600
     38 C38         3.7610    4.9580   12.2320 c3        1 438      0.170800
     39 C39         5.2190    5.0440   12.8000 c3        1 438      0.069500
     40 C40         5.6730    6.4790   12.4790 c3        1 438     -0.118400
     41 C41         4.6480    7.0100   11.4580 c3        1 438      0.166800
     42 N42         5.2980    4.6930   14.2620 nx        1 438     -0.669400
     43 C43         4.7510    3.3340   14.5100 c3        1 438      0.084100
     44 C44         6.6960    4.7850   14.7550 c3        1 438      0.084100
     45 HN1        -0.5170    1.9310    2.8820 hn        1 438      0.464467
     46 HN1A       -1.0220    3.3900    2.2440 hn        1 438      0.464467
     47 H2          1.0490    3.6910    1.0390 hx        1 438      0.104700
     48 H2A         0.1500    2.1710    0.5340 hx        1 438      0.104700
     49 H8          2.6260    3.2750    3.2350 ha        1 438      0.149000
     50 H10         3.3220    2.3190    5.5700 ha        1 438      0.149000
     51 H12         7.3390    3.3750    6.7950 ha        1 438      0.153000
     52 H13         8.1890    2.7930    4.5070 ha        1 438      0.142000
     53 H14         6.6180    1.9400    2.7730 ha        1 438      0.136000
     54 H27        -1.0630    4.1590    6.7680 ha        1 438      0.164000
     55 H30        -1.1050    5.6440    2.6520 ha        1 438      0.127000
     56 H31         1.0110    6.8590    3.0860 ha        1 438      0.162000
     57 H36        -3.5480    2.3260    4.8880 h1        1 438      0.049367
     58 H36A       -1.8730    2.3560    5.6140 h1        1 438      0.049367
     59 H36B       -3.1690    3.4660    6.2580 h1        1 438      0.049367
     60 H37        -3.1500    5.4490    3.0500 h1        1 438      0.049367
     61 H37A       -4.0290    5.2620    4.6320 h1        1 438      0.049367
     62 H37B       -4.2050    3.9880    3.3390 h1        1 438      0.049367
     63 H38         3.5650    3.9330   11.8180 h1        1 438      0.073200
     64 H38A        3.0100    5.1790   13.0420 h1        1 438      0.073200
     65 H39         5.8690    4.3010   12.2500 hx        1 438      0.129700
     66 H40         6.7000    6.4680   12.0380 hc        1 438      0.067200
     67 H40A        5.6860    7.1420   13.3800 hc        1 438      0.067200
     68 H41         4.1300    7.9200   11.8700 h1        1 438      0.083700
     69 H41A        5.1610    7.3020   10.5020 h1        1 438      0.083700
     70 H43         5.3270    2.5830   13.9070 hx        1 438      0.102033
     71 H43A        4.8400    3.0920   15.6020 hx        1 438      0.102033
     72 H43B        3.6710    3.3050   14.2010 hx        1 438      0.102033
     73 H44         6.7170    4.5730   15.8570 hx        1 438      0.102033
     74 H44A        7.3330    4.0350   14.2140 hx        1 438      0.102033
     75 H44B        7.0940    5.8170   14.5590 hx        1 438      0.102033
     76 H4          5.1330   -0.1790    2.5820 ha        1 438      0.158000
     77 H5          3.5450   -1.0160    0.8460 ha        1 438      0.154000
     78 H131        0.2710    3.3430    3.2910 hn        1 438      0.464467
     79 H421        4.7240    5.3750   14.7780 hn        1 438      0.445800
     80 H6          1.4860    0.2730    0.3050 ha        1 438      0.139000
@<TRIPOS>BOND
     1    1    2 1   
     2    1   45 1   
     3    1   46 1   
     4    1   78 1   
     5    2    7 1   
     6    2   47 1   
     7    2   48 1   
     8    3    4 ar  
     9    3    8 ar  
    10    3    9 1   
    11    4    5 ar  
    12    4   76 1   
    13    5    6 ar  
    14    5   77 1   
    15    6    7 ar  
    16    6   80 1   
    17    7    8 ar  
    18    8   49 1   
    19    9   10 ar  
    20    9   14 ar  
    21   10   11 ar  
    22   10   50 1   
    23   11   12 ar  
    24   11   15 1   
    25   12   13 ar  
    26   12   51 1   
    27   13   14 ar  
    28   13   52 1   
    29   14   53 1   
    30   15   17 1   
    31   16   17 1   
    32   16   21 1   
    33   17   18 2   
    34   18   19 1   
    35   18   22 1   
    36   19   20 2   
    37   19   23 1   
    38   20   21 1   
    39   20   24 1   
    40   21   25 1   
    41   21   35 1   
    42   23   38 1   
    43   23   41 1   
    44   25   26 1   
    45   26   27 ar  
    46   26   32 ar  
    47   27   28 ar  
    48   27   54 1   
    49   28   29 1   
    50   28   30 ar  
    51   29   36 1   
    52   29   37 1   
    53   30   31 ar  
    54   30   55 1   
    55   31   32 ar  
    56   31   56 1   
    57   32   33 1   
    58   33   34 2   
    59   33   35 1   
    60   36   57 1   
    61   36   58 1   
    62   36   59 1   
    63   37   60 1   
    64   37   61 1   
    65   37   62 1   
    66   38   39 1   
    67   38   63 1   
    68   38   64 1   
    69   39   40 1   
    70   39   42 1   
    71   39   65 1   
    72   40   41 1   
    73   40   66 1   
    74   40   67 1   
    75   41   68 1   
    76   41   69 1   
    77   42   43 1   
    78   42   44 1   
    79   42   79 1   
    80   43   70 1   
    81   43   71 1   
    82   43   72 1   
    83   44   73 1   
    84   44   74 1   
    85   44   75 1   
@<TRIPOS>SUBSTRUCTURE
     1 438         1 TEMP              0 ****  ****    0 ROOT
