@<TRIPOS>MOLECULE
438
   80    85     1     0     0
SMALL
bcc


@<TRIPOS>ATOM
      1 N1         -0.2170    2.8250    2.5370 n4        1 438     -0.837600
      2 C2          0.7080    2.6640    1.3770 c3        1 438      0.169100
      3 C3          3.9610    1.6200    3.0110 cp        1 438     -0.003000
      4 C4          4.2330    0.4300    2.3190 ca        1 438     -0.083000
      5 C5          3.3450   -0.0410    1.3540 ca        1 438     -0.121000
      6 C6          2.1800    0.6680    1.0620 ca        1 438     -0.100000
      7 C7          1.9130    1.8630    1.7370 ca        1 438     -0.182300
      8 C8          2.7990    2.3400    2.7090 ca        1 438     -0.110000
      9 C9          4.8810    2.1130    4.0350 cp        1 438     -0.071000
     10 C10         4.3990    2.4340    5.3120 ca        1 438     -0.105000
     11 C11         5.3000    2.8830    6.2810 ca        1 438      0.125100
     12 C12         6.6610    3.0560    5.9870 ca        1 438     -0.114000
     13 C13         7.1220    2.7370    4.7120 ca        1 438     -0.120000
     14 C14         6.2430    2.2580    3.7420 ca        1 438     -0.117000
     15 O15         4.9230    3.0220    7.6130 os        1 438     -0.259200
     16 N16         3.2900    4.6720    7.1010 n2        1 438     -0.635200
     17 C17         4.1270    4.1160    7.9740 ce        1 438      0.350100
     18 C18         4.3160    4.4810    9.3340 cf        1 438     -0.180500
     19 C19         3.5200    5.5430    9.8720 cf        1 438      0.119000
     20 C20         2.6140    6.1720    9.0310 c2        1 438      0.004300
     21 C21         2.4940    5.7510    7.5850 c3        1 438      0.660000
     22 F22         5.2470    3.8320   10.0860 f         1 438     -0.205500
     23 N23         3.6150    5.9860   11.2330 nh        1 438     -0.581400
     24 F24         1.8130    7.1860    9.4200 f         1 438     -0.150500
     25 O25         1.0500    5.4310    7.4340 os        1 438     -0.352900
     26 C26         0.5420    5.4150    6.1800 ca        1 438      0.257100
     27 C27        -0.6360    4.6780    5.9470 ca        1 438     -0.234000
     28 C28        -1.2390    4.7150    4.6810 ca        1 438      0.120600
     29 N29        -2.3700    3.9040    4.3490 nh        1 438     -0.674000
     30 C30        -0.6470    5.5000    3.6540 ca        1 438     -0.304000
     31 C31         0.5160    6.2230    3.8970 ca        1 438     -0.015000
     32 C32         1.1270    6.1760    5.1460 ca        1 438     -0.253600
     33 C33         2.3080    6.9730    5.4940 c         1 438      0.762200
     34 O34         2.9430    7.7410    4.7730 o         1 438     -0.578500
     35 O35         2.6920    6.9570    6.8100 os        1 438     -0.433900
     36 C36        -2.7530    2.9340    5.3580 c3        1 438      0.147600
     37 C37        -3.5150    4.6530    3.8580 c3        1 438      0.147600
     38 C38         3.7850    4.9440   12.2290 c3        1 438      0.170800
     39 C39         5.2450    5.0460   12.7890 c3        1 438      0.069500
     40 C40         5.6780    6.4890   12.4730 c3        1 438     -0.118400
     41 C41         4.6400    7.0110   11.4600 c3        1 438      0.166800
     42 N42         5.3390    4.6880   14.2480 n4        1 438     -0.669400
     43 C43         4.8110    3.3210   14.4920 c3        1 438      0.084100
     44 C44         6.7390    4.7960   14.7320 c3        1 438      0.084100
     45 HN1        -0.5180    1.9140    2.8920 hn        1 438      0.464467
     46 HN1A       -1.0430    3.3700    2.2640 hn        1 438      0.464467
     47 H2          0.1320    2.1730    0.5410 hx        1 438      0.104700
     48 H2A         1.0160    3.7000    1.0480 hx        1 438      0.104700
     49 H8          2.6120    3.2920    3.2320 ha        1 438      0.149000
     50 H10         3.3330    2.3320    5.5580 ha        1 438      0.149000
     51 H12         7.3450    3.4270    6.7630 ha        1 438      0.153000
     52 H13         8.1880    2.8650    4.4680 ha        1 438      0.142000
     53 H14         6.6160    2.0040    2.7390 ha        1 438      0.136000
     54 H27        -1.0660    4.1180    6.7910 ha        1 438      0.164000
     55 H30        -1.1490    5.6220    2.6830 ha        1 438      0.127000
     56 H31         0.9560    6.8580    3.1090 ha        1 438      0.162000
     57 H36        -3.5420    2.2670    4.9180 h1        1 438      0.049367
     58 H36A       -3.1670    3.4040    6.2900 h1        1 438      0.049367
     59 H36B       -1.8620    2.3120    5.6340 h1        1 438      0.049367
     60 H37        -3.1890    5.4020    3.0910 h1        1 438      0.049367
     61 H37A       -4.2270    3.9290    3.3810 h1        1 438      0.049367
     62 H37B       -4.0560    5.1990    4.6780 h1        1 438      0.049367
     63 H38         3.0370    5.1520   13.0460 h1        1 438      0.073200
     64 H38A        3.5980    3.9180   11.8120 h1        1 438      0.073200
     65 H39         5.9010    4.3140   12.2290 hx        1 438      0.129700
     66 H40         6.7020    6.4930   12.0250 hc        1 438      0.067200
     67 H40A        5.6890    7.1470   13.3770 hc        1 438      0.067200
     68 H41         5.1440    7.3140   10.5020 h1        1 438      0.083700
     69 H41A        4.1140    7.9130   11.8800 h1        1 438      0.083700
     70 H43         5.3940    2.5800   13.8810 hx        1 438      0.102033
     71 H43A        4.9100    3.0740   15.5820 hx        1 438      0.102033
     72 H43B        3.7300    3.2780   14.1900 hx        1 438      0.102033
     73 H44         7.3820    4.0580   14.1830 hx        1 438      0.102033
     74 H44A        6.7700    4.5780   15.8320 hx        1 438      0.102033
     75 H44B        7.1210    5.8350   14.5400 hx        1 438      0.102033
     76 H4          5.1540   -0.1310    2.5470 ha        1 438      0.158000
     77 H5          3.5640   -0.9770    0.8160 ha        1 438      0.154000
     78 H131        0.2560    3.3330    3.3030 hn        1 438      0.464467
     79 H421        4.7590    5.3590   14.7710 hn        1 438      0.445800
     80 H6          1.4870    0.2910    0.2950 ha        1 438      0.139000
@<TRIPOS>BOND
     1    1    2 1   
     2    1   45 1   
     3    1   46 1   
     4    1   78 1   
     5    2    7 1   
     6    2   47 1   
     7    2   48 1   
     8    3    4 ar  
     9    3    8 ar  
    10    3    9 1   
    11    4    5 ar  
    12    4   76 1   
    13    5    6 ar  
    14    5   77 1   
    15    6    7 ar  
    16    6   80 1   
    17    7    8 ar  
    18    8   49 1   
    19    9   10 ar  
    20    9   14 ar  
    21   10   11 ar  
    22   10   50 1   
    23   11   12 ar  
    24   11   15 1   
    25   12   13 ar  
    26   12   51 1   
    27   13   14 ar  
    28   13   52 1   
    29   14   53 1   
    30   15   17 1   
    31   16   17 1   
    32   16   21 1   
    33   17   18 2   
    34   18   19 1   
    35   18   22 1   
    36   19   20 2   
    37   19   23 1   
    38   20   21 1   
    39   20   24 1   
    40   21   25 1   
    41   21   35 1   
    42   23   38 1   
    43   23   41 1   
    44   25   26 1   
    45   26   27 ar  
    46   26   32 ar  
    47   27   28 ar  
    48   27   54 1   
    49   28   29 1   
    50   28   30 ar  
    51   29   36 1   
    52   29   37 1   
    53   30   31 ar  
    54   30   55 1   
    55   31   32 ar  
    56   31   56 1   
    57   32   33 1   
    58   33   34 2   
    59   33   35 1   
    60   36   57 1   
    61   36   58 1   
    62   36   59 1   
    63   37   60 1   
    64   37   61 1   
    65   37   62 1   
    66   38   39 1   
    67   38   63 1   
    68   38   64 1   
    69   39   40 1   
    70   39   42 1   
    71   39   65 1   
    72   40   41 1   
    73   40   66 1   
    74   40   67 1   
    75   41   68 1   
    76   41   69 1   
    77   42   43 1   
    78   42   44 1   
    79   42   79 1   
    80   43   70 1   
    81   43   71 1   
    82   43   72 1   
    83   44   73 1   
    84   44   74 1   
    85   44   75 1   
@<TRIPOS>SUBSTRUCTURE
     1 438         1 TEMP              0 ****  ****    0 ROOT
