@<TRIPOS>MOLECULE
439
   61    64     1     0     0
SMALL
bcc


@<TRIPOS>ATOM
      1 O3         -1.0360   -0.6430    1.4600 o         1 439     -0.589500
      2 C25         0.1460   -0.4020    1.1890 c         1 439      0.683500
      3 N2          1.1790   -0.0780    2.0670 n         1 439     -0.370000
      4 C8          1.1260   -0.0560    3.4680 ca        1 439      0.124600
      5 C7         -0.0920   -0.2850    4.1620 ca        1 439     -0.149000
      6 C9          2.2990    0.2160    4.2160 ca        1 439     -0.180000
      7 C10         2.2740    0.2460    5.6090 ca        1 439     -0.058000
      8 C11         1.0880   -0.0120    6.2800 ca        1 439     -0.207300
      9 C6         -0.0940   -0.2500    5.5440 ca        1 439     -0.020300
     10 C5         -1.2760   -0.3770    6.4450 c3        1 439     -0.051100
     11 C4         -0.7550   -0.0150    7.8400 c3        1 439     -0.101400
     12 C3          0.7990    0.0400    7.7540 c3        1 439      0.194800
     13 N1          1.4390   -1.0950    8.5380 n4        1 439     -0.681400
     14 C2          2.8780   -1.2680    8.2230 c3        1 439      0.081100
     15 C1          1.2660   -0.8770   10.0000 c3        1 439      0.081100
     16 C14         0.6870   -0.4170   -0.2690 c3        1 439      0.055500
     17 C13         2.1000    0.1850   -0.1600 c3        1 439     -0.105400
     18 C12         2.4130    0.2300    1.3490 c3        1 439      0.082000
     19 N3         -0.2130    0.2290   -1.2170 n3        1 439     -0.989800
     20 S1          0.0950   -0.5470   -3.4190 s4        1 439      1.677300
     21 O1          0.8390    0.5400   -3.7630 o         1 439     -0.441900
     22 O2          0.6600   -1.7140   -3.0090 o         1 439     -0.441900
     23 C15        -1.4040   -0.5410   -3.8140 ca        1 439     -0.633500
     24 C24        -2.0210    0.5430   -4.4660 ca        1 439      0.113000
     25 C23        -3.3600    0.5070   -4.8700 ca        1 439     -0.107000
     26 C18        -4.1410   -0.6610   -4.6140 ca        1 439      0.077000
     27 C17        -3.5230   -1.7620   -3.9480 ca        1 439     -0.108000
     28 C16        -2.2160   -1.7050   -3.5670 ca        1 439     -0.045000
     29 C22        -3.9670    1.6100   -5.5450 ca        1 439     -0.065000
     30 C21        -5.2770    1.5500   -5.9410 ca        1 439     -0.119000
     31 C20        -6.0500    0.3820   -5.6810 ca        1 439      0.101400
     32 CL1        -7.6550    0.3390   -6.1800 cl        1 439      0.006600
     33 C19        -5.4900   -0.7040   -5.0270 ca        1 439     -0.158000
     34 H14         0.7610   -1.5080   -0.5730 h1        1 439      0.129700
     35 H121        3.2030   -0.5290    1.6070 h1        1 439      0.078200
     36 H122        2.7810    1.2510    1.6450 h1        1 439      0.078200
     37 H7         -1.0340   -0.4770    3.6200 ha        1 439      0.189000
     38 H9          3.2570    0.4200    3.7120 ha        1 439      0.155000
     39 H10         3.1990    0.4930    6.1550 ha        1 439      0.144000
     40 H3          1.1950    0.9930    8.2090 hx        1 439      0.111700
     41 H51C       -1.6900   -1.4180    6.4200 hc        1 439      0.088700
     42 H52C       -2.0970    0.3200    6.1350 hc        1 439      0.088700
     43 H41C       -1.1340   -0.7440    8.5980 hc        1 439      0.082200
     44 H42C       -1.1180    1.0020    8.1370 hc        1 439      0.082200
     45 H21C        2.9910   -1.6000    7.1560 hx        1 439      0.105200
     46 H22C        3.4160   -0.2950    8.3770 hx        1 439      0.105200
     47 H23C        3.3150   -2.0490    8.9040 hx        1 439      0.105200
     48 H11C        0.1810   -0.7080   10.2360 hx        1 439      0.105200
     49 H12C        1.8600    0.0210   10.3180 hx        1 439      0.105200
     50 H13C        1.6320   -1.7830   10.5550 hx        1 439      0.105200
     51 H131        2.1640    1.2150   -0.5940 hc        1 439      0.088700
     52 H132        2.8430   -0.4600   -0.6920 hc        1 439      0.088700
     53 HA         -1.1690    0.0500   -0.9390 hn        1 439      0.411800
     54 H24        -1.4230    1.4530   -4.6790 ha        1 439      0.168000
     55 H16        -1.7440   -2.5720   -3.0690 ha        1 439      0.167000
     56 H22        -3.3620    2.5100   -5.7470 ha        1 439      0.162000
     57 H17        -4.1260   -2.6670   -3.7560 ha        1 439      0.177000
     58 H19        -6.0850   -1.6120   -4.8280 ha        1 439      0.179000
     59 H21        -5.7470    2.4000   -6.4660 ha        1 439      0.184000
     60 H11         0.9480   -1.9610    8.2770 hn        1 439      0.448800
     61 H32        -0.0620    1.2260   -1.2240 hn        1 439      0.411800
@<TRIPOS>BOND
     1    1    2 2   
     2    2    3 1   
     3    2   16 1   
     4    3    4 1   
     5    3   18 1   
     6    4    5 ar  
     7    4    6 ar  
     8    5    9 ar  
     9    5   37 1   
    10    6    7 ar  
    11    6   38 1   
    12    7    8 ar  
    13    7   39 1   
    14    8    9 ar  
    15    8   12 1   
    16    9   10 1   
    17   10   11 1   
    18   10   41 1   
    19   10   42 1   
    20   11   12 1   
    21   11   43 1   
    22   11   44 1   
    23   12   13 1   
    24   12   40 1   
    25   13   14 1   
    26   13   15 1   
    27   13   60 1   
    28   14   45 1   
    29   14   46 1   
    30   14   47 1   
    31   15   48 1   
    32   15   49 1   
    33   15   50 1   
    34   16   17 1   
    35   16   19 1   
    36   16   34 1   
    37   17   18 1   
    38   17   51 1   
    39   17   52 1   
    40   18   35 1   
    41   18   36 1   
    42   19   53 1   
    43   19   61 1   
    44   20   21 1   
    45   20   22 1   
    46   20   23 1   
    47   23   24 ar  
    48   23   28 ar  
    49   24   25 ar  
    50   24   54 1   
    51   25   26 ar  
    52   25   29 ar  
    53   26   27 ar  
    54   26   33 ar  
    55   27   28 ar  
    56   27   57 1   
    57   28   55 1   
    58   29   30 ar  
    59   29   56 1   
    60   30   31 ar  
    61   30   59 1   
    62   31   32 1   
    63   31   33 ar  
    64   33   58 1   
@<TRIPOS>SUBSTRUCTURE
     1 439         1 TEMP              0 ****  ****    0 ROOT
