@<TRIPOS>MOLECULE
439
   59    55     1     0     0
SMALL
bcc


@<TRIPOS>ATOM
      1 O3         -2.0870   -2.0210    0.2120 o         1 439     -0.317000
      2 C25        -0.8810   -1.7820   -0.0000 c1        1 439      0.293000
      3 N2          0.1480   -1.4840    1.0360 n2        1 439     -0.283000
      4 C8         -0.0060   -0.5640    2.1960 c2        1 439      0.089000
      5 C7         -0.9510   -0.8470    3.1960 c2        1 439     -0.150000
      6 C9          0.7560    0.6060    2.2660 c1        1 439     -0.191000
      7 C10         0.5750    1.4950    3.3320 c1        1 439     -0.076000
      8 C11        -0.3620    1.2150    4.3230 c1        1 439     -0.106000
      9 C6         -1.1280    0.0400    4.2550 c1        1 439     -0.052000
     10 C5         -1.9410   -0.0800    5.5640 c3        1 439     -0.121000
     11 C4         -1.5610    1.0310    6.4400 c3        1 439     -0.190000
     12 C3         -0.5590    1.8320    5.7300 c3        1 439      0.028000
     13 N1          0.6860    1.8100    6.4530 n3        1 439     -0.258000
     14 C2          1.3450    3.0670    6.2950 c3        1 439     -0.120000
     15 C1          0.4210    1.5690    7.8880 c3        1 439     -0.120000
     16 C14        -0.1440   -2.0170   -1.2900 c3        1 439      0.021000
     17 C13         1.2330   -2.4550   -0.8180 c3        1 439     -0.194000
     18 C12         1.2910   -2.2110    0.6950 c3        1 439     -0.028000
     19 N3         -0.1190   -0.8580   -2.1810 n3        1 439     -0.869000
     20 S1         -1.3990   -0.5120   -3.0940 s4        1 439      2.075800
     21 O1         -2.4740   -1.4430   -2.8590 o         1 439     -0.533400
     22 O2         -2.0070    0.7220   -2.6910 o         1 439     -0.533400
     23 C15        -0.9300   -0.4680   -4.8460 c1        1 439     -0.229750
     24 C24         0.4160   -0.4180   -5.2710 c2        1 439     -0.052500
     25 C23         0.7200   -0.3160   -6.6550 c1        1 439     -0.229750
     26 C18        -0.2820   -0.2680   -7.5690 c1        1 439     -0.229750
     27 C17        -1.6520   -0.3190   -7.1360 c1        1 439     -0.099750
     28 C16        -1.9520   -0.4180   -5.7800 c1        1 439     -0.099750
     29 C22         2.0800   -0.2630   -7.0830 c1        1 439     -0.099750
     30 C21         2.3810   -0.1600   -8.4410 c1        1 439     -0.099750
     31 C20         1.3560   -0.1100   -9.3780 c1        1 439     -0.229750
     32 CL1         1.5270    0.3390  -11.1040 cl        1 439     -0.002000
     33 C19         0.0240   -0.1630   -8.9580 c2        1 439     -0.052500
     34 H14        -0.5750   -2.6890   -1.8480 h1        1 439      0.151000
     35 H121        1.2970   -3.0570    1.1660 h1        1 439      0.095000
     36 H122        2.0800   -1.7070    0.9160 h1        1 439      0.095000
     37 H7         -1.5690   -1.5890    3.0810 ha        1 439      0.174000
     38 H9          1.3410    0.8640    1.5000 ha        1 439      0.129000
     39 H10         1.0990    2.3010    3.3800 ha        1 439      0.146000
     40 H3         -0.8760    2.7620    5.6430 h1        1 439      0.104000
     41 H51C       -2.9340   -0.0310    5.3580 hc        1 439      0.097500
     42 H52C       -1.7360   -0.9240    5.9990 hc        1 439      0.097500
     43 H41C       -1.1590    0.6660    7.2750 hc        1 439      0.086500
     44 H42C       -2.2970    1.5470    6.6070 hc        1 439      0.086500
     45 H21C        1.7250    3.1330    5.3610 h1        1 439      0.071833
     46 H22C        0.7080    3.7850    6.4360 h1        1 439      0.071833
     47 H23C        2.0760    3.1410    6.9540 h1        1 439      0.071833
     48 H11C        1.2760    1.5070    8.3730 h1        1 439      0.071833
     49 H12C       -0.1130    2.3140    8.2550 h1        1 439      0.071833
     50 H13C       -0.0720    0.7340    7.9910 h1        1 439      0.071833
     51 H131        1.9300   -1.9220   -1.2720 hc        1 439      0.105500
     52 H132        1.3630   -3.4000   -1.0050 hc        1 439      0.105500
     53 HA          0.5950   -0.3490   -2.2170 hn        1 439      0.247000
     54 H24         1.1090   -0.4170   -4.6370 ha        1 439      0.155500
     55 H16        -2.8800   -0.4160   -5.4860 ha        1 439      0.148500
     56 H22         2.7970   -0.2980   -6.4260 ha        1 439      0.148500
     57 H17        -2.3690   -0.2850   -7.7890 ha        1 439      0.148500
     58 H19        -0.6810   -0.1270   -9.6010 ha        1 439      0.155500
     59 H21         3.3410   -0.0950   -8.7390 ha        1 439      0.148500
@<TRIPOS>BOND
     1    1    2 1   
     2    2   16 1   
     3    3    4 1   
     4    3   18 1   
     5    4    5 1   
     6    4    6 1   
     7    5    9 1   
     8    5   37 1   
     9    6   38 1   
    10    7    8 1   
    11    7   39 1   
    12    8   12 1   
    13    9   10 1   
    14   10   11 1   
    15   10   41 1   
    16   10   42 1   
    17   11   12 1   
    18   11   43 1   
    19   11   44 1   
    20   12   13 1   
    21   12   40 1   
    22   13   14 1   
    23   13   15 1   
    24   14   45 1   
    25   14   46 1   
    26   14   47 1   
    27   15   48 1   
    28   15   49 1   
    29   15   50 1   
    30   16   17 1   
    31   16   19 1   
    32   16   34 1   
    33   17   18 1   
    34   17   51 1   
    35   17   52 1   
    36   18   35 1   
    37   18   36 1   
    38   19   20 1   
    39   19   53 1   
    40   20   21 1   
    41   20   22 1   
    42   23   24 1   
    43   23   28 1   
    44   24   25 1   
    45   24   54 1   
    46   25   29 1   
    47   26   27 1   
    48   26   33 1   
    49   27   57 1   
    50   28   55 1   
    51   29   56 1   
    52   30   31 1   
    53   30   59 1   
    54   31   33 1   
    55   33   58 1   
@<TRIPOS>SUBSTRUCTURE
     1 439         1 TEMP              0 ****  ****    0 ROOT
