@<TRIPOS>MOLECULE
439
   61    64     1     0     0
SMALL
bcc


@<TRIPOS>ATOM
      1 O3         -1.0230   -0.6620    1.4410 o         1 439     -0.589500
      2 C25         0.1510   -0.3770    1.1770 c         1 439      0.683500
      3 N2          1.1710   -0.0320    2.0630 n         1 439     -0.370000
      4 C8          1.1130   -0.0350    3.4640 ca        1 439      0.124600
      5 C7         -0.0990   -0.3130    4.1510 ca        1 439     -0.149000
      6 C9          2.2740    0.2620    4.2210 ca        1 439     -0.180000
      7 C10         2.2450    0.2690    5.6140 ca        1 439     -0.058000
      8 C11         1.0650   -0.0370    6.2770 ca        1 439     -0.207300
      9 C6         -0.1060   -0.3000    5.5330 ca        1 439     -0.020300
     10 C5         -1.2860   -0.4790    6.4280 c3        1 439     -0.051100
     11 C4         -0.7810   -0.1240    7.8300 c3        1 439     -0.101400
     12 C3          0.7710   -0.0180    7.7500 c3        1 439      0.194800
     13 N1          1.4440   -1.1450    8.5180 n4        1 439     -0.681400
     14 C2          2.8890   -1.2680    8.2050 c3        1 439      0.081100
     15 C1          1.2600   -0.9570    9.9830 c3        1 439      0.081100
     16 C14         0.6960   -0.3490   -0.2800 c3        1 439      0.055500
     17 C13         2.0870    0.3000   -0.1560 c3        1 439     -0.105400
     18 C12         2.3950    0.3290    1.3540 c3        1 439      0.082000
     19 N3         -0.2230    0.2810   -1.2200 n3        1 439     -0.989800
     20 S1          0.1170   -0.4480   -3.4330 s4        1 439      1.677300
     21 O1          0.8210    0.6700   -3.7580 o         1 439     -0.441900
     22 O2          0.7230   -1.6010   -3.0400 o         1 439     -0.441900
     23 C15        -1.3810   -0.4920   -3.8310 ca        1 439     -0.633500
     24 C24        -2.0350    0.5800   -4.4670 ca        1 439      0.113000
     25 C23        -3.3720    0.5010   -4.8740 ca        1 439     -0.107000
     26 C18        -4.1100   -0.7000   -4.6390 ca        1 439      0.077000
     27 C17        -3.4530   -1.7880   -3.9900 ca        1 439     -0.108000
     28 C16        -2.1490   -1.6880   -3.6050 ca        1 439     -0.045000
     29 C22        -4.0170    1.5920   -5.5330 ca        1 439     -0.065000
     30 C21        -5.3240    1.4900   -5.9330 ca        1 439     -0.119000
     31 C20        -6.0540    0.2900   -5.6940 ca        1 439      0.101400
     32 CL1        -7.6550    0.1960   -6.1980 cl        1 439      0.006600
     33 C19        -5.4550   -0.7850   -5.0560 ca        1 439     -0.158000
     34 H14         0.8090   -1.4320   -0.6010 h1        1 439      0.129700
     35 H121        3.2100   -0.4070    1.6030 h1        1 439      0.078200
     36 H122        2.7280    1.3570    1.6690 h1        1 439      0.078200
     37 H7         -1.0330   -0.5260    3.6030 ha        1 439      0.189000
     38 H9          3.2270    0.5050    3.7240 ha        1 439      0.155000
     39 H10         3.1600    0.5360    6.1670 ha        1 439      0.144000
     40 H3          1.1360    0.9390    8.2220 hx        1 439      0.111700
     41 H51C       -2.1280    0.1970    6.1260 hc        1 439      0.088700
     42 H52C       -1.6670   -1.5320    6.3850 hc        1 439      0.088700
     43 H41C       -1.1770    0.8770    8.1430 hc        1 439      0.082200
     44 H42C       -1.1390   -0.8760    8.5750 hc        1 439      0.082200
     45 H21C        3.3960   -0.2820    8.3770 hx        1 439      0.105200
     46 H22C        3.0150   -1.5790    7.1330 hx        1 439      0.105200
     47 H23C        3.3480   -2.0460    8.8740 hx        1 439      0.105200
     48 H11C        1.8250   -0.0460   10.3180 hx        1 439      0.105200
     49 H12C        1.6530   -1.8600   10.5240 hx        1 439      0.105200
     50 H13C        0.1700   -0.8260   10.2180 hx        1 439      0.105200
     51 H131        2.8530   -0.3100   -0.6960 hc        1 439      0.088700
     52 H132        2.1170    1.3380   -0.5720 hc        1 439      0.088700
     53 HA         -0.1060    1.2830   -1.2100 hn        1 439      0.411800
     54 H24        -1.4720    1.5140   -4.6650 ha        1 439      0.168000
     55 H16        -1.6460   -2.5450   -3.1190 ha        1 439      0.167000
     56 H22        -3.4460    2.5160   -5.7200 ha        1 439      0.162000
     57 H17        -4.0230   -2.7170   -3.8130 ha        1 439      0.177000
     58 H19        -6.0170   -1.7170   -4.8730 ha        1 439      0.179000
     59 H21        -5.8240    2.3300   -6.4460 ha        1 439      0.184000
     60 H11         0.9810   -2.0220    8.2420 hn        1 439      0.448800
     61 H32        -1.1730    0.0650   -0.9470 hn        1 439      0.411800
@<TRIPOS>BOND
     1    1    2 2   
     2    2    3 1   
     3    2   16 1   
     4    3    4 1   
     5    3   18 1   
     6    4    5 ar  
     7    4    6 ar  
     8    5    9 ar  
     9    5   37 1   
    10    6    7 ar  
    11    6   38 1   
    12    7    8 ar  
    13    7   39 1   
    14    8    9 ar  
    15    8   12 1   
    16    9   10 1   
    17   10   11 1   
    18   10   41 1   
    19   10   42 1   
    20   11   12 1   
    21   11   43 1   
    22   11   44 1   
    23   12   13 1   
    24   12   40 1   
    25   13   14 1   
    26   13   15 1   
    27   13   60 1   
    28   14   45 1   
    29   14   46 1   
    30   14   47 1   
    31   15   48 1   
    32   15   49 1   
    33   15   50 1   
    34   16   17 1   
    35   16   19 1   
    36   16   34 1   
    37   17   18 1   
    38   17   51 1   
    39   17   52 1   
    40   18   35 1   
    41   18   36 1   
    42   19   53 1   
    43   19   61 1   
    44   20   21 1   
    45   20   22 1   
    46   20   23 1   
    47   23   24 ar  
    48   23   28 ar  
    49   24   25 ar  
    50   24   54 1   
    51   25   26 ar  
    52   25   29 ar  
    53   26   27 ar  
    54   26   33 ar  
    55   27   28 ar  
    56   27   57 1   
    57   28   55 1   
    58   29   30 ar  
    59   29   56 1   
    60   30   31 ar  
    61   30   59 1   
    62   31   32 1   
    63   31   33 ar  
    64   33   58 1   
@<TRIPOS>SUBSTRUCTURE
     1 439         1 TEMP              0 ****  ****    0 ROOT
