@<TRIPOS>MOLECULE
439
   61    64     1     0     0
SMALL
bcc


@<TRIPOS>ATOM
      1 O3         -1.0320   -0.6420    1.4650 o         1 439     -0.589500
      2 C25         0.1460   -0.3960    1.1840 c         1 439      0.683500
      3 N2          1.1860   -0.0690    2.0530 n         1 439     -0.370000
      4 C8          1.1450   -0.0500    3.4550 ca        1 439      0.124600
      5 C7         -0.0660   -0.2830    4.1590 ca        1 439     -0.149000
      6 C9          2.3240    0.2240    4.1930 ca        1 439     -0.180000
      7 C10         2.3110    0.2520    5.5870 ca        1 439     -0.058000
      8 C11         1.1310   -0.0110    6.2680 ca        1 439     -0.207300
      9 C6         -0.0560   -0.2510    5.5410 ca        1 439     -0.020300
     10 C5         -1.2290   -0.3820    6.4520 c3        1 439     -0.051100
     11 C4         -0.6980   -0.0210    7.8430 c3        1 439     -0.101400
     12 C3          0.8550    0.0380    7.7430 c3        1 439      0.194800
     13 N1          1.5050   -1.0960    8.5200 nx        1 439     -0.681400
     14 C2          2.9420   -1.2660    8.1920 c3        1 439      0.081100
     15 C1          1.3450   -0.8820    9.9840 c3        1 439      0.081100
     16 C14         0.6740   -0.4060   -0.2790 c3        1 439      0.055500
     17 C13         2.0850    0.2030   -0.1810 c3        1 439     -0.105400
     18 C12         2.4120    0.2450    1.3250 c3        1 439      0.082000
     19 N3         -0.2370    0.2390   -1.2180 n8        1 439     -0.989800
     20 S1          0.0540   -0.5320   -3.4240 s4        1 439      1.677300
     21 O1          0.7890    0.5600   -3.7720 o         1 439     -0.441900
     22 O2          0.6300   -1.6970   -3.0210 o         1 439     -0.441900
     23 C15        -1.4480   -0.5350   -3.8040 ca        1 439     -0.633500
     24 C24        -2.0770    0.5470   -4.4480 ca        1 439      0.113000
     25 C23        -3.4200    0.5040   -4.8390 ca        1 439     -0.107000
     26 C18        -4.1920   -0.6700   -4.5790 ca        1 439      0.077000
     27 C17        -3.5610   -1.7680   -3.9210 ca        1 439     -0.108000
     28 C16        -2.2500   -1.7040   -3.5520 ca        1 439     -0.045000
     29 C22        -4.0400    1.6050   -5.5070 ca        1 439     -0.065000
     30 C21        -5.3540    1.5370   -5.8900 ca        1 439     -0.119000
     31 C20        -6.1170    0.3640   -5.6250 ca        1 439      0.101400
     32 Cl1        -7.7260    0.3120   -6.1090 cl        1 439      0.006600
     33 C19        -5.5440   -0.7200   -4.9790 ca        1 439     -0.158000
     34 H14         0.7500   -1.4960   -0.5860 h1        1 439      0.129700
     35 H121        3.2070   -0.5110    1.5750 h1        1 439      0.078200
     36 H122        2.7780    1.2670    1.6210 h1        1 439      0.078200
     37 H7         -1.0130   -0.4770    3.6260 ha        1 439      0.189000
     38 H9          3.2770    0.4320    3.6810 ha        1 439      0.155000
     39 H10         3.2400    0.5000    6.1250 ha        1 439      0.144000
     40 H3          1.2540    0.9910    8.1970 hx        1 439      0.111700
     41 H51C       -2.0550    0.3130    6.1510 hc        1 439      0.088700
     42 H52C       -1.6410   -1.4240    6.4290 hc        1 439      0.088700
     43 H41C       -1.0680   -0.7520    8.6030 hc        1 439      0.082200
     44 H42C       -1.0610    0.9950    8.1460 hc        1 439      0.082200
     45 H21C        3.4790   -0.2920    8.3430 hx        1 439      0.105200
     46 H22C        3.3870   -2.0470    8.8670 hx        1 439      0.105200
     47 H23C        3.0460   -1.5950    7.1230 hx        1 439      0.105200
     48 H11C        0.2620   -0.7160   10.2300 hx        1 439      0.105200
     49 H12C        1.7180   -1.7880   10.5340 hx        1 439      0.105200
     50 H13C        1.9390    0.0170   10.2980 hx        1 439      0.105200
     51 H131        2.8260   -0.4380   -0.7210 hc        1 439      0.088700
     52 H132        2.1410    1.2340   -0.6130 hc        1 439      0.088700
     53 HA         -0.0900    1.2360   -1.2240 hn        1 439      0.411800
     54 H24        -1.4880    1.4610   -4.6660 ha        1 439      0.168000
     55 H16        -1.7680   -2.5680   -3.0600 ha        1 439      0.167000
     56 H22        -3.4420    2.5090   -5.7130 ha        1 439      0.162000
     57 H17        -4.1570   -2.6770   -3.7240 ha        1 439      0.177000
     58 H19        -6.1320   -1.6310   -4.7760 ha        1 439      0.179000
     59 H21        -5.8330    2.3850   -6.4100 ha        1 439      0.184000
     60 H11         1.0150   -1.9640    8.2620 hn        1 439      0.448800
     61 H32        -1.1900    0.0540   -0.9310 hn        1 439      0.411800
@<TRIPOS>BOND
     1    1    2 2   
     2    2    3 1   
     3    2   16 1   
     4    3    4 1   
     5    3   18 1   
     6    4    5 ar  
     7    4    6 ar  
     8    5    9 ar  
     9    5   37 1   
    10    6    7 ar  
    11    6   38 1   
    12    7    8 ar  
    13    7   39 1   
    14    8    9 ar  
    15    8   12 1   
    16    9   10 1   
    17   10   11 1   
    18   10   41 1   
    19   10   42 1   
    20   11   12 1   
    21   11   43 1   
    22   11   44 1   
    23   12   13 1   
    24   12   40 1   
    25   13   14 1   
    26   13   15 1   
    27   13   60 1   
    28   14   45 1   
    29   14   46 1   
    30   14   47 1   
    31   15   48 1   
    32   15   49 1   
    33   15   50 1   
    34   16   17 1   
    35   16   19 1   
    36   16   34 1   
    37   17   18 1   
    38   17   51 1   
    39   17   52 1   
    40   18   35 1   
    41   18   36 1   
    42   19   53 1   
    43   19   61 1   
    44   20   21 1   
    45   20   22 1   
    46   20   23 1   
    47   23   24 ar  
    48   23   28 ar  
    49   24   25 ar  
    50   24   54 1   
    51   25   26 ar  
    52   25   29 ar  
    53   26   27 ar  
    54   26   33 ar  
    55   27   28 ar  
    56   27   57 1   
    57   28   55 1   
    58   29   30 ar  
    59   29   56 1   
    60   30   31 ar  
    61   30   59 1   
    62   31   32 1   
    63   31   33 ar  
    64   33   58 1   
@<TRIPOS>SUBSTRUCTURE
     1 439         1 TEMP              0 ****  ****    0 ROOT
