@<TRIPOS>MOLECULE
439
   59    63     1     0     0
SMALL
bcc


@<TRIPOS>ATOM
      1 O3          0.1160    0.4480   -0.9630 o         1 439     -0.616500
      2 C25         0.2760    1.6020   -0.5420 c         1 439      0.685500
      3 N2          1.4560    2.1560   -0.0500 n         1 439     -0.375000
      4 C8          2.7250    1.5500    0.0220 ca        1 439      0.083600
      5 C7          2.9360    0.2280   -0.4450 ca        1 439     -0.151000
      6 C9          3.8140    2.2590    0.5790 ca        1 439     -0.188000
      7 C10         5.0840    1.6820    0.6590 ca        1 439     -0.090000
      8 C11         5.2880    0.3990    0.1800 ca        1 439     -0.114300
      9 C6          4.2010   -0.3240   -0.3540 ca        1 439     -0.047300
     10 C5          4.6090   -1.7020   -0.7500 c3        1 439     -0.038100
     11 C4          6.0670   -1.8400   -0.3040 c3        1 439     -0.077400
     12 C3          6.5420   -0.4420    0.2120 c3        1 439      0.240800
     13 N1          7.6790    0.0500   -0.5680 n3        1 439     -0.740600
     14 C2          7.8010    1.4810   -0.6760 c3        1 439      0.161100
     15 C1          8.9150   -0.5890   -0.1720 c3        1 439      0.161100
     16 C14        -0.8630    2.6670   -0.5090 c3        1 439      0.168500
     17 C13        -0.1890    3.9280    0.0770 c3        1 439     -0.111400
     18 C12         1.2770    3.5460    0.3410 c3        1 439      0.086000
     19 N3         -2.0190    2.2150    0.1960 n3        1 439     -0.895100
     20 S1         -3.4820    1.9910   -0.4850 sy        1 439      1.521200
     21 O1         -4.4480    2.7110    0.2490 o         1 439     -0.653300
     22 O2         -3.4030    2.2840   -1.8610 o         1 439     -0.653300
     23 C15        -3.7680    0.3510   -0.2410 ca        1 439     -0.391500
     24 C24        -4.8650   -0.0730    0.4850 ca        1 439      0.026000
     25 C23        -5.1510   -1.4500    0.6560 ca        1 439     -0.081000
     26 C18        -4.2880   -2.4120    0.0710 ca        1 439      0.021000
     27 C17        -3.1600   -1.9650   -0.6690 ca        1 439     -0.136000
     28 C16        -2.9110   -0.6240   -0.8170 ca        1 439     -0.031000
     29 C22        -6.2820   -1.8900    1.3990 ca        1 439     -0.088000
     30 C21        -6.5420   -3.2280    1.5530 ca        1 439     -0.134000
     31 C20        -5.6720   -4.1870    0.9650 ca        1 439      0.042400
     32 CL1        -6.0210   -5.8360    1.1730 cl        1 439     -0.083400
     33 C19        -4.5700   -3.7960    0.2390 ca        1 439     -0.131000
     34 H14        -1.1480    2.8570   -1.5900 h1        1 439      0.118700
     35 H121        1.5260    3.6660    1.4320 h1        1 439      0.056700
     36 H122        1.9700    4.2030   -0.2540 h1        1 439      0.056700
     37 H7          2.1120   -0.3650   -0.8740 ha        1 439      0.173000
     38 H9          3.6880    3.2810    0.9650 ha        1 439      0.130000
     39 H10         5.9090    2.2570    1.1060 ha        1 439      0.135000
     40 H3          6.8430   -0.5520    1.3000 h1        1 439      0.031700
     41 H51C        3.9610   -2.4690   -0.2550 hc        1 439      0.058700
     42 H52C        4.5130   -1.8360   -1.8570 hc        1 439      0.058700
     43 H41C        6.1520   -2.5780    0.5300 hc        1 439      0.051700
     44 H42C        6.6970   -2.2040   -1.1520 hc        1 439      0.051700
     45 H21C        7.9790    1.9920    0.3100 h1        1 439      0.031033
     46 H22C        8.6670    1.7140   -1.3530 h1        1 439      0.031033
     47 H23C        6.8680    1.8980   -1.1370 h1        1 439      0.031033
     48 H11C        8.7710   -1.7010   -0.1700 h1        1 439      0.031033
     49 H12C        9.7090   -0.3290   -0.9210 h1        1 439      0.031033
     50 H13C        9.2710   -0.2740    0.8480 h1        1 439      0.031033
     51 H131       -0.2480    4.7650   -0.6600 hc        1 439      0.071200
     52 H132       -0.6740    4.2690    1.0240 hc        1 439      0.071200
     53 HA         -1.8590    2.0420    1.1600 hn        1 439      0.448800
     54 H24        -5.5450    0.6710    0.9440 ha        1 439      0.162000
     55 H16        -2.0240   -0.2870   -1.3860 ha        1 439      0.169000
     56 H22        -6.9470   -1.1350    1.8470 ha        1 439      0.144000
     57 H17        -2.4900   -2.7130   -1.1190 ha        1 439      0.147000
     58 H19        -3.8940   -4.5340   -0.2200 ha        1 439      0.154000
     59 H21        -7.4160   -3.5730    2.1260 ha        1 439      0.152000
@<TRIPOS>BOND
     1    1    2 2   
     2    2    3 1   
     3    2   16 1   
     4    3    4 1   
     5    3   18 1   
     6    4    5 ar  
     7    4    6 ar  
     8    5    9 ar  
     9    5   37 1   
    10    6    7 ar  
    11    6   38 1   
    12    7    8 ar  
    13    7   39 1   
    14    8    9 ar  
    15    8   12 1   
    16    9   10 1   
    17   10   11 1   
    18   10   41 1   
    19   10   42 1   
    20   11   12 1   
    21   11   43 1   
    22   11   44 1   
    23   12   13 1   
    24   12   40 1   
    25   13   14 1   
    26   13   15 1   
    27   14   45 1   
    28   14   46 1   
    29   14   47 1   
    30   15   48 1   
    31   15   49 1   
    32   15   50 1   
    33   16   17 1   
    34   16   19 1   
    35   16   34 1   
    36   17   18 1   
    37   17   51 1   
    38   17   52 1   
    39   18   35 1   
    40   18   36 1   
    41   19   20 1   
    42   19   53 1   
    43   20   21 2   
    44   20   22 2   
    45   20   23 1   
    46   23   24 ar  
    47   23   28 ar  
    48   24   25 ar  
    49   24   54 1   
    50   25   26 ar  
    51   25   29 ar  
    52   26   27 ar  
    53   26   33 ar  
    54   27   28 ar  
    55   27   57 1   
    56   28   55 1   
    57   29   30 ar  
    58   29   56 1   
    59   30   31 ar  
    60   30   59 1   
    61   31   32 1   
    62   31   33 ar  
    63   33   58 1   
@<TRIPOS>SUBSTRUCTURE
     1 439         1 TEMP              0 ****  ****    0 ROOT
