@<TRIPOS>MOLECULE
43A
   41    44     1     0     0
SMALL
bcc


@<TRIPOS>ATOM
      1 C1          0.0420   -0.0440   -0.0230 ca        1 43A      0.117100
      2 C2          1.4410    0.1490    0.0640 ca        1 43A      0.040100
      3 C3          2.0810    0.1130    1.3020 ca        1 43A     -0.147000
      4 C4          1.3330   -0.1230    2.4650 cp        1 43A     -0.049000
      5 C5         -0.0510   -0.3150    2.3740 ca        1 43A     -0.111000
      6 C6         -0.6990   -0.2740    1.1430 ca        1 43A     -0.139000
      7 O7         -0.6450   -0.0130   -1.2120 oh        1 43A     -0.493100
      8 O8          2.0700    0.3860   -1.1480 os        1 43A     -0.348900
      9 C9          3.4930    0.3730   -1.1230 c3        1 43A      0.121700
     10 C10         2.0020   -0.1650    3.7650 cp        1 43A      0.001000
     11 C11         1.6380   -1.1570    4.6970 ca        1 43A     -0.155000
     12 C12         2.2890   -1.1750    5.9240 ca        1 43A      0.055600
     13 C13         3.3080   -0.2070    6.2430 ca        1 43A     -0.096800
     14 C14         3.6470    0.7580    5.3150 ca        1 43A     -0.083000
     15 C15         2.9920    0.7730    4.0770 ca        1 43A     -0.151000
     16 N16         2.1210   -2.0460    7.0130 ns        1 43A     -0.474100
     17 C17         3.0030   -1.6870    8.0540 c         1 43A      0.724700
     18 C18         3.7940   -0.4940    7.6000 cc        1 43A     -0.170400
     19 O19         3.0380   -2.3170    9.1230 o         1 43A     -0.649500
     20 C20         4.7510    0.2180    8.2240 cf        1 43A      0.054800
     21 C21         5.3430    0.0930    9.5170 cd        1 43A     -0.158100
     22 N22         5.0560   -0.8550   10.5070 na        1 43A     -0.134100
     23 C23         5.8570   -0.6160   11.6010 cd        1 43A     -0.127300
     24 C24         6.6810    0.5000   11.3330 cc        1 43A     -0.215000
     25 C25         6.3620    0.9480   10.0250 cc        1 43A     -0.140000
     26 H3          3.1680    0.2580    1.3750 ha        1 43A      0.143000
     27 H5         -0.6390   -0.4910    3.2880 ha        1 43A      0.140000
     28 H6         -1.7860   -0.4200    1.0670 ha        1 43A      0.154000
     29 HO7        -0.0050    0.1330   -1.9260 ho        1 43A      0.437000
     30 H91         3.7730    0.4780   -2.2010 h1        1 43A      0.046367
     31 H92         3.8780    1.2390   -0.5300 h1        1 43A      0.046367
     32 H93         3.8740   -0.5890   -0.7050 h1        1 43A      0.046367
     33 H11         0.8640   -1.8950    4.4450 ha        1 43A      0.144000
     34 H14         4.4190    1.5090    5.5380 ha        1 43A      0.135000
     35 H15         3.2550    1.5480    3.3410 ha        1 43A      0.137000
     36 H16         1.4880   -2.8010    7.0400 hn        1 43A      0.343500
     37 H20         5.1820    1.0710    7.6540 ha        1 43A      0.140000
     38 H22         4.3810   -1.5790   10.4240 hn        1 43A      0.334700
     39 H23         5.8020   -1.2370   12.4960 h4        1 43A      0.171000
     40 H24         7.4170    0.9270   12.0070 ha        1 43A      0.156000
     41 H25         6.8030    1.7870    9.4950 ha        1 43A      0.151000
@<TRIPOS>BOND
     1    1    2 ar  
     2    1    6 ar  
     3    1    7 1   
     4    2    3 ar  
     5    2    8 1   
     6    3    4 ar  
     7    3   26 1   
     8    4    5 ar  
     9    4   10 1   
    10    5    6 ar  
    11    5   27 1   
    12    6   28 1   
    13    7   29 1   
    14    8    9 1   
    15    9   30 1   
    16    9   31 1   
    17    9   32 1   
    18   10   11 ar  
    19   10   15 ar  
    20   11   12 ar  
    21   11   33 1   
    22   12   13 ar  
    23   12   16 1   
    24   13   14 ar  
    25   13   18 1   
    26   14   15 ar  
    27   14   34 1   
    28   15   35 1   
    29   16   17 1   
    30   16   36 1   
    31   17   18 1   
    32   17   19 2   
    33   18   20 2   
    34   20   21 1   
    35   20   37 1   
    36   21   22 1   
    37   21   25 2   
    38   22   23 1   
    39   22   38 1   
    40   23   24 2   
    41   23   39 1   
    42   24   25 1   
    43   24   40 1   
    44   25   41 1   
@<TRIPOS>SUBSTRUCTURE
     1 43A         1 TEMP              0 ****  ****    0 ROOT
