@<TRIPOS>MOLECULE
43A
   41    44     1     0     0
SMALL
bcc


@<TRIPOS>ATOM
      1 C1          0.1560   -0.1220   -0.0940 ca        1 43A      0.108100
      2 C2          1.5440    0.1510    0.0180 ca        1 43A      0.101100
      3 C3          2.1550    0.1220    1.2710 ca        1 43A     -0.163000
      4 C4          1.4030   -0.1820    2.4170 cp        1 43A     -0.043000
      5 C5          0.0370   -0.4530    2.2980 ca        1 43A     -0.111000
      6 C6         -0.5860   -0.4210    1.0510 ca        1 43A     -0.191000
      7 O7         -0.3890   -0.0750   -1.3540 oh        1 43A     -0.473100
      8 O8          2.1880    0.4370   -1.1690 os        1 43A     -0.303900
      9 C9          3.5900    0.6620   -1.0780 c3        1 43A      0.109700
     10 C10         2.0530   -0.2110    3.7280 cp        1 43A      0.001000
     11 C11         1.7350   -1.2440    4.6320 ca        1 43A     -0.155000
     12 C12         2.3660   -1.2480    5.8700 ca        1 43A      0.055600
     13 C13         3.3170   -0.2270    6.2270 ca        1 43A     -0.096800
     14 C14         3.6120    0.7770    5.3250 ca        1 43A     -0.083000
     15 C15         2.9780    0.7790    4.0760 ca        1 43A     -0.150000
     16 N16         2.2330   -2.1500    6.9380 n         1 43A     -0.474100
     17 C17         3.0760   -1.7620    8.0010 c         1 43A      0.724700
     18 C18         3.7990   -0.5120    7.5860 cc        1 43A     -0.170400
     19 O19         3.1350   -2.4130    9.0570 o         1 43A     -0.649500
     20 C20         4.6990    0.2450    8.2420 cf        1 43A      0.054800
     21 C21         5.2750    0.1290    9.5420 cd        1 43A     -0.158100
     22 N22         5.0330   -0.8570   10.5060 na        1 43A     -0.134100
     23 C23         5.7990   -0.5920   11.6190 cd        1 43A     -0.127300
     24 C24         6.5550    0.5800   11.3900 cc        1 43A     -0.215000
     25 C25         6.2280    1.0350   10.0860 cc        1 43A     -0.140000
     26 H3          3.2310    0.3270    1.3730 ha        1 43A      0.145000
     27 H5         -0.5570   -0.6850    3.1950 ha        1 43A      0.139000
     28 H6         -1.6620   -0.6300    0.9660 ha        1 43A      0.137000
     29 HO7        -1.3340   -0.2750   -1.2710 ho        1 43A      0.415000
     30 H91         3.8900    0.8430   -2.1420 h1        1 43A      0.044700
     31 H92         3.8060    1.5610   -0.4510 h1        1 43A      0.044700
     32 H93         4.1120   -0.2370   -0.6680 h1        1 43A      0.044700
     33 H11         1.0140   -2.0230    4.3510 ha        1 43A      0.144000
     34 H14         4.3320    1.5690    5.5760 ha        1 43A      0.136000
     35 H15         3.2050    1.5830    3.3600 ha        1 43A      0.137000
     36 H16         1.6560   -2.9490    6.9350 hn        1 43A      0.342500
     37 H20         5.0840    1.1350    7.6970 ha        1 43A      0.141000
     38 H22         4.4070   -1.6210   10.3950 hn        1 43A      0.334700
     39 H23         5.7690   -1.2360   12.5000 h4        1 43A      0.171000
     40 H24         7.2500    1.0370   12.0870 ha        1 43A      0.156000
     41 H25         6.6240    1.9120    9.5830 ha        1 43A      0.151000
@<TRIPOS>BOND
     1    1    2 ar  
     2    1    6 ar  
     3    1    7 1   
     4    2    3 ar  
     5    2    8 1   
     6    3    4 ar  
     7    3   26 1   
     8    4    5 ar  
     9    4   10 1   
    10    5    6 ar  
    11    5   27 1   
    12    6   28 1   
    13    7   29 1   
    14    8    9 1   
    15    9   30 1   
    16    9   31 1   
    17    9   32 1   
    18   10   11 ar  
    19   10   15 ar  
    20   11   12 ar  
    21   11   33 1   
    22   12   13 ar  
    23   12   16 1   
    24   13   14 ar  
    25   13   18 1   
    26   14   15 ar  
    27   14   34 1   
    28   15   35 1   
    29   16   17 1   
    30   16   36 1   
    31   17   18 1   
    32   17   19 2   
    33   18   20 2   
    34   20   21 1   
    35   20   37 1   
    36   21   22 1   
    37   21   25 2   
    38   22   23 1   
    39   22   38 1   
    40   23   24 2   
    41   23   39 1   
    42   24   25 1   
    43   24   40 1   
    44   25   41 1   
@<TRIPOS>SUBSTRUCTURE
     1 43A         1 TEMP              0 ****  ****    0 ROOT
