@<TRIPOS>MOLECULE
43A
   41    44     1     0     0
SMALL
bcc


@<TRIPOS>ATOM
      1 C1          0.0460   -0.0800   -0.0260 ca        1 43A      0.117100
      2 C2          1.4440    0.1230    0.0610 ca        1 43A      0.040100
      3 C3          2.0830    0.0940    1.2990 ca        1 43A     -0.147000
      4 C4          1.3360   -0.1420    2.4630 cp        1 43A     -0.049000
      5 C5         -0.0470   -0.3430    2.3710 ca        1 43A     -0.111000
      6 C6         -0.6940   -0.3100    1.1390 ca        1 43A     -0.139000
      7 O7         -0.6390   -0.0570   -1.2160 oh        1 43A     -0.493100
      8 O8          2.0730    0.3590   -1.1510 os        1 43A     -0.348900
      9 C9          3.4960    0.3480   -1.1250 c3        1 43A      0.120700
     10 C10         2.0040   -0.1740    3.7640 cp        1 43A      0.001000
     11 C11         1.6450   -1.1660    4.6980 ca        1 43A     -0.155000
     12 C12         2.2950   -1.1760    5.9260 ca        1 43A      0.055600
     13 C13         3.3070   -0.2000    6.2440 ca        1 43A     -0.096800
     14 C14         3.6400    0.7650    5.3130 ca        1 43A     -0.083000
     15 C15         2.9860    0.7710    4.0740 ca        1 43A     -0.151000
     16 N16         2.1320   -2.0450    7.0180 n         1 43A     -0.474100
     17 C17         3.0110   -1.6760    8.0590 c         1 43A      0.724700
     18 C18         3.7940   -0.4790    7.6020 cc        1 43A     -0.170400
     19 O19         3.0500   -2.3030    9.1300 o         1 43A     -0.649500
     20 C20         4.7440    0.2430    8.2250 cf        1 43A      0.054800
     21 C21         5.3350    0.1260    9.5190 cd        1 43A     -0.158100
     22 N22         5.0550   -0.8220   10.5110 na        1 43A     -0.134100
     23 C23         5.8520   -0.5720   11.6060 cd        1 43A     -0.127300
     24 C24         6.6680    0.5490   11.3360 cc        1 43A     -0.215000
     25 C25         6.3460    0.9910   10.0260 cc        1 43A     -0.140000
     26 H3          3.1690    0.2470    1.3740 ha        1 43A      0.143000
     27 H5         -0.6340   -0.5200    3.2850 ha        1 43A      0.140000
     28 H6         -1.7800   -0.4630    1.0630 ha        1 43A      0.154000
     29 HO7         0.0010    0.0900   -1.9300 ho        1 43A      0.437000
     30 H91         3.8800    1.2160   -0.5360 h1        1 43A      0.046367
     31 H92         3.7760    0.4490   -2.2040 h1        1 43A      0.046367
     32 H93         3.8790   -0.6120   -0.7040 h1        1 43A      0.046367
     33 H11         0.8770   -1.9110    4.4480 ha        1 43A      0.144000
     34 H14         4.4060    1.5220    5.5340 ha        1 43A      0.135000
     35 H15         3.2450    1.5450    3.3360 ha        1 43A      0.137000
     36 H16         1.5050   -2.8040    7.0460 hn        1 43A      0.343500
     37 H20         5.1700    1.0970    7.6520 ha        1 43A      0.140000
     38 H22         4.3860   -1.5520   10.4290 hn        1 43A      0.334700
     39 H23         5.8010   -1.1920   12.5030 h4        1 43A      0.171000
     40 H24         7.3990    0.9840   12.0100 ha        1 43A      0.156000
     41 H25         6.7820    1.8320    9.4950 ha        1 43A      0.151000
@<TRIPOS>BOND
     1    1    2 ar  
     2    1    6 ar  
     3    1    7 1   
     4    2    3 ar  
     5    2    8 1   
     6    3    4 ar  
     7    3   26 1   
     8    4    5 ar  
     9    4   10 1   
    10    5    6 ar  
    11    5   27 1   
    12    6   28 1   
    13    7   29 1   
    14    8    9 1   
    15    9   30 1   
    16    9   31 1   
    17    9   32 1   
    18   10   11 ar  
    19   10   15 ar  
    20   11   12 ar  
    21   11   33 1   
    22   12   13 ar  
    23   12   16 1   
    24   13   14 ar  
    25   13   18 1   
    26   14   15 ar  
    27   14   34 1   
    28   15   35 1   
    29   16   17 1   
    30   16   36 1   
    31   17   18 1   
    32   17   19 2   
    33   18   20 2   
    34   20   21 1   
    35   20   37 1   
    36   21   22 1   
    37   21   25 2   
    38   22   23 1   
    39   22   38 1   
    40   23   24 2   
    41   23   39 1   
    42   24   25 1   
    43   24   40 1   
    44   25   41 1   
@<TRIPOS>SUBSTRUCTURE
     1 43A         1 TEMP              0 ****  ****    0 ROOT
