@<TRIPOS>MOLECULE
43A
   41    44     1     0     0
SMALL
bcc


@<TRIPOS>ATOM
      1 C1          5.6830   -0.6370   -0.1840 ca        1 43A      0.117100
      2 C2          5.0690    0.6350   -0.0970 ca        1 43A      0.040100
      3 C3          3.6800    0.7460   -0.0800 ca        1 43A     -0.147000
      4 C4          2.8880   -0.4110   -0.1450 cp        1 43A     -0.049000
      5 C5          3.5010   -1.6670   -0.2310 ca        1 43A     -0.111000
      6 C6          4.8870   -1.7860   -0.2540 ca        1 43A     -0.139000
      7 O7          7.0450   -0.8090   -0.2110 oh        1 43A     -0.493100
      8 O8          5.9510    1.7030   -0.0520 os        1 43A     -0.348900
      9 C9          5.3780    2.9700    0.2520 c3        1 43A      0.121700
     10 C10         1.4300   -0.2970   -0.1250 cp        1 43A      0.001000
     11 C11         0.6790   -1.2010    0.6520 ca        1 43A     -0.155000
     12 C12        -0.7050   -1.0720    0.6550 ca        1 43A      0.055600
     13 C13        -1.3600   -0.0460   -0.1160 ca        1 43A     -0.096800
     14 C14        -0.6030    0.8280   -0.8720 ca        1 43A     -0.083000
     15 C15         0.7910    0.6980   -0.8720 ca        1 43A     -0.151000
     16 N16        -1.6730   -1.8290    1.3350 n         1 43A     -0.474100
     17 C17        -2.9610   -1.3350    1.0400 c         1 43A      0.724700
     18 C18        -2.8090   -0.1760    0.0980 cc        1 43A     -0.170400
     19 O19        -3.9810   -1.8450    1.5310 o         1 43A     -0.649500
     20 C20        -3.7290    0.6220   -0.4750 cf        1 43A      0.054800
     21 C21        -5.1540    0.6480   -0.3880 cd        1 43A     -0.158100
     22 N22        -5.9870   -0.1970    0.3540 na        1 43A     -0.134100
     23 C23        -7.2970    0.1770    0.1530 cd        1 43A     -0.127300
     24 C24        -7.3320    1.2790   -0.7310 cc        1 43A     -0.215000
     25 C25        -5.9870    1.5780   -1.0730 cc        1 43A     -0.140000
     26 H3          3.1970    1.7310   -0.0080 ha        1 43A      0.143000
     27 H5          2.8790   -2.5740   -0.2900 ha        1 43A      0.140000
     28 H6          5.3720   -2.7710   -0.3260 ha        1 43A      0.154000
     29 HO7         7.4610    0.0640   -0.1360 ho        1 43A      0.437000
     30 H91         6.2680    3.6440    0.3390 h1        1 43A      0.046367
     31 H92         4.7110    3.3040   -0.5800 h1        1 43A      0.046367
     32 H93         4.8140    2.9300    1.2150 h1        1 43A      0.046367
     33 H11         1.1850   -1.9780    1.2420 ha        1 43A      0.144000
     34 H14        -1.0810    1.6160   -1.4720 ha        1 43A      0.135000
     35 H15         1.3940    1.3880   -1.4810 ha        1 43A      0.137000
     36 H16        -1.4780   -2.5850    1.9360 hn        1 43A      0.343500
     37 H20        -3.3420    1.4200   -1.1460 ha        1 43A      0.140000
     38 H22        -5.6740   -0.9440    0.9310 hn        1 43A      0.334700
     39 H23        -8.1220   -0.3490    0.6370 h4        1 43A      0.171000
     40 H24        -8.2230    1.7920   -1.0760 ha        1 43A      0.156000
     41 H25        -5.6410    2.3670   -1.7340 ha        1 43A      0.151000
@<TRIPOS>BOND
     1    1    2 ar  
     2    1    6 ar  
     3    1    7 1   
     4    2    3 ar  
     5    2    8 1   
     6    3    4 ar  
     7    3   26 1   
     8    4    5 ar  
     9    4   10 1   
    10    5    6 ar  
    11    5   27 1   
    12    6   28 1   
    13    7   29 1   
    14    8    9 1   
    15    9   30 1   
    16    9   31 1   
    17    9   32 1   
    18   10   11 ar  
    19   10   15 ar  
    20   11   12 ar  
    21   11   33 1   
    22   12   13 ar  
    23   12   16 1   
    24   13   14 ar  
    25   13   18 1   
    26   14   15 ar  
    27   14   34 1   
    28   15   35 1   
    29   16   17 1   
    30   16   36 1   
    31   17   18 1   
    32   17   19 2   
    33   18   20 2   
    34   20   21 1   
    35   20   37 1   
    36   21   22 1   
    37   21   25 2   
    38   22   23 1   
    39   22   38 1   
    40   23   24 2   
    41   23   39 1   
    42   24   25 1   
    43   24   40 1   
    44   25   41 1   
@<TRIPOS>SUBSTRUCTURE
     1 43A         1 TEMP              0 ****  ****    0 ROOT
