@<TRIPOS>MOLECULE
43A
   41    32     1     0     0
SMALL
bcc


@<TRIPOS>ATOM
      1 C1         -2.4210    0.0730   -4.9940 c1        1 43A      0.054000
      2 C2         -2.8640    0.8280   -3.9260 c1        1 43A      0.031000
      3 C3         -2.1960    0.7660   -2.7030 c1        1 43A     -0.099000
      4 C4         -1.0880   -0.0530   -2.5620 c1        1 43A     -0.030000
      5 C5         -0.6450   -0.8090   -3.6330 c1        1 43A     -0.121000
      6 C6         -1.3120   -0.7470   -4.8500 c1        1 43A     -0.200000
      7 O7         -3.1520    0.0860   -6.2370 oh        1 43A     -0.247000
      8 O8         -4.0760    1.5850   -4.0430 os        1 43A     -0.213000
      9 C9         -3.8880    2.9090   -4.5890 c3        1 43A     -0.075000
     10 C10        -0.4040   -0.1030   -1.3380 c1        1 43A     -0.030000
     11 C11        -0.7980   -1.0270   -0.3780 c1        1 43A     -0.154000
     12 C12        -0.1260   -1.0870    0.8640 c1        1 43A      0.063000
     13 C13         0.9390   -0.2110    1.1250 c1        1 43A     -0.085000
     14 C14         1.3390    0.7300    0.1420 c1        1 43A     -0.083000
     15 C15         0.6770    0.7850   -1.0740 c1        1 43A     -0.121000
     16 N16        -0.3860   -1.8750    2.0980 n         1 43A     -0.328000
     17 C17         0.5990   -1.5130    3.0680 c2        1 43A      0.363000
     18 C18         1.4110   -0.4590    2.5030 c2        1 43A     -0.163000
     19 O19         0.7940   -2.0670    4.1230 o         1 43A     -0.374000
     20 C20         2.4520    0.1530    3.1070 c1        1 43A      0.043000
     21 C21         2.8610   -0.2510    4.5080 c1        1 43A     -0.112000
     22 N22         2.4780    0.3660    5.6600 n2        1 43A     -0.133000
     23 C23         3.1590   -0.2050    6.6910 c1        1 43A     -0.112000
     24 C24         3.9740   -1.1890    6.1720 c1        1 43A     -0.177500
     25 C25         3.7920   -1.2180    4.8320 c1        1 43A     -0.177500
     26 H3         -2.5070    1.2960   -1.9530 ha        1 43A      0.154000
     27 H5          0.1440   -1.3920   -3.5320 ha        1 43A      0.138500
     28 H6         -1.0100   -1.2600   -5.5780 ha        1 43A      0.137000
     29 HO7        -3.3500   -0.7590   -6.4800 ho        1 43A      0.219000
     30 H91        -4.7500    3.3860   -4.5940 h1        1 43A      0.084667
     31 H92        -3.2400    3.4060   -4.0320 h1        1 43A      0.084667
     32 H93        -3.5450    2.8400   -5.5100 h1        1 43A      0.084667
     33 H11        -1.5940   -1.5730   -0.5280 ha        1 43A      0.146000
     34 H14         2.0720    1.3340    0.3200 ha        1 43A      0.135000
     35 H15         0.9860    1.4100   -1.7780 ha        1 43A      0.138500
     36 H16        -1.0350   -2.5240    2.2010 hn        1 43A      0.257000
     37 H20         2.9280    0.8760    2.6470 ha        1 43A      0.140000
     38 H22         1.8750    1.0400    5.7280 DU        1 43A      0.190750
     39 H23         3.0860    0.0330    7.6090 DU        1 43A      0.190750
     40 H24         4.5910   -1.7770    6.6940 DU        1 43A      0.190750
     41 H25         4.2290   -1.8030    4.2180 DU        1 43A      0.190750
@<TRIPOS>BOND
     1    1    6 1   
     2    1    7 1   
     3    2    3 1   
     4    2    8 1   
     5    3   26 1   
     6    4    5 1   
     7    5   27 1   
     8    6   28 1   
     9    7   29 1   
    10    8    9 1   
    11    9   30 1   
    12    9   31 1   
    13    9   32 1   
    14   10   15 1   
    15   11   12 1   
    16   11   33 1   
    17   12   16 1   
    18   13   14 1   
    19   13   18 1   
    20   14   34 1   
    21   15   35 1   
    22   16   17 1   
    23   16   36 1   
    24   17   18 1   
    25   17   19 1   
    26   18   20 1   
    27   20   37 1   
    28   21   22 1   
    29   21   25 1   
    30   22   23 1   
    31   23   24 1   
    32   24   25 1   
@<TRIPOS>SUBSTRUCTURE
     1 43A         1 TEMP              0 ****  ****    0 ROOT
