@<TRIPOS>MOLECULE
43B
   78    83     1     0     0
SMALL
bcc


@<TRIPOS>ATOM
      1 C8         -9.2160    2.7210    0.1400 c3        1 43B     -0.032100
      2 C9         -9.5490    1.2630    0.4130 c3        1 43B     -0.096700
      3 C10        -8.5080    0.3470   -0.1210 cc        1 43B      0.375200
      4 S11        -8.9790   -0.8890   -1.2580 ss        1 43B     -0.039100
      5 C12        -7.3890   -1.4490   -1.3480 ca        1 43B     -0.085100
      6 C13        -6.5520   -0.6550   -0.4940 ca        1 43B      0.082400
      7 N14        -7.2250    0.3670    0.1970 nd        1 43B     -0.524100
      8 C15        -5.1760   -0.9350   -0.4020 ca        1 43B     -0.059000
      9 C16        -4.6450   -1.9830   -1.1490 cp        1 43B     -0.052000
     10 C17        -5.4790   -2.7570   -1.9870 ca        1 43B     -0.108000
     11 C18        -6.8350   -2.4960   -2.0860 ca        1 43B     -0.089000
     12 C19        -3.2170   -2.2900   -1.0690 cp        1 43B     -0.005000
     13 C20        -2.4950   -2.6210   -2.2250 ca        1 43B     -0.128000
     14 C21        -1.1360   -2.9120   -2.1470 ca        1 43B     -0.084500
     15 C22        -0.4830   -2.8900   -0.9080 ca        1 43B     -0.151600
     16 C23        -1.1950   -2.5550    0.2480 ca        1 43B     -0.084500
     17 C24        -2.5520   -2.2540    0.1660 ca        1 43B     -0.128000
     18 C25         0.9700   -3.2050   -0.8790 c         1 43B      0.710700
     19 N26         1.4690   -3.9290    0.2030 n         1 43B     -0.671300
     20 S27         3.0070   -4.5000    0.4420 sy        1 43B      1.525900
     21 C28         3.9260   -3.1170    0.6010 ca        1 43B     -0.477500
     22 O29         1.7390   -2.8540   -1.7930 o         1 43B     -0.586100
     23 O30         3.4420   -5.2370   -0.6660 o         1 43B     -0.641300
     24 O31         2.9690   -5.1760    1.6810 o         1 43B     -0.641300
     25 C32         4.2790   -2.6160    1.8480 ca        1 43B      0.104000
     26 C33         5.0940   -1.4800    1.9920 ca        1 43B     -0.309200
     27 C34         5.6010   -0.7990    0.8290 ca        1 43B      0.326600
     28 C35         5.2140   -1.3380   -0.4420 ca        1 43B     -0.257000
     29 C36         4.4100   -2.4460   -0.5430 ca        1 43B      0.075000
     30 N37         5.3830   -1.0420    3.3730 no        1 43B      0.328200
     31 O38         4.7840   -1.5630    4.2770 o         1 43B     -0.224500
     32 O39         6.2030   -0.1830    3.5910 o         1 43B     -0.224500
     33 N40         6.3920    0.3050    0.8990 nh        1 43B     -0.744600
     34 C41         6.8930    0.9780   -0.2750 c3        1 43B      0.217800
     35 C42         7.7680    2.1770    0.0700 c3        1 43B     -0.063300
     36 S43         8.2590    2.8580   -1.4840 ss        1 43B     -0.169000
     37 C44         9.2460    4.1830   -1.1000 ca        1 43B     -0.003100
     38 C45         9.7600    4.8760   -2.2080 ca        1 43B     -0.129500
     39 C46        10.5820    5.9830   -2.0230 ca        1 43B     -0.111500
     40 C47        10.9030    6.4120   -0.7330 ca        1 43B     -0.133000
     41 C48        10.3950    5.7270    0.3680 ca        1 43B     -0.111500
     42 C49         9.5700    4.6170    0.1870 ca        1 43B     -0.129500
     43 C1        -12.2690    5.3190    1.6630 ca        1 43B     -0.129000
     44 C2        -11.3670    4.7110    2.5360 ca        1 43B     -0.127500
     45 C3        -10.3770    3.8650    2.0400 ca        1 43B     -0.126000
     46 C4        -10.2820    3.6180    0.6650 ca        1 43B     -0.086300
     47 C5        -11.1890    4.2310   -0.2060 ca        1 43B     -0.126000
     48 C6        -12.1780    5.0790    0.2920 ca        1 43B     -0.127500
     49 HD1        -8.2370    2.9780    0.6260 hc        1 43B      0.062700
     50 HD2        -9.0910    2.8750   -0.9650 hc        1 43B      0.062700
     51 HE1       -10.5370    1.0050   -0.0560 hc        1 43B      0.067700
     52 HE2        -9.6490    1.1050    1.5220 hc        1 43B      0.067700
     53 HF         -4.5330   -0.3210    0.2480 ha        1 43B      0.156000
     54 HG         -5.0380   -3.5860   -2.5630 ha        1 43B      0.141000
     55 HH         -7.4730   -3.1100   -2.7400 ha        1 43B      0.144000
     56 HI1        -3.0020   -2.6380   -3.2010 ha        1 43B      0.145500
     57 HJ1        -0.5630   -3.1540   -3.0570 ha        1 43B      0.148000
     58 HJ2        -0.6940   -2.5060    1.2270 ha        1 43B      0.148000
     59 HI2        -3.1100   -1.9920    1.0790 ha        1 43B      0.145500
     60 H26         0.7840   -4.1540    0.8940 hn        1 43B      0.338500
     61 HK          3.9130   -3.1390    2.7600 ha        1 43B      0.190000
     62 HL          5.5670   -0.8530   -1.3670 ha        1 43B      0.155000
     63 HM          4.1210   -2.8290   -1.5430 ha        1 43B      0.181000
     64 H40         6.6880    0.6600    1.7850 hn        1 43B      0.476800
     65 HN1         7.4970    0.2490   -0.8930 h1        1 43B      0.067200
     66 HN2         6.0190    1.3270   -0.9010 h1        1 43B      0.067200
     67 HO1         7.1990    2.9280    0.6720 h1        1 43B      0.081200
     68 HO2         8.6590    1.8640    0.6680 h1        1 43B      0.081200
     69 HP1         9.5080    4.5380   -3.2250 ha        1 43B      0.136500
     70 HQ1        10.9800    6.5200   -2.8970 ha        1 43B      0.136500
     71 HR         11.5530    7.2870   -0.5900 ha        1 43B      0.136000
     72 HQ2        10.6440    6.0590    1.3870 ha        1 43B      0.136500
     73 HP2         9.1790    4.0900    1.0700 ha        1 43B      0.136500
     74 HB1       -11.4350    4.9010    3.6170 ha        1 43B      0.132000
     75 HC1        -9.6630    3.3880    2.7290 ha        1 43B      0.132500
     76 HC2       -11.1200    4.0470   -1.2880 ha        1 43B      0.132500
     77 HB2       -12.8870    5.5580   -0.3990 ha        1 43B      0.132000
     78 HA        -13.0490    5.9880    2.0550 ha        1 43B      0.132000
@<TRIPOS>BOND
     1    1    2 1   
     2    1   46 1   
     3    1   49 1   
     4    1   50 1   
     5    2    3 1   
     6    2   51 1   
     7    2   52 1   
     8    3    4 1   
     9    3    7 2   
    10    4    5 1   
    11    5    6 ar  
    12    5   11 ar  
    13    6    7 1   
    14    6    8 ar  
    15    8    9 ar  
    16    8   53 1   
    17    9   10 ar  
    18    9   12 1   
    19   10   11 ar  
    20   10   54 1   
    21   11   55 1   
    22   12   13 ar  
    23   12   17 ar  
    24   13   14 ar  
    25   13   56 1   
    26   14   15 ar  
    27   14   57 1   
    28   15   16 ar  
    29   15   18 1   
    30   16   17 ar  
    31   16   58 1   
    32   17   59 1   
    33   18   19 1   
    34   18   22 2   
    35   19   20 1   
    36   19   60 1   
    37   20   21 1   
    38   20   23 2   
    39   20   24 2   
    40   21   25 ar  
    41   21   29 ar  
    42   25   26 ar  
    43   25   61 1   
    44   26   27 ar  
    45   26   30 1   
    46   27   28 ar  
    47   27   33 1   
    48   28   29 ar  
    49   28   62 1   
    50   29   63 1   
    51   30   31 1   
    52   30   32 1   
    53   33   34 1   
    54   33   64 1   
    55   34   35 1   
    56   34   65 1   
    57   34   66 1   
    58   35   36 1   
    59   35   67 1   
    60   35   68 1   
    61   36   37 1   
    62   37   38 ar  
    63   37   42 ar  
    64   38   39 ar  
    65   38   69 1   
    66   39   40 ar  
    67   39   70 1   
    68   40   41 ar  
    69   40   71 1   
    70   41   42 ar  
    71   41   72 1   
    72   42   73 1   
    73   43   44 ar  
    74   43   48 ar  
    75   43   78 1   
    76   44   45 ar  
    77   44   74 1   
    78   45   46 ar  
    79   45   75 1   
    80   46   47 ar  
    81   47   48 ar  
    82   47   76 1   
    83   48   77 1   
@<TRIPOS>SUBSTRUCTURE
     1 43B         1 TEMP              0 ****  ****    0 ROOT
