@<TRIPOS>MOLECULE
43B
   78    83     1     0     0
SMALL
bcc


@<TRIPOS>ATOM
      1 C8         -0.0370   -0.1580    0.1110 c3        1 43B     -0.032100
      2 C9          1.4720   -0.0410   -0.0310 c3        1 43B     -0.096700
      3 C10         2.1670   -0.2180    1.2700 cc        1 43B      0.375200
      4 S11         3.2150    1.0540    1.8430 ss        1 43B     -0.039100
      5 C12         3.5880    0.1590    3.2240 ca        1 43B     -0.085100
      6 C13         2.8850   -1.0930    3.1900 ca        1 43B      0.082400
      7 N14         2.0790   -1.2780    2.0550 nd        1 43B     -0.524100
      8 C15         3.0390   -2.0140    4.2430 ca        1 43B     -0.059000
      9 C16         3.8760   -1.6930    5.3090 cp        1 43B     -0.052000
     10 C17         4.5620   -0.4580    5.3320 ca        1 43B     -0.108000
     11 C18         4.4230    0.4570    4.3030 ca        1 43B     -0.089000
     12 C19         4.0500   -2.6360    6.4130 cp        1 43B     -0.005000
     13 C20         4.0900   -2.1800    7.7390 ca        1 43B     -0.128000
     14 C21         4.2550   -3.0780    8.7890 ca        1 43B     -0.084500
     15 C22         4.3950   -4.4470    8.5260 ca        1 43B     -0.151600
     16 C23         4.3490   -4.9100    7.2070 ca        1 43B     -0.084500
     17 C24         4.1740   -4.0110    6.1590 ca        1 43B     -0.128000
     18 C25         4.5640   -5.3660    9.6820 c         1 43B      0.710700
     19 N26         5.4210   -6.4570    9.5410 n         1 43B     -0.671300
     20 S27         5.8710   -7.5720   10.6830 sy        1 43B      1.525900
     21 C28         4.4560   -8.3860   11.0250 ca        1 43B     -0.477500
     22 O29         3.9790   -5.1790   10.7640 o         1 43B     -0.586100
     23 O30         6.3470   -6.9370   11.8370 o         1 43B     -0.641300
     24 O31         6.7620   -8.4470   10.0230 o         1 43B     -0.641300
     25 C32         4.1590   -9.6090   10.4350 ca        1 43B      0.104000
     26 C33         2.9940  -10.3260   10.7540 ca        1 43B     -0.309200
     27 C34         2.0650   -9.8080   11.7260 ca        1 43B      0.326600
     28 C35         2.3990   -8.5430   12.3110 ca        1 43B     -0.257000
     29 C36         3.5430   -7.8670   11.9690 ca        1 43B      0.075000
     30 N37         2.7880  -11.6070   10.0460 no        1 43B      0.328200
     31 O38         3.5220  -11.8800    9.1330 o         1 43B     -0.224500
     32 O39         1.9070  -12.3620   10.3760 o         1 43B     -0.224500
     33 N40         0.9200  -10.4520   12.0770 nh        1 43B     -0.744600
     34 C41        -0.0020   -9.9210   13.0530 c3        1 43B      0.217800
     35 C42        -1.1980  -10.8360   13.2830 c3        1 43B     -0.063300
     36 S43        -2.1950  -10.0070   14.4820 ss        1 43B     -0.169000
     37 C44        -3.5180  -11.0350   14.7510 ca        1 43B     -0.003100
     38 C45        -4.4470  -10.5650   15.6930 ca        1 43B     -0.129500
     39 C46        -5.5760  -11.3170   16.0000 ca        1 43B     -0.111500
     40 C47        -5.7920  -12.5460   15.3730 ca        1 43B     -0.133000
     41 C48        -4.8720  -13.0170   14.4390 ca        1 43B     -0.111500
     42 C49        -3.7390  -12.2650   14.1280 ca        1 43B     -0.129500
     43 C1         -1.9970    0.4020   -3.6630 ca        1 43B     -0.129000
     44 C2         -1.3310   -0.7930   -3.3890 ca        1 43B     -0.127500
     45 C3         -0.6920   -0.9730   -2.1640 ca        1 43B     -0.126000
     46 C4         -0.7120    0.0430   -1.2010 ca        1 43B     -0.086300
     47 C5         -1.3830    1.2390   -1.4800 ca        1 43B     -0.126000
     48 C6         -2.0220    1.4170   -2.7060 ca        1 43B     -0.127500
     49 HD1        -0.2960   -1.1750    0.5130 hc        1 43B      0.062700
     50 HD2        -0.4030    0.5990    0.8550 hc        1 43B      0.062700
     51 HE1         1.7360    0.9670   -0.4510 hc        1 43B      0.067700
     52 HE2         1.8400   -0.8170   -0.7570 hc        1 43B      0.067700
     53 HF          2.4950   -2.9700    4.2190 ha        1 43B      0.156000
     54 HG          5.2240   -0.2290    6.1810 ha        1 43B      0.141000
     55 HH          4.9670    1.4130    4.3320 ha        1 43B      0.144000
     56 HI1         3.9780   -1.1050    7.9510 ha        1 43B      0.145500
     57 HJ1         4.2680   -2.7230    9.8320 ha        1 43B      0.148000
     58 HJ2         4.4310   -5.9850    6.9820 ha        1 43B      0.148000
     59 HI2         4.1390   -4.3790    5.1220 ha        1 43B      0.145500
     60 H26         5.8350   -6.5360    8.6350 hn        1 43B      0.338500
     61 HK          4.8730  -10.0370    9.6960 ha        1 43B      0.190000
     62 HL          1.7220   -8.0940   13.0550 ha        1 43B      0.155000
     63 HM          3.7650   -6.8850   12.4330 ha        1 43B      0.181000
     64 H40         0.7050  -11.3490   11.6930 hn        1 43B      0.476800
     65 HN1         0.5400   -9.7700   14.0340 h1        1 43B      0.067700
     66 HN2        -0.3710   -8.9120   12.7000 h1        1 43B      0.067700
     67 HO1        -0.8690  -11.8360   13.6590 h1        1 43B      0.081200
     68 HO2        -1.7670  -10.9980   12.3350 h1        1 43B      0.081200
     69 HP1        -4.2770   -9.5950   16.1870 ha        1 43B      0.136500
     70 HQ1        -6.2990  -10.9410   16.7380 ha        1 43B      0.136500
     71 HR         -6.6850  -13.1400   15.6180 ha        1 43B      0.136000
     72 HQ2        -5.0360  -13.9840   13.9420 ha        1 43B      0.136500
     73 HP2        -3.0240  -12.6530   13.3870 ha        1 43B      0.136500
     74 HB1        -1.3120   -1.5960   -4.1410 ha        1 43B      0.132000
     75 HC1        -0.1700   -1.9170   -1.9480 ha        1 43B      0.132500
     76 HC2        -1.4080    2.0410   -0.7280 ha        1 43B      0.132500
     77 HB2        -2.5480    2.3590   -2.9180 ha        1 43B      0.132000
     78 HA         -2.5020    0.5430   -4.6290 ha        1 43B      0.132000
@<TRIPOS>BOND
     1    1    2 1   
     2    1   46 1   
     3    1   49 1   
     4    1   50 1   
     5    2    3 1   
     6    2   51 1   
     7    2   52 1   
     8    3    4 1   
     9    3    7 2   
    10    4    5 1   
    11    5    6 ar  
    12    5   11 ar  
    13    6    7 1   
    14    6    8 ar  
    15    8    9 ar  
    16    8   53 1   
    17    9   10 ar  
    18    9   12 1   
    19   10   11 ar  
    20   10   54 1   
    21   11   55 1   
    22   12   13 ar  
    23   12   17 ar  
    24   13   14 ar  
    25   13   56 1   
    26   14   15 ar  
    27   14   57 1   
    28   15   16 ar  
    29   15   18 1   
    30   16   17 ar  
    31   16   58 1   
    32   17   59 1   
    33   18   19 1   
    34   18   22 2   
    35   19   20 1   
    36   19   60 1   
    37   20   21 1   
    38   20   23 2   
    39   20   24 2   
    40   21   25 ar  
    41   21   29 ar  
    42   25   26 ar  
    43   25   61 1   
    44   26   27 ar  
    45   26   30 1   
    46   27   28 ar  
    47   27   33 1   
    48   28   29 ar  
    49   28   62 1   
    50   29   63 1   
    51   30   31 1   
    52   30   32 1   
    53   33   34 1   
    54   33   64 1   
    55   34   35 1   
    56   34   65 1   
    57   34   66 1   
    58   35   36 1   
    59   35   67 1   
    60   35   68 1   
    61   36   37 1   
    62   37   38 ar  
    63   37   42 ar  
    64   38   39 ar  
    65   38   69 1   
    66   39   40 ar  
    67   39   70 1   
    68   40   41 ar  
    69   40   71 1   
    70   41   42 ar  
    71   41   72 1   
    72   42   73 1   
    73   43   44 ar  
    74   43   48 ar  
    75   43   78 1   
    76   44   45 ar  
    77   44   74 1   
    78   45   46 ar  
    79   45   75 1   
    80   46   47 ar  
    81   47   48 ar  
    82   47   76 1   
    83   48   77 1   
@<TRIPOS>SUBSTRUCTURE
     1 43B         1 TEMP              0 ****  ****    0 ROOT
