@<TRIPOS>MOLECULE
43B
   79    83     1     0     0
SMALL
bcc


@<TRIPOS>ATOM
      1 C8          1.0840    0.9410   -0.9720 c3        1 43B     -0.029100
      2 C9          2.3790    1.2890   -0.2550 c3        1 43B     -0.100700
      3 C10         2.3980    0.7760    1.1390 cc        1 43B      0.381200
      4 S11         2.6430    1.9040    2.4470 ss        1 43B     -0.005100
      5 C12         2.5580    0.6580    3.5760 ca        1 43B     -0.086100
      6 C13         2.3400   -0.5900    2.8980 ca        1 43B      0.082400
      7 N14         2.2540   -0.4880    1.5000 nd        1 43B     -0.526100
      8 C15         2.2330   -1.7820    3.6380 ca        1 43B     -0.049000
      9 C16         2.3360   -1.7310    5.0260 cp        1 43B     -0.081000
     10 C17         2.5490   -0.4980    5.6830 ca        1 43B     -0.108000
     11 C18         2.6620    0.6820    4.9690 ca        1 43B     -0.082000
     12 C19         2.2240   -2.9580    5.8110 cp        1 43B      0.045000
     13 C20         1.5330   -2.9650    7.0320 ca        1 43B     -0.131000
     14 C21         1.4230   -4.1360    7.7750 ca        1 43B     -0.067500
     15 C22         2.0160   -5.3220    7.3140 ca        1 43B     -0.198600
     16 C23         2.6990   -5.3240    6.0900 ca        1 43B     -0.067500
     17 C24         2.8000   -4.1540    5.3470 ca        1 43B     -0.131000
     18 C25         1.8570   -6.5310    8.1340 c         1 43B      0.650700
     19 N26         2.8930   -7.5410    8.1120 n         1 43B     -0.725000
     20 S27         4.0390   -7.6600   10.1880 s4        1 43B      1.685300
     21 C28         3.1740   -8.7950   10.7750 ca        1 43B     -0.702500
     22 O29         0.9200   -6.7340    8.9200 o         1 43B     -0.539100
     23 O30         3.7630   -6.3810   10.5520 o         1 43B     -0.439900
     24 O31         5.2100   -8.0100    9.5890 o         1 43B     -0.439900
     25 C32         3.5770  -10.1530   10.7600 ca        1 43B      0.133000
     26 C33         2.8300  -11.1660   11.3330 ca        1 43B     -0.296200
     27 C34         1.5640  -10.8770   11.9970 ca        1 43B      0.344600
     28 C35         1.1510   -9.4870   11.9660 ca        1 43B     -0.234000
     29 C36         1.9080   -8.5180   11.3910 ca        1 43B      0.075000
     30 N37         3.3810  -12.5460   11.2330 no        1 43B      0.327200
     31 O38         4.3650  -12.7060   10.5670 o         1 43B     -0.189000
     32 O39         2.8430  -13.4540   11.8090 o         1 43B     -0.189000
     33 N40         0.8090  -11.8030   12.5960 nh        1 43B     -0.658600
     34 C41        -0.4580  -11.5090   13.2470 c3        1 43B      0.182800
     35 C42        -1.1270  -12.7480   13.8290 c3        1 43B     -0.077300
     36 S43        -2.7020  -12.3170   14.4770 ss        1 43B     -0.151000
     37 C44        -2.4190  -11.8760   16.0970 ca        1 43B     -0.054100
     38 C45        -3.0800  -10.7310   16.5600 ca        1 43B     -0.099500
     39 C46        -2.9930  -10.3660   17.9020 ca        1 43B     -0.126500
     40 C47        -2.2280  -11.1270   18.7870 ca        1 43B     -0.102000
     41 C48        -1.5610  -12.2640   18.3280 ca        1 43B     -0.126500
     42 C49        -1.6640  -12.6420   16.9910 ca        1 43B     -0.099500
     43 C1          1.0630    2.4960   -4.9680 ca        1 43B     -0.125000
     44 C2          1.8290    1.3720   -4.6580 ca        1 43B     -0.126000
     45 C3          1.8380    0.8690   -3.3580 ca        1 43B     -0.126000
     46 C4          1.0810    1.4890   -2.3560 ca        1 43B     -0.092300
     47 C5          0.3130    2.6150   -2.6740 ca        1 43B     -0.126000
     48 C6          0.3050    3.1150   -3.9750 ca        1 43B     -0.126000
     49 HD1         0.9670   -0.1760   -1.0100 hc        1 43B      0.060700
     50 HD2         0.2140    1.3490   -0.3920 hc        1 43B      0.060700
     51 HE1         3.2480    0.8530   -0.8230 hc        1 43B      0.072700
     52 HE2         2.5140    2.4040   -0.2360 hc        1 43B      0.072700
     53 HF          2.0560   -2.7350    3.1150 ha        1 43B      0.154000
     54 HG          2.6380   -0.4810    6.7800 ha        1 43B      0.139000
     55 HH          2.8320    1.6350    5.4930 ha        1 43B      0.150000
     56 HI1         1.0610   -2.0390    7.3990 ha        1 43B      0.159500
     57 HJ1         0.8660   -4.1410    8.7260 ha        1 43B      0.144000
     58 HJ2         3.1420   -6.2450    5.6810 ha        1 43B      0.144000
     59 HI2         3.3400   -4.1600    4.3860 ha        1 43B      0.159500
     60 H26         2.4970   -8.4610    8.0080 hn        1 43B      0.303500
     61 HK          4.5450  -10.4060   10.2670 ha        1 43B      0.199000
     62 HL          0.1840   -9.2110   12.4230 ha        1 43B      0.180000
     63 HM          1.5390   -7.4710   11.3740 ha        1 43B      0.185000
     64 H40         1.1000  -12.7680   12.6200 hn        1 43B      0.493800
     65 HN1        -0.2710  -10.7630   14.0750 h1        1 43B      0.083700
     66 HN2        -1.1530  -11.0350   12.4920 h1        1 43B      0.083700
     67 HO1        -1.3300  -13.5030   13.0260 h1        1 43B      0.096200
     68 HO2        -0.4730  -13.2290   14.5970 h1        1 43B      0.096200
     69 HP1        -3.6810  -10.1270   15.8630 ha        1 43B      0.139500
     70 HQ1        -3.5290   -9.4750   18.2630 ha        1 43B      0.145000
     71 HR         -2.1560  -10.8360   19.8460 ha        1 43B      0.146000
     72 HQ2        -0.9650  -12.8720   19.0250 ha        1 43B      0.145000
     73 HP2        -1.1610  -13.5590   16.6470 ha        1 43B      0.139500
     74 HC1         2.4390   -0.0200   -3.1150 ha        1 43B      0.131000
     75 HC2        -0.2900    3.1050   -1.8950 ha        1 43B      0.131000
     76 HB2        -0.3020    4.0000   -4.2170 ha        1 43B      0.134500
     77 HA          1.0560    2.8910   -5.9940 ha        1 43B      0.136000
     78 H262        3.5770   -7.3760    7.3930 hn        1 43B      0.303500
     79 HB1         2.4260    0.8800   -5.4400 ha        1 43B      0.134500
@<TRIPOS>BOND
     1    1    2 1   
     2    1   46 1   
     3    1   49 1   
     4    1   50 1   
     5    2    3 1   
     6    2   51 1   
     7    2   52 1   
     8    3    4 1   
     9    3    7 2   
    10    4    5 1   
    11    5    6 ar  
    12    5   11 ar  
    13    6    7 1   
    14    6    8 ar  
    15    8    9 ar  
    16    8   53 1   
    17    9   10 ar  
    18    9   12 1   
    19   10   11 ar  
    20   10   54 1   
    21   11   55 1   
    22   12   13 ar  
    23   12   17 ar  
    24   13   14 ar  
    25   13   56 1   
    26   14   15 ar  
    27   14   57 1   
    28   15   16 ar  
    29   15   18 1   
    30   16   17 ar  
    31   16   58 1   
    32   17   59 1   
    33   18   19 1   
    34   18   22 2   
    35   19   60 1   
    36   19   78 1   
    37   20   21 1   
    38   20   23 1   
    39   20   24 1   
    40   21   25 ar  
    41   21   29 ar  
    42   25   26 ar  
    43   25   61 1   
    44   26   27 ar  
    45   26   30 1   
    46   27   28 ar  
    47   27   33 1   
    48   28   29 ar  
    49   28   62 1   
    50   29   63 1   
    51   30   31 1   
    52   30   32 1   
    53   33   34 1   
    54   33   64 1   
    55   34   35 1   
    56   34   65 1   
    57   34   66 1   
    58   35   36 1   
    59   35   67 1   
    60   35   68 1   
    61   36   37 1   
    62   37   38 ar  
    63   37   42 ar  
    64   38   39 ar  
    65   38   69 1   
    66   39   40 ar  
    67   39   70 1   
    68   40   41 ar  
    69   40   71 1   
    70   41   42 ar  
    71   41   72 1   
    72   42   73 1   
    73   43   44 ar  
    74   43   48 ar  
    75   43   77 1   
    76   44   45 ar  
    77   44   79 1   
    78   45   46 ar  
    79   45   74 1   
    80   46   47 ar  
    81   47   48 ar  
    82   47   75 1   
    83   48   76 1   
@<TRIPOS>SUBSTRUCTURE
     1 43B         1 TEMP              0 ****  ****    0 ROOT
