@<TRIPOS>MOLECULE
43B
   78    67     1     0     0
SMALL
bcc


@<TRIPOS>ATOM
      1 C8          0.0320    2.5100  -10.0950 c3        1 43B     -0.118000
      2 C9          0.7050    2.7920   -8.7630 c3        1 43B     -0.100000
      3 C10         0.2790    1.7330   -7.7360 c2        1 43B     -0.211000
      4 S11        -1.0300    0.9160   -7.6200 ss        1 43B      0.407000
      5 C12        -0.8760   -0.0400   -6.4150 c1        1 43B     -0.312000
      6 C13         0.4160    0.1770   -5.8460 c1        1 43B     -0.038000
      7 N14         1.1530    1.3110   -6.6910 n1        1 43B     -0.096000
      8 C15         0.8220   -0.5640   -4.7430 c1        1 43B     -0.099000
      9 C16        -0.0360   -1.5260   -4.1890 c1        1 43B     -0.038000
     10 C17        -1.3130   -1.7410   -4.7510 c1        1 43B     -0.099000
     11 C18        -1.7250   -0.9940   -5.8640 c1        1 43B     -0.089000
     12 C19         0.2690   -2.3300   -3.0650 c1        1 43B     -0.038000
     13 C20         0.1180   -1.8150   -1.7830 c1        1 43B     -0.122125
     14 C21         0.3470   -2.6230   -0.6800 c1        1 43B     -0.122125
     15 C22         0.7280   -3.9510   -0.8560 c1        1 43B     -0.128000
     16 C23         0.8790   -4.4660   -2.1350 c1        1 43B     -0.073000
     17 C24         0.6490   -3.6560   -3.2410 c1        1 43B     -0.099000
     18 C25         1.0460   -4.8140    0.3520 c2        1 43B      0.373000
     19 N26         0.9550   -4.2680    1.6440 n         1 43B     -0.858000
     20 S27         0.2730   -5.1350    2.8470 s4        1 43B      2.089800
     21 C28        -0.2590   -4.0480    4.1710 c1        1 43B     -0.919000
     22 O29         1.4940   -5.9310    0.1970 o         1 43B     -0.317000
     23 O30         1.1680   -6.1490    3.3320 o         1 43B     -0.523900
     24 O31        -0.8170   -5.9350    2.3590 o         1 43B     -0.523900
     25 C32         0.5410   -3.9680    5.3030 c2        1 43B      0.099000
     26 C33         0.2030   -3.0900    6.3390 c1        1 43B     -0.261000
     27 C34        -0.9380   -2.2940    6.2330 c1        1 43B      0.243000
     28 C35        -1.7390   -2.3770    5.0950 c1        1 43B     -0.257000
     29 C36        -1.3990   -3.2540    4.0640 c1        1 43B      0.057000
     30 N37         0.9620   -3.0930    7.5510 no        1 43B      0.582000
     31 O38         2.2970   -3.3890    7.5210 o         1 43B     -0.369000
     32 O39         0.4140   -2.8330    8.6180 o         1 43B     -0.369000
     33 N40        -1.4050   -1.5440    7.3910 n3        1 43B     -0.298000
     34 C41        -1.6030   -0.1120    7.2940 c3        1 43B     -0.015000
     35 C42        -1.4130    0.5270    8.6810 c3        1 43B     -0.320000
     36 S43        -1.0380    2.2510    8.4930 ss        1 43B      0.228000
     37 C44        -0.0140    2.7830    9.8440 c2        1 43B     -0.231000
     38 C45         1.3610    2.8190    9.6960 c2        1 43B     -0.116000
     39 C46         2.1550    3.3210   10.7140 c1        1 43B     -0.112000
     40 C47         1.5720    3.7870   11.8810 c1        1 43B     -0.122125
     41 C48         0.1980    3.7510   12.0300 c1        1 43B     -0.122125
     42 C49        -0.5960    3.2490   11.0110 c1        1 43B     -0.140000
     43 C1         -0.1560    6.1920  -12.3540 c1        1 43B     -0.122125
     44 C2          0.9000    5.3080  -12.5510 c1        1 43B     -0.122125
     45 C3          0.9550    4.1190  -11.8310 c1        1 43B     -0.122125
     46 C4         -0.0460    3.8130  -10.9150 c1        1 43B     -0.079000
     47 C5         -1.1020    4.6960  -10.7180 c1        1 43B     -0.129000
     48 C6         -1.1570    5.8870  -11.4380 c1        1 43B     -0.122125
     49 HD1        -0.8700    2.1690   -9.9390 hc        1 43B      0.102000
     50 HD2         0.5530    1.8420  -10.5900 hc        1 43B      0.102000
     51 HE1         0.4400    3.6790   -8.4450 hc        1 43B      0.107500
     52 HE2         1.6770    2.7630   -8.8760 hc        1 43B      0.107500
     53 HF          1.7090   -0.4160   -4.3520 ha        1 43B      0.147333
     54 HG         -1.9120   -2.4130   -4.3630 ha        1 43B      0.147333
     55 HH         -2.6070   -1.1430   -6.2510 ha        1 43B      0.143000
     56 HI1        -0.1510   -0.8760   -1.6580 ha        1 43B      0.135500
     57 HJ1         0.2400   -2.2570    0.2300 ha        1 43B      0.135500
     58 HJ2         1.1470   -5.4000   -2.2590 ha        1 43B      0.159000
     59 HI2         0.7560   -4.0190   -4.1440 ha        1 43B      0.147333
     60 H26         1.3230   -3.4640    1.8210 hn        1 43B      0.246000
     61 HK          1.3400   -4.5250    5.3760 ha        1 43B      0.186000
     62 HL         -2.5370   -1.8230    5.0190 ha        1 43B      0.151000
     63 HM         -1.9620   -3.3120    3.2650 ha        1 43B      0.170000
     64 H40        -1.6520   -1.9850    8.1470 hn        1 43B      0.279000
     65 HN1        -2.5100    0.0720    6.9710 h1        1 43B      0.103500
     66 HN2        -0.9530    0.2660    6.6690 h1        1 43B      0.103500
     67 HO1        -0.6730    0.0810    9.1500 h1        1 43B      0.123500
     68 HO2        -2.2380    0.4270    9.2030 h1        1 43B      0.123500
     69 HP1         1.7730    2.4890    8.8720 ha        1 43B      0.144000
     70 HQ1         3.1270    3.3460   10.6090 ha        1 43B      0.137000
     71 HR          2.1330    4.1410   12.6000 ha        1 43B      0.135500
     72 HQ2        -0.2140    4.0810   12.8560 ha        1 43B      0.135500
     73 HP2        -1.5740    3.2240   11.1170 ha        1 43B      0.127000
     74 HA         -0.1940    7.0340  -12.8630 ha        1 43B      0.135500
     75 HB1         1.6080    5.5240  -13.1990 ha        1 43B      0.135500
     76 HC1         1.6970    3.4980  -11.9700 ha        1 43B      0.135500
     77 HC2        -1.8030    4.4830  -10.0770 ha        1 43B      0.130000
     78 HB2        -1.8990    6.5090  -11.3000 ha        1 43B      0.135500
@<TRIPOS>BOND
     1    1    2 1   
     2    1   46 1   
     3    1   49 1   
     4    1   50 1   
     5    2    3 1   
     6    2   51 1   
     7    2   52 1   
     8    3    4 1   
     9    3    7 1   
    10    4    5 1   
    11    5   11 1   
    12    6    8 1   
    13    8   53 1   
    14    9   10 1   
    15   10   54 1   
    16   11   55 1   
    17   12   17 1   
    18   13   14 1   
    19   13   56 1   
    20   14   57 1   
    21   15   16 1   
    22   15   18 1   
    23   16   58 1   
    24   17   59 1   
    25   18   19 1   
    26   18   22 1   
    27   19   20 1   
    28   19   60 1   
    29   20   23 1   
    30   20   24 1   
    31   21   25 1   
    32   21   29 1   
    33   25   26 1   
    34   25   61 1   
    35   26   30 1   
    36   27   28 1   
    37   27   33 1   
    38   28   62 1   
    39   29   63 1   
    40   30   31 1   
    41   30   32 1   
    42   33   34 1   
    43   33   64 1   
    44   34   35 1   
    45   34   65 1   
    46   34   66 1   
    47   35   36 1   
    48   35   67 1   
    49   35   68 1   
    50   36   37 1   
    51   37   38 1   
    52   37   42 1   
    53   38   39 1   
    54   38   69 1   
    55   39   70 1   
    56   40   41 1   
    57   40   71 1   
    58   41   72 1   
    59   42   73 1   
    60   43   48 1   
    61   43   74 1   
    62   44   45 1   
    63   44   75 1   
    64   45   76 1   
    65   46   47 1   
    66   47   77 1   
    67   48   78 1   
@<TRIPOS>SUBSTRUCTURE
     1 43B         1 TEMP              0 ****  ****    0 ROOT
