@<TRIPOS>MOLECULE
43B
   79    83     1     0     0
SMALL
bcc


@<TRIPOS>ATOM
      1 C8          1.0770    0.9670   -0.9540 c3        1 43B     -0.029100
      2 C9          2.3840    1.2950   -0.2500 c3        1 43B     -0.100700
      3 C10         2.4090    0.7790    1.1430 cc        1 43B      0.381200
      4 S11         2.6790    1.9010    2.4510 ss        1 43B     -0.005100
      5 C12         2.5890    0.6540    3.5780 ca        1 43B     -0.086100
      6 C13         2.3520   -0.5900    2.8990 ca        1 43B      0.082400
      7 N14         2.2550   -0.4850    1.5030 nd        1 43B     -0.526100
      8 C15         2.2380   -1.7830    3.6380 ca        1 43B     -0.049000
      9 C16         2.3540   -1.7360    5.0250 cp        1 43B     -0.081000
     10 C17         2.5870   -0.5070    5.6820 ca        1 43B     -0.108000
     11 C18         2.7060    0.6730    4.9700 ca        1 43B     -0.082000
     12 C19         2.2340   -2.9640    5.8080 cp        1 43B      0.044000
     13 C20         1.5540   -2.9660    7.0350 ca        1 43B     -0.131000
     14 C21         1.4380   -4.1370    7.7760 ca        1 43B     -0.067500
     15 C22         2.0140   -5.3280    7.3090 ca        1 43B     -0.198600
     16 C23         2.6870   -5.3350    6.0780 ca        1 43B     -0.067500
     17 C24         2.7940   -4.1650    5.3370 ca        1 43B     -0.131000
     18 C25         1.8500   -6.5370    8.1280 c         1 43B      0.650700
     19 N26         2.8760   -7.5560    8.0960 nt        1 43B     -0.725000
     20 S27         4.0370   -7.6880   10.1640 s4        1 43B      1.685300
     21 C28         3.1680   -8.8170   10.7550 ca        1 43B     -0.702500
     22 O29         0.9160   -6.7330    8.9200 o         1 43B     -0.538100
     23 O30         3.7730   -6.4080   10.5320 o         1 43B     -0.439900
     24 O31         5.2010   -8.0460    9.5550 o         1 43B     -0.439900
     25 C32         3.5590  -10.1780   10.7350 ca        1 43B      0.133000
     26 C33         2.8080  -11.1860   11.3110 ca        1 43B     -0.296200
     27 C34         1.5500  -10.8890   11.9850 ca        1 43B      0.344600
     28 C35         1.1480   -9.4960   11.9590 ca        1 43B     -0.234000
     29 C36         1.9080   -8.5320   11.3800 ca        1 43B      0.075000
     30 N37         3.3480  -12.5710   11.2040 no        1 43B      0.327200
     31 O38         4.3270  -12.7370   10.5310 o         1 43B     -0.189000
     32 O39         2.8070  -13.4760   11.7810 o         1 43B     -0.189000
     33 N40         0.7920  -11.8110   12.5870 nu        1 43B     -0.658600
     34 C41        -0.4680  -11.5080   13.2490 c3        1 43B      0.182800
     35 C42        -1.1420  -12.7430   13.8320 c3        1 43B     -0.077300
     36 S43        -2.7090  -12.3010   14.4930 ss        1 43B     -0.151000
     37 C44        -2.4110  -11.8680   16.1120 ca        1 43B     -0.054100
     38 C45        -3.0590  -10.7200   16.5850 ca        1 43B     -0.099500
     39 C46        -2.9590  -10.3600   17.9270 ca        1 43B     -0.126500
     40 C47        -2.1950  -11.1310   18.8030 ca        1 43B     -0.102000
     41 C48        -1.5410  -12.2710   18.3350 ca        1 43B     -0.126500
     42 C49        -1.6560  -12.6440   16.9980 ca        1 43B     -0.099500
     43 C1          1.0380    2.5320   -4.9460 ca        1 43B     -0.125000
     44 C2          1.7890    1.3950   -4.6470 ca        1 43B     -0.126000
     45 C3          1.8040    0.8880   -3.3490 ca        1 43B     -0.126000
     46 C4          1.0670    1.5180   -2.3370 ca        1 43B     -0.092300
     47 C5          0.3150    2.6570   -2.6430 ca        1 43B     -0.126000
     48 C6          0.3010    3.1610   -3.9430 ca        1 43B     -0.126000
     49 HD1         0.2180    1.3850   -0.3650 hc        1 43B      0.060700
     50 HD2         0.9440   -0.1480   -0.9940 hc        1 43B      0.060700
     51 HE1         2.5340    2.4090   -0.2300 hc        1 43B      0.072700
     52 HE2         3.2410    0.8490   -0.8270 hc        1 43B      0.072700
     53 HF          2.0450   -2.7320    3.1140 ha        1 43B      0.154000
     54 HG          2.6850   -0.4930    6.7790 ha        1 43B      0.139000
     55 HH          2.8920    1.6230    5.4950 ha        1 43B      0.150000
     56 HI1         1.0950   -2.0350    7.4080 ha        1 43B      0.159500
     57 HJ1         0.8880   -4.1380    8.7330 ha        1 43B      0.144000
     58 HJ2         3.1170   -6.2600    5.6640 ha        1 43B      0.144000
     59 HI2         3.3260   -4.1750    4.3720 ha        1 43B      0.159500
     60 H26         3.5560   -7.3960    7.3720 hn        1 43B      0.303500
     61 HK          4.5220  -10.4380   10.2330 ha        1 43B      0.199000
     62 HL          0.1860   -9.2130   12.4240 ha        1 43B      0.180000
     63 HM          1.5470   -7.4820   11.3680 ha        1 43B      0.185000
     64 H40         1.0760  -12.7770   12.6070 hn        1 43B      0.493800
     65 HN1        -0.2690  -10.7660   14.0780 h1        1 43B      0.083700
     66 HN2        -1.1640  -11.0260   12.5000 h1        1 43B      0.083700
     67 HO1        -0.4860  -13.2310   14.5940 h1        1 43B      0.096200
     68 HO2        -1.3570  -13.4940   13.0280 h1        1 43B      0.096200
     69 HP1        -3.6590  -10.1080   15.8930 ha        1 43B      0.139500
     70 HQ1        -3.4860   -9.4660   18.2950 ha        1 43B      0.145000
     71 HR         -2.1130  -10.8440   19.8630 ha        1 43B      0.146000
     72 HQ2        -0.9440  -12.8870   19.0260 ha        1 43B      0.145000
     73 HP2        -1.1630  -13.5640   16.6470 ha        1 43B      0.139500
     74 HC1         2.3920   -0.0110   -3.1150 ha        1 43B      0.131000
     75 HC2        -0.2710    3.1550   -1.8570 ha        1 43B      0.131000
     76 HB2        -0.2930    4.0570   -4.1770 ha        1 43B      0.134500
     77 HA          1.0260    2.9300   -5.9710 ha        1 43B      0.136000
     78 H262        2.4710   -8.4730    7.9940 hn        1 43B      0.303500
     79 HB1         2.3680    0.8950   -5.4370 ha        1 43B      0.134500
@<TRIPOS>BOND
     1    1    2 1   
     2    1   46 1   
     3    1   49 1   
     4    1   50 1   
     5    2    3 1   
     6    2   51 1   
     7    2   52 1   
     8    3    4 1   
     9    3    7 2   
    10    4    5 1   
    11    5    6 ar  
    12    5   11 ar  
    13    6    7 1   
    14    6    8 ar  
    15    8    9 ar  
    16    8   53 1   
    17    9   10 ar  
    18    9   12 1   
    19   10   11 ar  
    20   10   54 1   
    21   11   55 1   
    22   12   13 ar  
    23   12   17 ar  
    24   13   14 ar  
    25   13   56 1   
    26   14   15 ar  
    27   14   57 1   
    28   15   16 ar  
    29   15   18 1   
    30   16   17 ar  
    31   16   58 1   
    32   17   59 1   
    33   18   19 1   
    34   18   22 2   
    35   19   60 1   
    36   19   78 1   
    37   20   21 1   
    38   20   23 1   
    39   20   24 1   
    40   21   25 ar  
    41   21   29 ar  
    42   25   26 ar  
    43   25   61 1   
    44   26   27 ar  
    45   26   30 1   
    46   27   28 ar  
    47   27   33 1   
    48   28   29 ar  
    49   28   62 1   
    50   29   63 1   
    51   30   31 1   
    52   30   32 1   
    53   33   34 1   
    54   33   64 1   
    55   34   35 1   
    56   34   65 1   
    57   34   66 1   
    58   35   36 1   
    59   35   67 1   
    60   35   68 1   
    61   36   37 1   
    62   37   38 ar  
    63   37   42 ar  
    64   38   39 ar  
    65   38   69 1   
    66   39   40 ar  
    67   39   70 1   
    68   40   41 ar  
    69   40   71 1   
    70   41   42 ar  
    71   41   72 1   
    72   42   73 1   
    73   43   44 ar  
    74   43   48 ar  
    75   43   77 1   
    76   44   45 ar  
    77   44   79 1   
    78   45   46 ar  
    79   45   74 1   
    80   46   47 ar  
    81   47   48 ar  
    82   47   75 1   
    83   48   76 1   
@<TRIPOS>SUBSTRUCTURE
     1 43B         1 TEMP              0 ****  ****    0 ROOT
