@<TRIPOS>MOLECULE
43C
   45    48     1     0     0
SMALL
bcc


@<TRIPOS>ATOM
      1 CAA        -0.1470   -0.1060    0.0120 c3        1 43C     -0.114400
      2 CAT         1.3170   -0.0430    0.0730 cc        1 43C      0.271600
      3 CAN         2.1590   -0.0900    1.2000 cd        1 43C     -0.229600
      4 NAR         2.1700    0.0860   -1.0570 nc        1 43C     -0.349000
      5 NAS         3.3810    0.1180   -0.6850 nd        1 43C     -0.166800
      6 NAZ         3.4540    0.0200    0.6660 na        1 43C      0.035400
      7 CAO         4.6750    0.0280    1.4390 c3        1 43C      0.035300
      8 CAP         5.6920   -1.0400    0.9560 c3        1 43C      0.020300
      9 NBA         6.8350   -1.1500    1.8090 na        1 43C     -0.205900
     10 CAM         6.9040   -1.8950    2.9970 cc        1 43C      0.400400
     11 NAQ         8.0810   -1.7280    3.6250 nd        1 43C     -0.652000
     12 CAX         8.8190   -0.8280    2.8380 cd        1 43C      0.384800
     13 CAV        10.1700   -0.4110    3.1760 ca        1 43C     -0.116500
     14 CAG        10.5470   -0.2560    4.5190 ca        1 43C     -0.108000
     15 CAE        11.8450    0.1380    4.8390 ca        1 43C     -0.135500
     16 CAD        12.7770    0.3760    3.8290 ca        1 43C     -0.124000
     17 CAF        12.4090    0.2160    2.4940 ca        1 43C     -0.135500
     18 CAH        11.1140   -0.1770    2.1660 ca        1 43C     -0.108000
     19 CAY         8.0510   -0.4450    1.7070 cc        1 43C     -0.161600
     20 CAW         8.3720    0.4660    0.6220 ca        1 43C      0.000000
     21 CAK         8.6380    1.8150    0.8990 ca        1 43C     -0.119000
     22 CAI         8.9550    2.6940   -0.1320 ca        1 43C     -0.092000
     23 CAU         9.0060    2.2320   -1.4550 ca        1 43C     -0.009000
     24 CAC         9.3290    3.1280   -2.5100 cg        1 43C      0.229800
     25 NAB         9.5940    3.8630   -3.3720 n1        1 43C     -0.354800
     26 CAJ         8.7410    0.8840   -1.7370 ca        1 43C     -0.092000
     27 CAL         8.4260    0.0080   -0.7020 ca        1 43C     -0.119000
     28 H1         -0.4770   -0.9790   -0.6060 hc        1 43C      0.053367
     29 H2         -0.5690   -0.2130    1.0410 hc        1 43C      0.053367
     30 H3         -0.5610    0.8250   -0.4520 hc        1 43C      0.053367
     31 H4          1.9560   -0.1780    2.2640 h4        1 43C      0.191000
     32 H5          5.1490    1.0490    1.3580 h1        1 43C      0.074200
     33 H6          4.4010   -0.1570    2.5150 h1        1 43C      0.074200
     34 H7          5.1880   -2.0490    0.9140 h1        1 43C      0.084700
     35 H8          6.0410   -0.7700   -0.0830 h1        1 43C      0.084700
     36 H9          6.0900   -2.5470    3.3290 h5        1 43C      0.064100
     37 H10         9.8190   -0.4510    5.3210 ha        1 43C      0.141500
     38 H11        12.1330    0.2580    5.8930 ha        1 43C      0.133000
     39 H12        13.8010    0.6850    4.0860 ha        1 43C      0.132000
     40 H13        13.1430    0.3970    1.6950 ha        1 43C      0.133000
     41 H14        10.8260   -0.3070    1.1110 ha        1 43C      0.141500
     42 H15         8.6040    2.1770    1.9390 ha        1 43C      0.149500
     43 H16         9.1650    3.7520    0.0900 ha        1 43C      0.150500
     44 H17         8.7820    0.5190   -2.7750 ha        1 43C      0.150500
     45 H18         8.2300   -1.0520   -0.9250 ha        1 43C      0.149500
@<TRIPOS>BOND
     1    1    2 1   
     2    1   28 1   
     3    1   29 1   
     4    1   30 1   
     5    2    3 2   
     6    2    4 1   
     7    3    6 1   
     8    3   31 1   
     9    4    5 2   
    10    5    6 1   
    11    6    7 1   
    12    7    8 1   
    13    7   32 1   
    14    7   33 1   
    15    8    9 1   
    16    8   34 1   
    17    8   35 1   
    18    9   10 1   
    19    9   19 1   
    20   10   11 2   
    21   10   36 1   
    22   11   12 1   
    23   12   13 1   
    24   12   19 2   
    25   13   14 ar  
    26   13   18 ar  
    27   14   15 ar  
    28   14   37 1   
    29   15   16 ar  
    30   15   38 1   
    31   16   17 ar  
    32   16   39 1   
    33   17   18 ar  
    34   17   40 1   
    35   18   41 1   
    36   19   20 1   
    37   20   21 ar  
    38   20   27 ar  
    39   21   22 ar  
    40   21   42 1   
    41   22   23 ar  
    42   22   43 1   
    43   23   24 1   
    44   23   26 ar  
    45   24   25 3   
    46   26   27 ar  
    47   26   44 1   
    48   27   45 1   
@<TRIPOS>SUBSTRUCTURE
     1 43C         1 TEMP              0 ****  ****    0 ROOT
