@<TRIPOS>MOLECULE
43C
   45    48     1     0     0
SMALL
bcc


@<TRIPOS>ATOM
      1 CAA        -0.1380   -0.1410    0.0440 c3        1 43C     -0.114400
      2 CAT         1.3260   -0.0670    0.1040 cc        1 43C      0.271600
      3 CAN         2.1700   -0.1260    1.2280 cd        1 43C     -0.229600
      4 NAR         2.1750    0.0860   -1.0250 nc        1 43C     -0.349000
      5 NAS         3.3870    0.1210   -0.6550 nd        1 43C     -0.166800
      6 NAZ         3.4630    0.0020    0.6950 na        1 43C      0.035400
      7 CAO         4.6860    0.0070    1.4650 c3        1 43C      0.035300
      8 CAP         5.7070   -1.0510    0.9680 c3        1 43C      0.020300
      9 NBA         6.8520   -1.1650    1.8170 na        1 43C     -0.205900
     10 CAM         6.9260   -1.9220    2.9960 cc        1 43C      0.400400
     11 NAQ         8.1040   -1.7580    3.6240 nd        1 43C     -0.652000
     12 CAX         8.8370   -0.8460    2.8450 cd        1 43C      0.384800
     13 CAV        10.1870   -0.4290    3.1850 ca        1 43C     -0.116500
     14 CAG        10.5660   -0.2860    4.5290 ca        1 43C     -0.108000
     15 CAE        11.8630    0.1090    4.8500 ca        1 43C     -0.135500
     16 CAD        12.7930    0.3600    3.8410 ca        1 43C     -0.124000
     17 CAF        12.4230    0.2130    2.5050 ca        1 43C     -0.135500
     18 CAH        11.1280   -0.1810    2.1760 ca        1 43C     -0.108000
     19 CAY         8.0650   -0.4550    1.7200 cc        1 43C     -0.161600
     20 CAW         8.3800    0.4690    0.6440 ca        1 43C      0.000000
     21 CAK         8.6420    1.8160    0.9350 ca        1 43C     -0.119000
     22 CAI         8.9540    2.7070   -0.0880 ca        1 43C     -0.092000
     23 CAU         9.0040    2.2590   -1.4150 ca        1 43C     -0.009000
     24 CAC         9.3220    3.1680   -2.4610 cg        1 43C      0.229800
     25 NAB         9.5820    3.9120   -3.3170 n1        1 43C     -0.354800
     26 CAJ         8.7430    0.9140   -1.7110 ca        1 43C     -0.092000
     27 CAL         8.4330    0.0250   -0.6840 ca        1 43C     -0.119000
     28 H1         -0.4630   -1.0050   -0.5890 hc        1 43C      0.053367
     29 H2         -0.5570   -0.2700    1.0720 hc        1 43C      0.053367
     30 H3         -0.5600    0.7950   -0.4020 hc        1 43C      0.053367
     31 H4          1.9690   -0.2320    2.2910 h4        1 43C      0.191000
     32 H5          5.1540    1.0310    1.3960 h1        1 43C      0.074200
     33 H6          4.4140   -0.1930    2.5390 h1        1 43C      0.074200
     34 H7          5.2080   -2.0600    0.9140 h1        1 43C      0.084700
     35 H8          6.0520   -0.7660   -0.0690 h1        1 43C      0.084700
     36 H9          6.1140   -2.5810    3.3240 h5        1 43C      0.064100
     37 H10         9.8400   -0.4920    5.3300 ha        1 43C      0.141500
     38 H11        12.1530    0.2190    5.9050 ha        1 43C      0.133000
     39 H12        13.8160    0.6710    4.0990 ha        1 43C      0.132000
     40 H13        13.1550    0.4050    1.7060 ha        1 43C      0.133000
     41 H14        10.8390   -0.3010    1.1200 ha        1 43C      0.141500
     42 H15         8.6090    2.1670    1.9790 ha        1 43C      0.149500
     43 H16         9.1610    3.7630    0.1460 ha        1 43C      0.150500
     44 H17         8.7840    0.5600   -2.7520 ha        1 43C      0.150500
     45 H18         8.2410   -1.0330   -0.9180 ha        1 43C      0.149500
@<TRIPOS>BOND
     1    1    2 1   
     2    1   28 1   
     3    1   29 1   
     4    1   30 1   
     5    2    3 2   
     6    2    4 1   
     7    3    6 1   
     8    3   31 1   
     9    4    5 2   
    10    5    6 1   
    11    6    7 1   
    12    7    8 1   
    13    7   32 1   
    14    7   33 1   
    15    8    9 1   
    16    8   34 1   
    17    8   35 1   
    18    9   10 1   
    19    9   19 1   
    20   10   11 2   
    21   10   36 1   
    22   11   12 1   
    23   12   13 1   
    24   12   19 2   
    25   13   14 ar  
    26   13   18 ar  
    27   14   15 ar  
    28   14   37 1   
    29   15   16 ar  
    30   15   38 1   
    31   16   17 ar  
    32   16   39 1   
    33   17   18 ar  
    34   17   40 1   
    35   18   41 1   
    36   19   20 1   
    37   20   21 ar  
    38   20   27 ar  
    39   21   22 ar  
    40   21   42 1   
    41   22   23 ar  
    42   22   43 1   
    43   23   24 1   
    44   23   26 ar  
    45   24   25 3   
    46   26   27 ar  
    47   26   44 1   
    48   27   45 1   
@<TRIPOS>SUBSTRUCTURE
     1 43C         1 TEMP              0 ****  ****    0 ROOT
