@<TRIPOS>MOLECULE
43D
   45    48     1     0     0
SMALL
bcc


@<TRIPOS>ATOM
      1 CAA         0.0000    0.0000    0.0000 c3        1 43D      0.003600
      2 CAS         1.5070    0.0000    0.0000 cc        1 43D      0.307600
      3 CAK         2.3180    0.0000    1.0850 cd        1 43D     -0.465600
      4 NAQ         2.3080   -0.0070   -1.0720 nc        1 43D     -0.306000
      5 NAR         3.5320   -0.0050   -0.6770 nd        1 43D     -0.380800
      6 NAZ         3.5840   -0.0060    0.6090 na        1 43D      0.618400
      7 CAM         4.8050   -0.0080    1.4180 c3        1 43D     -0.102700
      8 CAN         5.6830   -1.1940    1.0150 c3        1 43D     -0.067700
      9 NBA         6.8450   -1.2670    1.9030 na        1 43D      0.313100
     10 CAJ         6.9680   -2.0490    2.9970 cc        1 43D      0.221400
     11 NAO         8.1360   -1.8540    3.5440 nd        1 43D     -0.606000
     12 CAW         8.8210   -0.9400    2.8330 cd        1 43D      0.441800
     13 CAV        10.1870   -0.4430    3.1260 cd        1 43D     -0.333800
     14 CAL        10.7270   -0.2510    4.3650 cc        1 43D     -0.239300
     15 CAI        11.1670   -0.0910    2.1770 cd        1 43D      0.403200
     16 NAP        12.2350    0.2980    2.8210 nc        1 43D     -0.677800
     17 NAY        11.9840    0.2070    4.1950 na        1 43D      0.508400
     18 CAB        12.9270    0.5460    5.2640 c3        1 43D      0.010600
     19 CAX         8.0170   -0.5540    1.7750 cc        1 43D     -0.377600
     20 CAU         8.3480    0.4260    0.7250 ca        1 43D      0.040000
     21 CAG         8.7570    1.7160    1.0750 ca        1 43D     -0.107500
     22 CAE         9.0630    2.6250    0.1020 ca        1 43D     -0.079000
     23 CAT         8.9670    2.2620   -1.2460 ca        1 43D      0.040000
     24 CAD         9.2880    3.2150   -2.2670 cg        1 43D      0.226800
     25 NAC         9.5480    3.9830   -3.0620 n1        1 43D     -0.374800
     26 CAF         8.5580    0.9720   -1.5970 ca        1 43D     -0.079000
     27 CAH         8.2570    0.0620   -0.6240 ca        1 43D     -0.107500
     28 H1         -0.2280    0.8260    0.6630 hc        1 43D      0.003700
     29 H2         -0.3400   -0.7740    0.6770 hc        1 43D      0.003700
     30 H3         -0.7670    0.1510   -0.7500 hc        1 43D      0.003700
     31 H4          1.9880    0.2560    2.0840 h4        1 43D      0.165000
     32 H5          4.7520   -0.2450    2.4740 h1        1 43D      0.048200
     33 H6          5.2640    0.9640    1.5470 h1        1 43D      0.048200
     34 H7          5.6980   -0.9980   -0.0510 h1        1 43D      0.067200
     35 H8          5.0230   -1.9970    1.3200 h1        1 43D      0.067200
     36 H9          6.3010   -2.8650    3.2500 h5        1 43D      0.025100
     37 H10        10.0850   -0.3960    5.2260 h4        1 43D      0.164000
     38 H11        11.2310    0.1850    1.1310 h4        1 43D      0.013100
     39 H12        12.6500    1.4050    5.8630 h1        1 43D      0.024367
     40 H13        13.0240   -0.2420    6.0010 h1        1 43D      0.024367
     41 H14        13.8630    0.5540    4.7180 h1        1 43D      0.024367
     42 H15         8.6130    2.3920    1.9100 ha        1 43D      0.120500
     43 H16         9.3230    3.5120    0.6670 ha        1 43D      0.123000
     44 H17         8.2700    0.9280   -2.6400 ha        1 43D      0.123000
     45 H18         7.9370   -0.9660   -0.7380 ha        1 43D      0.120500
@<TRIPOS>BOND
     1    1    2 1   
     2    1   28 1   
     3    1   29 1   
     4    1   30 1   
     5    2    3 2   
     6    2    4 1   
     7    3    6 1   
     8    3   31 1   
     9    4    5 2   
    10    5    6 1   
    11    6    7 1   
    12    7    8 1   
    13    7   32 1   
    14    7   33 1   
    15    8    9 1   
    16    8   34 1   
    17    8   35 1   
    18    9   10 1   
    19    9   19 1   
    20   10   11 2   
    21   10   36 1   
    22   11   12 1   
    23   12   13 1   
    24   12   19 2   
    25   13   14 2   
    26   13   15 1   
    27   14   17 1   
    28   14   37 1   
    29   15   16 2   
    30   15   38 1   
    31   16   17 1   
    32   17   18 1   
    33   18   39 1   
    34   18   40 1   
    35   18   41 1   
    36   19   20 1   
    37   20   21 ar  
    38   20   27 ar  
    39   21   22 ar  
    40   21   42 1   
    41   22   23 ar  
    42   22   43 1   
    43   23   24 1   
    44   23   26 ar  
    45   24   25 3   
    46   26   27 ar  
    47   26   44 1   
    48   27   45 1   
@<TRIPOS>SUBSTRUCTURE
     1 43D         1 TEMP              0 ****  ****    0 ROOT
