@<TRIPOS>MOLECULE
43D
   45    48     1     0     0
SMALL
bcc


@<TRIPOS>ATOM
      1 CAA        -0.0680   -0.1700    0.0170 c3        1 43D     -0.114400
      2 CAS         1.3970   -0.1100    0.0750 cc        1 43D      0.271600
      3 CAK         2.2380   -0.0760    1.2020 cd        1 43D     -0.229600
      4 NAQ         2.2500   -0.0730   -1.0610 nc        1 43D     -0.349000
      5 NAR         3.4610   -0.0200   -0.6920 nd        1 43D     -0.166800
      6 NAZ         3.5330   -0.0150    0.6630 na        1 43D      0.036400
      7 CAM         4.7540    0.0480    1.4340 c3        1 43D      0.034300
      8 CAN         5.7770   -1.0440    1.0210 c3        1 43D      0.022300
      9 NBA         6.9130   -1.1030    1.8880 na        1 43D     -0.207900
     10 CAJ         6.9790   -1.7920    3.1070 cc        1 43D      0.405400
     11 NAO         8.1440   -1.5780    3.7420 nd        1 43D     -0.670000
     12 CAW         8.8780   -0.6950    2.9260 cd        1 43D      0.437800
     13 CAV        10.1910   -0.2570    3.2760 cd        1 43D     -0.301800
     14 CAL        10.8840   -0.5460    4.4700 cc        1 43D     -0.102300
     15 CAI        11.1180    0.5530    2.5090 cd        1 43D      0.312200
     16 NAP        12.2690    0.7310    3.2000 nc        1 43D     -0.512800
     17 NAY        12.1300    0.0770    4.3690 na        1 43D      0.083400
     18 CAB        13.1530    0.0260    5.3830 c3        1 43D      0.040600
     19 CAX         8.1180   -0.3780    1.7690 cc        1 43D     -0.173600
     20 CAU         8.4360    0.4730    0.6370 ca        1 43D      0.006000
     21 CAG         8.6680    1.8430    0.8310 ca        1 43D     -0.122000
     22 CAE         8.9750    2.6640   -0.2510 ca        1 43D     -0.092500
     23 CAT         9.0530    2.1220   -1.5410 ca        1 43D     -0.010000
     24 CAD         9.3640    2.9590   -2.6470 cg        1 43D      0.230800
     25 NAC         9.6190    3.6450   -3.5510 n1        1 43D     -0.355800
     26 CAF         8.8250    0.7530   -1.7400 ca        1 43D     -0.092500
     27 CAH         8.5180   -0.0650   -0.6560 ca        1 43D     -0.122000
     28 H1         -0.4030   -1.0860   -0.5330 hc        1 43D      0.053367
     29 H2         -0.4910   -0.1970    1.0520 hc        1 43D      0.053367
     30 H3         -0.4770    0.7250   -0.5160 hc        1 43D      0.053367
     31 H4          2.0340   -0.0820    2.2700 h4        1 43D      0.190000
     32 H5          5.2230    1.0640    1.2900 h1        1 43D      0.073700
     33 H6          4.4790   -0.0700    2.5200 h1        1 43D      0.073700
     34 H7          5.2760   -2.0540    1.0320 h1        1 43D      0.084200
     35 H8          6.1330   -0.8310   -0.0290 h1        1 43D      0.084200
     36 H9          6.1700   -2.4410    3.4590 h5        1 43D      0.062100
     37 H10        10.5780   -1.1300    5.3380 h4        1 43D      0.189000
     38 H11        10.9620    0.9790    1.5170 h4        1 43D      0.048100
     39 H12        14.0830   -0.4500    4.9700 h1        1 43D      0.058367
     40 H13        13.4020    1.0640    5.7320 h1        1 43D      0.058367
     41 H14        12.7740   -0.5790    6.2470 h1        1 43D      0.058367
     42 H15         8.6130    2.2670    1.8460 ha        1 43D      0.150000
     43 H16         9.1570    3.7380   -0.0920 ha        1 43D      0.150000
     44 H17         8.8900    0.3250   -2.7520 ha        1 43D      0.150000
     45 H18         8.3520   -1.1420   -0.8140 ha        1 43D      0.150000
@<TRIPOS>BOND
     1    1    2 1   
     2    1   28 1   
     3    1   29 1   
     4    1   30 1   
     5    2    3 2   
     6    2    4 1   
     7    3    6 1   
     8    3   31 1   
     9    4    5 2   
    10    5    6 1   
    11    6    7 1   
    12    7    8 1   
    13    7   32 1   
    14    7   33 1   
    15    8    9 1   
    16    8   34 1   
    17    8   35 1   
    18    9   10 1   
    19    9   19 1   
    20   10   11 2   
    21   10   36 1   
    22   11   12 1   
    23   12   13 1   
    24   12   19 2   
    25   13   14 2   
    26   13   15 1   
    27   14   17 1   
    28   14   37 1   
    29   15   16 2   
    30   15   38 1   
    31   16   17 1   
    32   17   18 1   
    33   18   39 1   
    34   18   40 1   
    35   18   41 1   
    36   19   20 1   
    37   20   21 ar  
    38   20   27 ar  
    39   21   22 ar  
    40   21   42 1   
    41   22   23 ar  
    42   22   43 1   
    43   23   24 1   
    44   23   26 ar  
    45   24   25 3   
    46   26   27 ar  
    47   26   44 1   
    48   27   45 1   
@<TRIPOS>SUBSTRUCTURE
     1 43D         1 TEMP              0 ****  ****    0 ROOT
