@<TRIPOS>MOLECULE
43E
   41    42     1     0     0
SMALL
bcc


@<TRIPOS>ATOM
      1 CAH        -0.2770    0.5510    0.1320 ca        1 43E     -0.106500
      2 CAS         1.0800    0.8330   -0.0580 ca        1 43E      0.027900
      3 CLB         1.6070    1.4370   -1.5430 cl        1 43E     -0.007900
      4 CAG         2.0010    0.6220    0.9760 ca        1 43E     -0.062000
      5 CAT         1.5540    0.1240    2.2070 ca        1 43E      0.027900
      6 CLC         2.6550   -0.1300    3.4610 cl        1 43E     -0.007900
      7 CAI         0.1990   -0.1620    2.4070 ca        1 43E     -0.106500
      8 CAU        -0.7100    0.0530    1.3660 ca        1 43E     -0.189300
      9 CAM        -2.1590   -0.1960    1.5910 c3        1 43E      0.185100
     10 NAN        -2.5070   -1.6220    1.2180 n4        1 43E     -0.772000
     11 CAK        -3.9500   -1.9130    1.4270 c3        1 43E      0.102800
     12 CAJ        -4.3390   -3.3430    1.0540 c3        1 43E     -0.135400
     13 CAL        -5.8410   -3.5030    1.2820 c3        1 43E      0.104800
     14 NAO        -6.3710   -4.8280    0.8690 n4        1 43E     -0.687800
     15 CAR        -7.9500   -4.7770    0.8130 c         1 43E      0.629100
     16 OAA        -8.3380   -3.9220    0.0170 o         1 43E     -0.468100
     17 NAP        -8.6250   -5.5320    1.7320 n         1 43E     -0.323100
     18 CAV       -10.0090   -5.7610    1.5680 cc        1 43E     -0.098400
     19 CAE       -10.9600   -4.7760    1.1280 cc        1 43E     -0.121000
     20 CAD       -12.2360   -5.3010    1.1590 cd        1 43E     -0.193100
     21 SAQ       -12.2620   -6.8720    1.6810 ss        1 43E      0.295200
     22 CAF       -10.6390   -6.9740    1.8840 cd        1 43E     -0.230100
     23 H1         -0.9960    0.7470   -0.6800 ha        1 43E      0.153500
     24 H2          3.0720    0.8550    0.8250 ha        1 43E      0.197000
     25 H3         -0.1440   -0.5270    3.3880 ha        1 43E      0.153500
     26 H4         -2.7940    0.4860    0.9540 hx        1 43E      0.115200
     27 H5         -2.4340   -0.0520    2.6760 hx        1 43E      0.115200
     28 H6         -2.2550   -1.7720    0.2320 hn        1 43E      0.456300
     29 H8         -4.1870   -1.7220    2.5150 hx        1 43E      0.119200
     30 H9         -4.5430   -1.1790    0.8040 hx        1 43E      0.119200
     31 H10        -3.7690   -4.0790    1.6840 hc        1 43E      0.086700
     32 H11        -4.0870   -3.5430   -0.0240 hc        1 43E      0.086700
     33 H12        -6.4030   -2.7170    0.6890 hx        1 43E      0.126700
     34 H13        -6.0850   -3.3610    2.3760 hx        1 43E      0.126700
     35 H14        -6.0660   -5.0390   -0.0880 hn        1 43E      0.453800
     36 H15        -8.1460   -6.2540    2.2360 hn        1 43E      0.342500
     37 H16       -10.6930   -3.7660    0.8080 ha        1 43E      0.179000
     38 H17       -13.1350   -4.7470    0.8730 h4        1 43E      0.209000
     39 H18       -10.1350   -7.8770    2.2350 h4        1 43E      0.189000
     40 HAN2       -1.9310   -2.2580    1.7840 hn        1 43E      0.456300
     41 HAO2       -6.0210   -5.5580    1.4900 hn        1 43E      0.453800
@<TRIPOS>BOND
     1    1    2 ar  
     2    1    8 ar  
     3    1   23 1   
     4    2    3 1   
     5    2    4 ar  
     6    4    5 ar  
     7    4   24 1   
     8    5    6 1   
     9    5    7 ar  
    10    7    8 ar  
    11    7   25 1   
    12    8    9 1   
    13    9   10 1   
    14    9   26 1   
    15    9   27 1   
    16   10   11 1   
    17   10   28 1   
    18   10   40 1   
    19   11   12 1   
    20   11   29 1   
    21   11   30 1   
    22   12   13 1   
    23   12   31 1   
    24   12   32 1   
    25   13   14 1   
    26   13   33 1   
    27   13   34 1   
    28   14   15 1   
    29   14   35 1   
    30   14   41 1   
    31   15   16 2   
    32   15   17 1   
    33   17   18 1   
    34   17   36 1   
    35   18   19 1   
    36   18   22 2   
    37   19   20 2   
    38   19   37 1   
    39   20   21 1   
    40   20   38 1   
    41   21   22 1   
    42   22   39 1   
@<TRIPOS>SUBSTRUCTURE
     1 43E         1 TEMP              0 ****  ****    0 ROOT
