@<TRIPOS>MOLECULE
43E
   39    33     1     0     0
SMALL
bcc


@<TRIPOS>ATOM
      1 CAH         5.1120    2.5270   -0.4730 c1        1 43E     -0.122000
      2 CAS         6.4810    2.4580   -0.2440 c1        1 43E     -0.056000
      3 CLB         7.6040    2.8190   -1.5410 cl        1 43E     -0.007000
      4 CAG         6.9590    2.1570    1.0220 c1        1 43E     -0.119000
      5 CAT         6.0680    1.9240    2.0650 c1        1 43E     -0.058000
      6 CLC         6.6770    1.5140    3.6770 cl        1 43E     -0.006000
      7 CAI         4.7110    1.9930    1.8390 c1        1 43E     -0.105000
      8 CAU         4.2280    2.2960    0.5620 c1        1 43E     -0.069000
      9 CAM         2.7170    2.4210    0.3230 c3        1 43E     -0.036000
     10 NAN         2.1420    1.0740    0.0340 n3        1 43E     -0.304000
     11 CAK         0.6770    1.1900   -0.1340 c3        1 43E     -0.072000
     12 CAJ         0.0370   -0.2460   -0.1950 c3        1 43E     -0.172000
     13 CAL        -1.4640   -0.1310   -0.0900 c3        1 43E     -0.034000
     14 NAO        -2.0550   -1.3920   -0.3610 n         1 43E     -0.358000
     15 CAR        -3.4670   -1.5160   -0.4080 c2        1 43E      0.380000
     16 OAA        -4.1650   -0.5680   -0.1470 o         1 43E     -0.380000
     17 NAP        -4.0740   -2.7970   -0.7520 n         1 43E     -0.289000
     18 CAV        -5.5660   -2.9350   -0.7800 c2        1 43E      0.027000
     19 CAE        -6.4340   -3.9560    0.1010 c1        1 43E     -0.187000
     20 CAD        -7.8440   -3.7800   -0.2500 c1        1 43E     -0.433000
     21 SAQ        -7.9290   -2.6680   -1.3400 ss        1 43E      0.580000
     22 CAF        -6.4740   -2.1780   -1.6310 c1        1 43E     -0.463000
     23 H1          4.7680    2.7440   -1.3840 ha        1 43E      0.151000
     24 H2          7.9240    2.1080    1.1820 ha        1 43E      0.162000
     25 H3          4.0660    1.8250    2.5930 ha        1 43E      0.166000
     26 H4          2.2860    2.7980    1.1280 h1        1 43E      0.083000
     27 H5          2.5550    3.0230   -0.4530 h1        1 43E      0.083000
     28 H6          2.5220    0.7360   -0.7580 hn        1 43E      0.159000
     29 H8          0.2900    1.6960    0.6420 h1        1 43E      0.074500
     30 H9          0.4820    1.6680   -0.9650 h1        1 43E      0.074500
     31 H10         0.2770   -0.6750   -1.0520 hc        1 43E      0.093000
     32 H11         0.3850   -0.8030    0.5700 hc        1 43E      0.093000
     33 H12        -1.7870    0.5280   -0.7400 h1        1 43E      0.095500
     34 H13        -1.6990    0.1460    0.7870 h1        1 43E      0.095500
     35 H14        -1.5270   -2.1090   -0.5580 hn        1 43E      0.205000
     36 H15        -3.5430   -3.5290   -0.9000 hn        1 43E      0.223000
     37 H16        -6.0870   -4.5790    0.7490 DU        1 43E      0.176000
     38 H17        -8.6340   -4.2950    0.1480 DU        1 43E      0.176000
     39 H18        -6.2200   -1.4890   -2.2670 DU        1 43E      0.176000
@<TRIPOS>BOND
     1    1    8 1   
     2    1   23 1   
     3    2    4 1   
     4    4   24 1   
     5    5    6 1   
     6    5    7 1   
     7    7   25 1   
     8    8    9 1   
     9    9   10 1   
    10    9   26 1   
    11    9   27 1   
    12   10   11 1   
    13   10   28 1   
    14   11   12 1   
    15   11   29 1   
    16   11   30 1   
    17   12   13 1   
    18   12   31 1   
    19   12   32 1   
    20   13   14 1   
    21   13   33 1   
    22   13   34 1   
    23   14   15 1   
    24   14   35 1   
    25   15   16 1   
    26   15   17 1   
    27   17   18 1   
    28   17   36 1   
    29   18   19 1   
    30   18   22 1   
    31   19   20 1   
    32   20   21 1   
    33   21   22 1   
@<TRIPOS>SUBSTRUCTURE
     1 43E         1 TEMP              0 ****  ****    0 ROOT
