@<TRIPOS>MOLECULE
43E
   39    40     1     0     0
SMALL
bcc


@<TRIPOS>ATOM
      1 CAH        -5.0410    1.1430   -1.1700 ca        1 43E     -0.113500
      2 CAS        -6.3250    1.3080   -0.6440 ca        1 43E      0.021400
      3 CLB        -7.2980    2.5900   -1.1900 cl        1 43E     -0.084900
      4 CAG        -6.8220    0.4350    0.3280 ca        1 43E     -0.119000
      5 CAT        -6.0090   -0.6150    0.7660 ca        1 43E      0.021400
      6 CLC        -6.5970   -1.6860    1.9470 cl        1 43E     -0.084900
      7 CAI        -4.7240   -0.7970    0.2460 ca        1 43E     -0.113500
      8 CAU        -4.2420    0.0870   -0.7240 ca        1 43E     -0.076300
      9 CAM        -2.8780   -0.1140   -1.3190 c3        1 43E      0.208100
     10 NAN        -1.8380   -0.2890   -0.3220 n3        1 43E     -0.825200
     11 CAK        -0.5070   -0.2850   -0.8960 c3        1 43E      0.164800
     12 CAJ         0.5920   -0.3150    0.1650 c3        1 43E     -0.094400
     13 CAL         1.9470   -0.3720   -0.5390 c3        1 43E      0.083000
     14 NAO         3.0520   -0.3880    0.3930 n         1 43E     -0.549900
     15 CAR         4.3470   -0.2020   -0.1370 c         1 43E      0.754100
     16 OAA         4.4950    0.2230   -1.3050 o         1 43E     -0.619100
     17 NAP         5.4440   -0.5080    0.7000 n         1 43E     -0.436100
     18 CAV         6.7460   -0.0900    0.4190 cc        1 43E      0.032600
     19 CAE         7.2780    0.1890   -0.8970 cc        1 43E     -0.143000
     20 CAD         8.6140    0.5060   -0.8340 cd        1 43E     -0.167100
     21 SAQ         9.2010    0.4680    0.7270 ss        1 43E      0.038200
     22 CAF         7.7370    0.0460    1.3930 cd        1 43E     -0.249100
     23 H1         -4.6630    1.8410   -1.9340 ha        1 43E      0.158500
     24 H2         -7.8340    0.5710    0.7400 ha        1 43E      0.162000
     25 H3         -4.0920   -1.6290    0.5960 ha        1 43E      0.158500
     26 H4         -2.9010   -1.0530   -1.9460 h1        1 43E      0.043700
     27 H5         -2.6540    0.7460   -2.0210 h1        1 43E      0.043700
     28 H6         -1.9170    0.4020    0.4000 hn        1 43E      0.363800
     29 H8         -0.4190   -1.2030   -1.5450 h1        1 43E      0.035200
     30 H9         -0.3320    0.6120   -1.5640 h1        1 43E      0.035200
     31 H10         0.5310    0.5990    0.8110 hc        1 43E      0.054200
     32 H11         0.4580   -1.2090    0.8290 hc        1 43E      0.054200
     33 H12         1.9770   -1.2840   -1.2050 h1        1 43E      0.056200
     34 H13         2.0690    0.5320   -1.2030 h1        1 43E      0.056200
     35 H14         2.9460   -1.0080    1.1630 hn        1 43E      0.292500
     36 H15         5.2600   -0.6410    1.6720 hn        1 43E      0.307500
     37 H16         6.6670    0.1560   -1.8050 ha        1 43E      0.190000
     38 H17         9.2360    0.7560   -1.6920 h4        1 43E      0.173000
     39 H18         7.6020   -0.1050    2.4610 h4        1 43E      0.168000
@<TRIPOS>BOND
     1    1    2 ar  
     2    1    8 ar  
     3    1   23 1   
     4    2    3 1   
     5    2    4 ar  
     6    4    5 ar  
     7    4   24 1   
     8    5    6 1   
     9    5    7 ar  
    10    7    8 ar  
    11    7   25 1   
    12    8    9 1   
    13    9   10 1   
    14    9   26 1   
    15    9   27 1   
    16   10   11 1   
    17   10   28 1   
    18   11   12 1   
    19   11   29 1   
    20   11   30 1   
    21   12   13 1   
    22   12   31 1   
    23   12   32 1   
    24   13   14 1   
    25   13   33 1   
    26   13   34 1   
    27   14   15 1   
    28   14   35 1   
    29   15   16 2   
    30   15   17 1   
    31   17   18 1   
    32   17   36 1   
    33   18   19 1   
    34   18   22 2   
    35   19   20 2   
    36   19   37 1   
    37   20   21 1   
    38   20   38 1   
    39   21   22 1   
    40   22   39 1   
@<TRIPOS>SUBSTRUCTURE
     1 43E         1 TEMP              0 ****  ****    0 ROOT
