@<TRIPOS>MOLECULE
43E
   42    43     1     0     0
SMALL
bcc


@<TRIPOS>ATOM
      1 CAH         0.4350   -1.2960    1.2960 ca        1 43E     -0.105500
      2 CAS         1.5330   -0.8420    2.0350 ca        1 43E      0.027400
      3 CLB         2.8520   -1.8620    2.2810 cl        1 43E      0.005100
      4 CAG         1.5440    0.4560    2.5640 ca        1 43E     -0.050000
      5 CAT         0.4450    1.3000    2.3520 ca        1 43E      0.027400
      6 CLC         0.4520    2.8630    2.9810 cl        1 43E      0.005100
      7 CAI        -0.6580    0.8540    1.6140 ca        1 43E     -0.105500
      8 CAU        -0.6570   -0.4440    1.0880 ca        1 43E     -0.202300
      9 CAM        -1.7890   -0.8940    0.2430 c3        1 43E      0.196100
     10 NAN        -2.8470   -1.5620    1.1160 n4        1 43E     -0.778000
     11 CAK        -4.0080   -2.0280    0.3160 c3        1 43E      0.102800
     12 CAJ        -5.1050   -2.7060    1.1480 c3        1 43E     -0.135400
     13 CAL        -6.2330   -3.1110    0.1990 c3        1 43E      0.111800
     14 NAO        -7.4060   -3.7410    0.9120 n4        1 43E     -0.641800
     15 CAR        -8.5940   -3.8610   -0.0020 c         1 43E      0.471100
     16 OAA        -8.7710   -3.0440   -0.8890 o         1 43E     -0.287100
     17 NAP        -9.5580   -4.9940    0.2210 n4        1 43E     -0.434200
     18 CAV        -9.5080   -5.5900    1.5240 cc        1 43E     -0.252400
     19 CAE        -8.6330   -6.6790    1.8750 cc        1 43E     -0.137000
     20 CAD        -8.9730   -7.1570    3.1240 cd        1 43E     -0.203100
     21 SAQ       -10.2610   -6.3620    3.7890 ss        1 43E      0.534200
     22 CAF       -10.4460   -5.3380    2.5520 cd        1 43E     -0.221100
     23 H1          0.4520   -2.3060    0.8570 ha        1 43E      0.152000
     24 H2          2.4200    0.8160    3.1370 ha        1 43E      0.204000
     25 H3         -1.5010    1.5370    1.4260 ha        1 43E      0.152000
     26 H4         -1.4570   -1.6540   -0.5210 hx        1 43E      0.115700
     27 H5         -2.2850   -0.0250   -0.2790 hx        1 43E      0.115700
     28 H6         -2.4060   -2.3500    1.6060 hn        1 43E      0.458800
     29 H8         -3.6190   -2.7500   -0.4620 hx        1 43E      0.123200
     30 H9         -4.4360   -1.1300   -0.2210 hx        1 43E      0.123200
     31 H10        -5.4850   -1.9940    1.9310 hc        1 43E      0.096700
     32 H11        -4.6880   -3.6100    1.6720 hc        1 43E      0.096700
     33 H12        -6.6160   -2.1960   -0.3510 hx        1 43E      0.140700
     34 H13        -5.8580   -3.8600   -0.5600 hx        1 43E      0.140700
     35 H14        -7.6850   -3.1430    1.7100 hn        1 43E      0.496300
     36 H15       -10.5160   -4.6140    0.0480 hn        1 43E      0.524800
     37 H16        -7.8620   -7.1080    1.2280 ha        1 43E      0.186000
     38 H17        -8.4660   -8.0040    3.6130 h4        1 43E      0.245000
     39 H18       -11.2370   -4.5760    2.5080 h4        1 43E      0.224000
     40 HAN2       -3.1490   -0.8830    1.8270 hn        1 43E      0.458800
     41 HAO2       -7.1420   -4.6680    1.2890 hn        1 43E      0.496300
     42 HAP2       -9.3610   -5.7200   -0.4990 hn        1 43E      0.524800
@<TRIPOS>BOND
     1    1    2 ar  
     2    1    8 ar  
     3    1   23 1   
     4    2    3 1   
     5    2    4 ar  
     6    4    5 ar  
     7    4   24 1   
     8    5    6 1   
     9    5    7 ar  
    10    7    8 ar  
    11    7   25 1   
    12    8    9 1   
    13    9   10 1   
    14    9   26 1   
    15    9   27 1   
    16   10   11 1   
    17   10   28 1   
    18   10   40 1   
    19   11   12 1   
    20   11   29 1   
    21   11   30 1   
    22   12   13 1   
    23   12   31 1   
    24   12   32 1   
    25   13   14 1   
    26   13   33 1   
    27   13   34 1   
    28   14   15 1   
    29   14   35 1   
    30   14   41 1   
    31   15   16 2   
    32   15   17 1   
    33   17   18 1   
    34   17   36 1   
    35   17   42 1   
    36   18   19 1   
    37   18   22 2   
    38   19   20 2   
    39   19   37 1   
    40   20   21 1   
    41   20   38 1   
    42   21   22 1   
    43   22   39 1   
@<TRIPOS>SUBSTRUCTURE
     1 43E         1 TEMP              0 ****  ****    0 ROOT
