@<TRIPOS>MOLECULE
43E
   41    42     1     0     0
SMALL
bcc


@<TRIPOS>ATOM
      1 CAH        -0.2900    0.5760    0.1520 ca        1 43E     -0.106500
      2 CAS         1.0650    0.8630   -0.0440 ca        1 43E      0.027900
      3 ClB         1.5790    1.4940   -1.5220 cl        1 43E     -0.007900
      4 CAG         1.9950    0.6350    0.9780 ca        1 43E     -0.062000
      5 CAT         1.5590    0.1140    2.2040 ca        1 43E      0.027900
      6 ClC         2.6700   -0.1600    3.4430 cl        1 43E     -0.007900
      7 CAI         0.2060   -0.1760    2.4100 ca        1 43E     -0.106500
      8 CAU        -0.7130    0.0560    1.3810 ca        1 43E     -0.189300
      9 CAM        -2.1590   -0.1990    1.6140 c3        1 43E      0.185100
     10 NAN        -2.5080   -1.6190    1.2190 ny        1 43E     -0.772000
     11 CAK        -3.9500   -1.9150    1.4350 c3        1 43E      0.102800
     12 CAJ        -4.3390   -3.3400    1.0420 c3        1 43E     -0.135400
     13 CAL        -5.8400   -3.5050    1.2790 c3        1 43E      0.104800
     14 NAO        -6.3710   -4.8250    0.8490 ny        1 43E     -0.687800
     15 CAR        -7.9500   -4.7740    0.8040 c         1 43E      0.629100
     16 OAA        -8.3440   -3.9080    0.0240 o         1 43E     -0.468100
     17 NAP        -8.6180   -5.5450    1.7160 ns        1 43E     -0.323100
     18 CAV       -10.0040   -5.7720    1.5560 cc        1 43E     -0.098400
     19 CAE       -10.9580   -4.7820    1.1390 cc        1 43E     -0.121000
     20 CAD       -12.2330   -5.3090    1.1690 cd        1 43E     -0.193100
     21 SAQ       -12.2540   -6.8880    1.6660 ss        1 43E      0.295200
     22 CAF       -10.6300   -6.9920    1.8570 cd        1 43E     -0.230100
     23 H1         -1.0160    0.7860   -0.6490 ha        1 43E      0.153500
     24 H2          3.0640    0.8720    0.8220 ha        1 43E      0.197000
     25 H3         -0.1290   -0.5590    3.3870 ha        1 43E      0.153500
     26 H4         -2.8000    0.4930    0.9940 hx        1 43E      0.115200
     27 H5         -2.4250   -0.0740    2.7030 hx        1 43E      0.115200
     28 H6         -1.9280   -2.2630    1.7700 hn        1 43E      0.456300
     29 H8         -4.5480   -1.1720    0.8280 hx        1 43E      0.119200
     30 H9         -4.1780   -1.7420    2.5280 hx        1 43E      0.119200
     31 H10        -3.7640   -4.0840    1.6560 hc        1 43E      0.086700
     32 H11        -4.0950   -3.5230   -0.0400 hc        1 43E      0.086700
     33 H12        -6.0770   -3.3790    2.3760 hx        1 43E      0.126700
     34 H13        -6.4060   -2.7110    0.7010 hx        1 43E      0.126700
     35 H14        -6.0160   -5.5630    1.4570 hn        1 43E      0.453800
     36 H15        -8.1350   -6.2740    2.2050 hn        1 43E      0.342500
     37 H16       -10.6950   -3.7660    0.8330 ha        1 43E      0.179000
     38 H17       -13.1350   -4.7520    0.8980 h4        1 43E      0.209000
     39 H18       -10.1230   -7.8990    2.1900 h4        1 43E      0.189000
     40 HAN2       -2.2640   -1.7520    0.2290 hn        1 43E      0.456300
     41 HAO2       -6.0720   -5.0210   -0.1130 hn        1 43E      0.453800
@<TRIPOS>BOND
     1    1    2 ar  
     2    1    8 ar  
     3    1   23 1   
     4    2    3 1   
     5    2    4 ar  
     6    4    5 ar  
     7    4   24 1   
     8    5    6 1   
     9    5    7 ar  
    10    7    8 ar  
    11    7   25 1   
    12    8    9 1   
    13    9   10 1   
    14    9   26 1   
    15    9   27 1   
    16   10   11 1   
    17   10   28 1   
    18   10   40 1   
    19   11   12 1   
    20   11   29 1   
    21   11   30 1   
    22   12   13 1   
    23   12   31 1   
    24   12   32 1   
    25   13   14 1   
    26   13   33 1   
    27   13   34 1   
    28   14   15 1   
    29   14   35 1   
    30   14   41 1   
    31   15   16 2   
    32   15   17 1   
    33   17   18 1   
    34   17   36 1   
    35   18   19 1   
    36   18   22 2   
    37   19   20 2   
    38   19   37 1   
    39   20   21 1   
    40   20   38 1   
    41   21   22 1   
    42   22   39 1   
@<TRIPOS>SUBSTRUCTURE
     1 43E         1 TEMP              0 ****  ****    0 ROOT
