@<TRIPOS>MOLECULE
43F
   30    31     1     0     0
SMALL
bcc


@<TRIPOS>ATOM
      1 C1          0.1370   -0.1450    0.0030 ca        1 43F      0.055100
      2 C2          1.5470   -0.0550    0.0650 ca        1 43F      0.129100
      3 C3          2.1770    0.0400    1.3110 ca        1 43F     -0.184000
      4 C4          1.4100    0.0450    2.4820 ca        1 43F     -0.062300
      5 C5          0.0160   -0.0430    2.4120 ca        1 43F     -0.140000
      6 C6         -0.6210   -0.1410    1.1760 ca        1 43F     -0.099000
      7 O7         -0.5140   -0.0750   -1.2270 os        1 43F     -0.219200
      8 C8         -0.7760   -1.2850   -1.8560 ca        1 43F      0.137100
      9 C9         -1.4020   -1.2130   -3.1190 ca        1 43F     -0.001600
     10 C10        -1.7050   -2.3940   -3.8000 ca        1 43F     -0.096000
     11 C11        -1.3870   -3.6300   -3.2310 ca        1 43F     -0.009600
     12 C12        -0.7650   -3.7010   -1.9810 ca        1 43F     -0.092000
     13 C13        -0.4610   -2.5300   -1.2960 ca        1 43F     -0.176000
     14 C14         2.0840    0.1310    3.8010 c3        1 43F      0.077300
     15 CL1         2.4510    1.7950    4.2340 cl        1 43F     -0.181400
     16 CL2        -1.7610   -5.0600   -4.0700 cl        1 43F     -0.088400
     17 CL3        -1.8040    0.2680   -3.8430 cl        1 43F     -0.062400
     18 O18         2.2060   -0.0850   -1.1430 os        1 43F     -0.305900
     19 CAA         3.6100    0.1510   -1.1010 c3        1 43F      0.109700
     20 H6         -1.7180   -0.2000    1.1110 ha        1 43F      0.156000
     21 H3          3.2720    0.1200    1.3800 ha        1 43F      0.148000
     22 H5         -0.5840   -0.0290    3.3340 ha        1 43F      0.144000
     23 H141        1.4350   -0.2710    4.6180 h1        1 43F      0.073700
     24 H142        3.0610   -0.4140    3.7940 h1        1 43F      0.073700
     25 H13         0.0330   -2.5780   -0.3130 ha        1 43F      0.153000
     26 H10        -2.1930   -2.3470   -4.7870 ha        1 43F      0.162000
     27 H12        -0.5160   -4.6770   -1.5370 ha        1 43F      0.151000
     28 HAA1        4.1290   -0.6740   -0.5560 h1        1 43F      0.049367
     29 HAA2        3.8340    1.1380   -0.6280 h1        1 43F      0.049367
     30 HAA3        3.9010    0.1540   -2.1830 h1        1 43F      0.049367
@<TRIPOS>BOND
     1    1    2 ar  
     2    1    6 ar  
     3    1    7 1   
     4    2    3 ar  
     5    2   18 1   
     6    3    4 ar  
     7    3   21 1   
     8    4    5 ar  
     9    4   14 1   
    10    5    6 ar  
    11    5   22 1   
    12    6   20 1   
    13    7    8 1   
    14    8    9 ar  
    15    8   13 ar  
    16    9   10 ar  
    17    9   17 1   
    18   10   11 ar  
    19   10   26 1   
    20   11   12 ar  
    21   11   16 1   
    22   12   13 ar  
    23   12   27 1   
    24   13   25 1   
    25   14   15 1   
    26   14   23 1   
    27   14   24 1   
    28   18   19 1   
    29   19   28 1   
    30   19   29 1   
    31   19   30 1   
@<TRIPOS>SUBSTRUCTURE
     1 43F         1 TEMP              0 ****  ****    0 ROOT
