@<TRIPOS>MOLECULE
43F
   30    26     1     0     0
SMALL
bcc


@<TRIPOS>ATOM
      1 C1         -0.1450    0.6290    0.0650 c1        1 43F      0.021000
      2 C2          1.2600    0.6530    0.0600 c1        1 43F      0.048000
      3 C3          1.9680    0.7190    1.2700 c1        1 43F     -0.115000
      4 C4          1.3060    0.7590    2.4420 c1        1 43F     -0.082000
      5 C5         -0.1050    0.7340    2.4560 c1        1 43F     -0.112000
      6 C6         -0.8180    0.6680    1.2410 c1        1 43F     -0.118000
      7 O7         -0.8570    0.7750   -1.1600 os        1 43F     -0.160000
      8 C8         -1.4750   -0.4900   -1.5160 c2        1 43F      0.058000
      9 C9         -2.8790   -0.7110   -1.2550 c2        1 43F     -0.066000
     10 C10        -3.4870   -1.9280   -1.6380 c1        1 43F     -0.112000
     11 C11        -2.7380   -2.9090   -2.2630 c1        1 43F     -0.067000
     12 C12        -1.3530   -2.6950   -2.5230 c1        1 43F     -0.108000
     13 C13        -0.7320   -1.4660   -2.1380 c1        1 43F     -0.138000
     14 C14         2.0860    0.9130    3.7470 c3        1 43F     -0.079000
     15 CL1         2.1890    2.5690    4.1540 cl        1 43F     -0.112000
     16 CL2        -3.4610   -4.3670   -2.6990 cl        1 43F     -0.005000
     17 CL3        -3.8900    0.6120   -0.5630 cl        1 43F      0.014000
     18 O18         1.9320    0.6580   -1.1170 os        1 43F     -0.229000
     19 CAA         2.6640    1.9380   -1.3900 c3        1 43F     -0.076000
     20 H6         -1.8510    0.6490    1.2450 ha        1 43F      0.156000
     21 H3          2.9380    0.7370    1.2600 ha        1 43F      0.155000
     22 H5         -0.6280    0.7650    3.3740 ha        1 43F      0.144000
     23 H141        1.5910    0.3870    4.5240 h1        1 43F      0.113000
     24 H142        2.9610    0.5600    3.6320 h1        1 43F      0.113000
     25 H13         0.2030   -1.3220   -2.3120 ha        1 43F      0.171000
     26 H10        -4.3680   -2.0670   -1.4750 ha        1 43F      0.164000
     27 H12        -0.8300   -3.3840   -2.9610 ha        1 43F      0.155000
     28 HAA1        3.4380    1.7660   -2.1150 h1        1 43F      0.089000
     29 HAA2        3.0360    2.2470   -0.6120 h1        1 43F      0.089000
     30 HAA3        2.0400    2.6010   -1.7330 h1        1 43F      0.089000
@<TRIPOS>BOND
     1    1    6 1   
     2    1    7 1   
     3    2    3 1   
     4    2   18 1   
     5    3   21 1   
     6    4    5 1   
     7    4   14 1   
     8    5   22 1   
     9    6   20 1   
    10    7    8 1   
    11    8    9 1   
    12    8   13 1   
    13    9   10 1   
    14    9   17 1   
    15   10   26 1   
    16   11   12 1   
    17   11   16 1   
    18   12   27 1   
    19   13   25 1   
    20   14   15 1   
    21   14   23 1   
    22   14   24 1   
    23   18   19 1   
    24   19   28 1   
    25   19   29 1   
    26   19   30 1   
@<TRIPOS>SUBSTRUCTURE
     1 43F         1 TEMP              0 ****  ****    0 ROOT
