@<TRIPOS>MOLECULE
43F
   30    31     1     0     0
SMALL
bcc


@<TRIPOS>ATOM
      1 C1          0.9000   -0.4400   -0.3130 ca        1 43F      0.055100
      2 C2          1.5710   -0.0930    0.8830 ca        1 43F      0.129100
      3 C3          2.8560    0.4570    0.8170 ca        1 43F     -0.184000
      4 C4          3.4650    0.6610   -0.4260 ca        1 43F     -0.062300
      5 C5          2.7950    0.3150   -1.6040 ca        1 43F     -0.140000
      6 C6          1.5140   -0.2320   -1.5500 ca        1 43F     -0.099000
      7 O7         -0.3060   -1.1360   -0.2610 os        1 43F     -0.219200
      8 C8         -1.4630   -0.3680   -0.2650 ca        1 43F      0.137100
      9 C9         -2.6820   -1.0720   -0.1740 ca        1 43F     -0.001600
     10 C10        -3.8850   -0.3600   -0.1860 ca        1 43F     -0.096000
     11 C11        -3.8700    1.0340   -0.2860 ca        1 43F     -0.009600
     12 C12        -2.6620    1.7300   -0.3740 ca        1 43F     -0.092000
     13 C13        -1.4610    1.0290   -0.3640 ca        1 43F     -0.176000
     14 C14         4.8220    1.2590   -0.4900 c3        1 43F      0.077300
     15 CL1         6.0750    0.0470   -0.2640 cl        1 43F     -0.181400
     16 CL2        -5.3400    1.8870   -0.2990 cl        1 43F     -0.088400
     17 CL3        -2.7420   -2.7630   -0.0520 cl        1 43F     -0.062400
     18 O18         0.8770   -0.3200    2.0500 os        1 43F     -0.305900
     19 CAA         1.5960   -0.1120    3.2620 c3        1 43F      0.109700
     20 H6          0.9840   -0.5160   -2.4720 ha        1 43F      0.156000
     21 H3          3.3980    0.7230    1.7360 ha        1 43F      0.148000
     22 H5          3.2810    0.4680   -2.5790 ha        1 43F      0.144000
     23 H141        5.0140    1.7280   -1.4860 h1        1 43F      0.073700
     24 H142        4.9690    2.0170    0.3180 h1        1 43F      0.073700
     25 H13        -0.5050    1.5710   -0.4280 ha        1 43F      0.153000
     26 H10        -4.8420   -0.9010   -0.1150 ha        1 43F      0.162000
     27 H12        -2.6550    2.8280   -0.4510 ha        1 43F      0.151000
     28 HAA1        0.8650   -0.4270    4.0490 h1        1 43F      0.049367
     29 HAA2        2.5120   -0.7500    3.2940 h1        1 43F      0.049367
     30 HAA3        1.8620    0.9660    3.3790 h1        1 43F      0.049367
@<TRIPOS>BOND
     1    1    2 ar  
     2    1    6 ar  
     3    1    7 1   
     4    2    3 ar  
     5    2   18 1   
     6    3    4 ar  
     7    3   21 1   
     8    4    5 ar  
     9    4   14 1   
    10    5    6 ar  
    11    5   22 1   
    12    6   20 1   
    13    7    8 1   
    14    8    9 ar  
    15    8   13 ar  
    16    9   10 ar  
    17    9   17 1   
    18   10   11 ar  
    19   10   26 1   
    20   11   12 ar  
    21   11   16 1   
    22   12   13 ar  
    23   12   27 1   
    24   13   25 1   
    25   14   15 1   
    26   14   23 1   
    27   14   24 1   
    28   18   19 1   
    29   19   28 1   
    30   19   29 1   
    31   19   30 1   
@<TRIPOS>SUBSTRUCTURE
     1 43F         1 TEMP              0 ****  ****    0 ROOT
