@<TRIPOS>MOLECULE
43F
   30    31     1     0     0
SMALL
bcc


@<TRIPOS>ATOM
      1 C1          0.1280   -0.1460    0.0110 ca        1 43F      0.055100
      2 C2          1.5390   -0.0540    0.0670 ca        1 43F      0.129100
      3 C3          2.1740    0.0400    1.3100 ca        1 43F     -0.184000
      4 C4          1.4130    0.0420    2.4840 ca        1 43F     -0.062300
      5 C5          0.0190   -0.0480    2.4200 ca        1 43F     -0.140000
      6 C6         -0.6240   -0.1440    1.1880 ca        1 43F     -0.099000
      7 O7         -0.5290   -0.0750   -1.2160 os        1 43F     -0.219200
      8 C8         -0.7800   -1.2840   -1.8510 ca        1 43F      0.137100
      9 C9         -1.3900   -1.2100   -3.1220 ca        1 43F     -0.001600
     10 C10        -1.6850   -2.3900   -3.8090 ca        1 43F     -0.096000
     11 C11        -1.3750   -3.6270   -3.2370 ca        1 43F     -0.009600
     12 C12        -0.7690   -3.7000   -1.9790 ca        1 43F     -0.092000
     13 C13        -0.4740   -2.5300   -1.2880 ca        1 43F     -0.176000
     14 C14         2.0930    0.1270    3.8000 c3        1 43F      0.077300
     15 Cl1         2.4600    1.7910    4.2340 cl        1 43F     -0.181400
     16 Cl2        -1.7380   -5.0550   -4.0830 cl        1 43F     -0.088400
     17 Cl3        -1.7820    0.2720   -3.8490 cl        1 43F     -0.062400
     18 O18         2.1920   -0.0810   -1.1450 os        1 43F     -0.306900
     19 CAA         3.5960    0.1530   -1.1090 c3        1 43F      0.109700
     20 H6         -1.7220   -0.2050    1.1280 ha        1 43F      0.156000
     21 H3          3.2690    0.1210    1.3730 ha        1 43F      0.148000
     22 H5         -0.5770   -0.0360    3.3450 ha        1 43F      0.144000
     23 H141        1.4480   -0.2770    4.6190 h1        1 43F      0.073700
     24 H142        3.0700   -0.4170    3.7880 h1        1 43F      0.073700
     25 H13         0.0070   -2.5790   -0.3000 ha        1 43F      0.153000
     26 H10        -2.1610   -2.3410   -4.8020 ha        1 43F      0.162000
     27 H12        -0.5250   -4.6760   -1.5340 ha        1 43F      0.151000
     28 HAA1        4.1170   -0.6730   -0.5670 h1        1 43F      0.049367
     29 HAA2        3.8230    1.1390   -0.6350 h1        1 43F      0.049367
     30 HAA3        3.8820    0.1580   -2.1920 h1        1 43F      0.049367
@<TRIPOS>BOND
     1    1    2 ar  
     2    1    6 ar  
     3    1    7 1   
     4    2    3 ar  
     5    2   18 1   
     6    3    4 ar  
     7    3   21 1   
     8    4    5 ar  
     9    4   14 1   
    10    5    6 ar  
    11    5   22 1   
    12    6   20 1   
    13    7    8 1   
    14    8    9 ar  
    15    8   13 ar  
    16    9   10 ar  
    17    9   17 1   
    18   10   11 ar  
    19   10   26 1   
    20   11   12 ar  
    21   11   16 1   
    22   12   13 ar  
    23   12   27 1   
    24   13   25 1   
    25   14   15 1   
    26   14   23 1   
    27   14   24 1   
    28   18   19 1   
    29   19   28 1   
    30   19   29 1   
    31   19   30 1   
@<TRIPOS>SUBSTRUCTURE
     1 43F         1 TEMP              0 ****  ****    0 ROOT
