@<TRIPOS>MOLECULE
43G
   33    35     1     0     0
SMALL
bcc


@<TRIPOS>ATOM
      1 C           0.1070    0.7090   -0.0440 cc        1 43G     -0.050100
      2 C1          1.4610    0.5040    0.0020 cd        1 43G      0.022000
      3 N           2.0610   -0.0260    1.1420 na        1 43G     -0.377600
      4 C2          1.2720   -0.3450    2.2330 cc        1 43G      0.102000
      5 C3         -0.0810   -0.1590    2.2400 cd        1 43G     -0.316200
      6 C4         -0.7760    0.3890    1.0900 c         1 43G      0.552500
      7 O          -2.0040    0.5860    1.0250 o         1 43G     -0.589100
      8 O5         -0.4220    1.2380   -1.1980 oh        1 43G     -0.494100
      9 C6          3.4670   -0.2450    1.1690 ca        1 43G      0.124600
     10 C7          4.2130    0.0800    2.3200 ca        1 43G     -0.136000
     11 C8          5.5950   -0.1380    2.3480 cp        1 43G     -0.013000
     12 C9          6.2370   -0.6730    1.2230 ca        1 43G     -0.122000
     13 C10         5.5000   -0.9910    0.0850 ca        1 43G     -0.112000
     14 C11         4.1240   -0.7870    0.0450 ca        1 43G     -0.138000
     15 C12         6.3630    0.2000    3.5460 cp        1 43G     -0.049000
     16 C13         7.6140    0.8240    3.4320 ca        1 43G     -0.115000
     17 C14         8.3450    1.1460    4.5730 ca        1 43G     -0.129000
     18 C15         7.8390    0.8460    5.8380 ca        1 43G     -0.121000
     19 C16         6.5970    0.2230    5.9590 ca        1 43G     -0.129000
     20 C17         5.8600   -0.0980    4.8210 ca        1 43G     -0.115000
     21 H1          2.1250    0.7590   -0.8410 h4        1 43G      0.176000
     22 H2          1.8060   -0.7720    3.1030 h4        1 43G      0.159000
     23 H4         -0.6790   -0.4250    3.1210 ha        1 43G      0.167000
     24 H6         -1.3810    1.3230   -1.0500 ho        1 43G      0.446000
     25 H7          3.7200    0.5220    3.2000 ha        1 43G      0.148000
     26 H8          7.3230   -0.8480    1.2450 ha        1 43G      0.144000
     27 H9          6.0090   -1.4150   -0.7950 ha        1 43G      0.142000
     28 H10         3.5580   -1.0540   -0.8610 ha        1 43G      0.149000
     29 H11         8.0130    1.0670    2.4360 ha        1 43G      0.134000
     30 H12         9.3230    1.6390    4.4740 ha        1 43G      0.135000
     31 H13         8.4180    1.1000    6.7380 ha        1 43G      0.135000
     32 H14         6.1960   -0.0170    6.9550 ha        1 43G      0.135000
     33 H15         4.8830   -0.5940    4.9210 ha        1 43G      0.134000
@<TRIPOS>BOND
     1    1    2 2   
     2    1    6 1   
     3    1    8 1   
     4    2    3 1   
     5    2   21 1   
     6    3    4 1   
     7    3    9 1   
     8    4    5 2   
     9    4   22 1   
    10    5    6 1   
    11    5   23 1   
    12    6    7 2   
    13    8   24 1   
    14    9   10 ar  
    15    9   14 ar  
    16   10   11 ar  
    17   10   25 1   
    18   11   12 ar  
    19   11   15 1   
    20   12   13 ar  
    21   12   26 1   
    22   13   14 ar  
    23   13   27 1   
    24   14   28 1   
    25   15   16 ar  
    26   15   20 ar  
    27   16   17 ar  
    28   16   29 1   
    29   17   18 ar  
    30   17   30 1   
    31   18   19 ar  
    32   18   31 1   
    33   19   20 ar  
    34   19   32 1   
    35   20   33 1   
@<TRIPOS>SUBSTRUCTURE
     1 43G         1 TEMP              0 ****  ****    0 ROOT
