@<TRIPOS>MOLECULE
43J
   35    35     1     0     0
SMALL
bcc


@<TRIPOS>ATOM
      1 C12        -0.3250    0.5730   -0.4160 ce        1 43J      0.026300
      2 C13         1.9910    0.5230    3.4950 ce        1 43J     -0.073000
      3 C18         3.3210    0.7270    3.5090 c2        1 43J     -0.162000
      4 C14         1.2400    0.1900    4.6990 ce        1 43J     -0.113000
      5 C15         1.6430   -0.6020    5.7060 cf        1 43J     -0.015700
      6 C16         2.8610   -1.2930    5.7880 ch        1 43J     -0.174300
      7 C11         1.0050    0.7590   -0.8100 cg        1 43J     -0.190300
      8 C9          1.2430    0.6680    2.2510 ce        1 43J     -0.072000
      9 C1         -4.9680   -0.0470    1.4090 ce        1 43J     -0.173200
     10 C6         -0.7620    0.3180    0.8370 cf        1 43J     -0.153600
     11 C4         -2.2400    0.1480    1.0300 cf        1 43J      0.244400
     12 N          -3.0180    1.2540    1.2180 nu        1 43J     -0.182500
     13 C          -4.3760    1.2000    1.4090 c1        1 43J     -0.178900
     14 C2         -4.2270   -1.2880    1.2160 c         1 43J      0.645300
     15 N3         -2.7990   -1.1050    1.0280 n         1 43J     -0.316400
     16 O          -4.6570   -2.4500    1.1930 o         1 43J     -0.565100
     17 C7         -1.9600   -2.2610    0.8140 c3        1 43J      0.044300
     18 C8          0.0010    0.1920    2.0600 cf        1 43J     -0.158000
     19 C10         2.1270    0.9170   -1.2020 c1        1 43J     -0.095500
     20 C17         3.8850   -1.9070    5.8950 c1        1 43J     -0.134500
     21 H1         -1.0570    0.6370   -1.2480 ha        1 43J      0.154000
     22 H2          3.8810    1.0050    2.6080 ha        1 43J      0.124500
     23 H3          3.9150    0.6200    4.4270 ha        1 43J      0.124500
     24 H4          0.2410    0.6600    4.7610 ha        1 43J      0.134000
     25 H5          0.9710   -0.7600    6.5740 ha        1 43J      0.144000
     26 H6          3.1190    1.0560   -1.5520 ha        1 43J      0.175500
     27 H7         -2.5810    2.1520    1.2250 hn        1 43J      0.322700
     28 H8         -6.6960    0.6600    1.6990 ho        1 43J      0.430000
     29 H9         -2.5270   -3.1860    1.1120 h1        1 43J      0.071700
     30 H10        -1.6830   -2.3370   -0.2710 h1        1 43J      0.071700
     31 H11        -1.0250   -2.1830    1.4300 h1        1 43J      0.071700
     32 H12        -0.5220   -0.3360    2.8800 ha        1 43J      0.142000
     33 H13         1.7780    1.1980    1.4410 ha        1 43J      0.137000
     34 H14         4.7890   -2.4510    5.9900 ha        1 43J      0.168500
     35 O5         -6.3220   -0.2290    1.5900 oh        1 43J     -0.473100
@<TRIPOS>BOND
     1    1    7 1   
     2    1   10 2   
     3    1   21 1   
     4    2    3 2   
     5    2    4 1   
     6    2    8 1   
     7    3   22 1   
     8    3   23 1   
     9    4    5 2   
    10    4   24 1   
    11    5    6 1   
    12    5   25 1   
    13    6   20 3   
    14    7   19 3   
    15    8   18 2   
    16    8   33 1   
    17    9   13 2   
    18    9   14 1   
    19    9   35 1   
    20   10   11 1   
    21   10   18 1   
    22   11   12 1   
    23   11   15 2   
    24   12   13 2   
    25   12   27 1   
    26   14   15 1   
    27   14   16 2   
    28   15   17 1   
    29   17   29 1   
    30   17   30 1   
    31   17   31 1   
    32   18   32 1   
    33   19   26 1   
    34   20   34 1   
    35   28   35 1   
@<TRIPOS>SUBSTRUCTURE
     1 43J         1 TEMP              0 ****  ****    0 ROOT
