@<TRIPOS>MOLECULE
43J
   35    35     1     0     0
SMALL
bcc


@<TRIPOS>ATOM
      1 C12        -0.1120    0.4710   -0.2990 c2        1 43J      0.003000
      2 C13         1.9250    0.0970    3.7140 c2        1 43J      0.048000
      3 C18         3.3830    0.3190    3.6020 c3        1 43J     -0.214000
      4 C14         1.3240   -0.4290    4.8120 c2        1 43J     -0.224000
      5 C15         1.9870   -0.8420    6.0170 c2        1 43J      0.204000
      6 C16         3.2890   -0.7570    6.2670 c1        1 43J     -0.581000
      7 C11         1.3030    0.4950   -0.5530 c2        1 43J     -0.463000
      8 C9          1.1400    0.5020    2.5510 c2        1 43J     -0.136000
      9 C1         -4.8930    0.2000    1.3570 c2        1 43J     -0.129000
     10 C6         -0.6650    0.1750    0.8990 c2        1 43J     -0.145000
     11 C4         -2.1500    0.1490    1.0420 c2        1 43J      0.126000
     12 N          -2.8000    1.2670    1.4760 n3        1 43J     -0.088000
     13 C          -4.1600    1.3340    1.6450 c1        1 43J     -0.242000
     14 C2         -4.2950   -1.0450    0.8870 c2        1 43J      0.320000
     15 N3         -2.8510   -0.9950    0.7480 n         1 43J     -0.214000
     16 O          -4.8570   -2.1110    0.5990 o         1 43J     -0.323000
     17 C7         -2.1380   -2.1630    0.2860 c3        1 43J     -0.108000
     18 C8          0.0700   -0.1760    2.0990 c2        1 43J     -0.104000
     19 C10         2.2920    0.5860    0.3250 c1        1 43J      0.231000
     20 C17         4.5280   -0.6910    6.5500 c1        1 43J      0.165000
     21 H1         -0.7600    0.6950   -1.1660 ha        1 43J      0.151000
     22 H2          3.6670    0.6820    2.5830 hc        1 43J      0.114667
     23 H3          3.7180    1.0670    4.3680 hc        1 43J      0.114667
     24 H4          0.2260   -0.5530    4.8140 ha        1 43J      0.135000
     25 H5          1.3170   -1.2680    6.7950 ha        1 43J      0.128000
     26 H6          1.5970    0.4330   -1.6260 ha        1 43J      0.204000
     27 H7         -2.2650    2.0830    1.6870 hn        1 43J      0.273000
     28 H8         -6.5360    1.0210    1.8030 ho        1 43J      0.231000
     29 H9         -2.8610   -3.0180    0.1740 h1        1 43J      0.108667
     30 H10        -1.3410   -2.4460    1.0250 h1        1 43J      0.108667
     31 H11        -1.6590   -1.9520   -0.7070 h1        1 43J      0.108667
     32 H12        -0.2950   -1.0780    2.6260 ha        1 43J      0.150000
     33 H13         1.4670    1.4610    2.0970 ha        1 43J      0.158000
     34 H14         3.9350   -0.6350    3.8150 hc        1 43J      0.114667
     35 O5         -6.2630    0.1440    1.4880 oh        1 43J     -0.226000
@<TRIPOS>BOND
     1    1    7 1   
     2    1   10 1   
     3    1   21 1   
     4    2    3 1   
     5    2    4 1   
     6    2    8 1   
     7    3   22 1   
     8    3   23 1   
     9    3   34 1   
    10    4    5 1   
    11    4   24 1   
    12    5    6 1   
    13    5   25 1   
    14    6   20 1   
    15    7   19 1   
    16    7   26 1   
    17    8   18 1   
    18    8   33 1   
    19    9   13 1   
    20    9   14 1   
    21    9   35 1   
    22   10   11 1   
    23   10   18 1   
    24   11   12 1   
    25   11   15 1   
    26   12   13 1   
    27   12   27 1   
    28   14   15 1   
    29   14   16 1   
    30   15   17 1   
    31   17   29 1   
    32   17   30 1   
    33   17   31 1   
    34   18   32 1   
    35   28   35 1   
@<TRIPOS>SUBSTRUCTURE
     1 43J         1 TEMP              0 ****  ****    0 ROOT
