@<TRIPOS>MOLECULE
43K
   49    54     1     0     0
SMALL
bcc


@<TRIPOS>ATOM
      1 C28        -0.0830    0.9350    0.1170 ca        1 43K     -0.236300
      2 C29         1.3260    1.1180    0.1240 ca        1 43K      0.620500
      3 F33         1.8840    1.9420   -0.7940 f         1 43K     -0.205200
      4 N30         2.1640    0.5080    1.0120 nb        1 43K     -0.667000
      5 C31         1.5930   -0.3090    1.9120 ca        1 43K      0.426200
      6 C32         0.2110   -0.5510    1.9970 ca        1 43K     -0.265300
      7 C15        -0.6360    0.0890    1.0820 cp        1 43K     -0.094500
      8 C12        -2.0930   -0.1250    1.1470 cp        1 43K      0.445800
      9 C14        -2.7250   -0.1220    2.4030 ca        1 43K     -0.203300
     10 N11        -2.7820   -0.3110   -0.0180 nb        1 43K     -0.598000
     11 C10        -4.0960   -0.5130    0.0510 ca        1 43K      0.415200
     12 C9         -4.8070   -0.5270    1.2880 ca        1 43K      0.034800
     13 O8         -6.1630   -0.7550    1.1900 os        1 43K     -0.195200
     14 C13        -4.1140   -0.3200    2.4820 ca        1 43K     -0.130300
     15 C21        -4.8330   -0.2900    3.8000 c3        1 43K      0.238800
     16 C16        -4.1330   -1.2630    4.8340 c3        1 43K      0.106400
     17 O17        -3.6750   -0.4010    5.9210 os        1 43K     -0.438400
     18 C18        -4.0720    0.8970    5.5610 c2        1 43K      0.590500
     19 N19        -4.6990    1.0690    4.4290 n2        1 43K     -0.493900
     20 N20        -3.7050    1.8950    6.5630 n4        1 43K     -0.767600
     21 C5         -6.2830   -0.6500    3.6460 ca        1 43K     -0.164300
     22 C6         -7.0990   -0.7730    4.7800 ca        1 43K     -0.083000
     23 C4         -6.8540   -0.8660    2.3870 ca        1 43K      0.150100
     24 C3         -8.2080   -1.2280    2.2520 ca        1 43K     -0.128000
     25 C2         -8.9880   -1.3600    3.3890 ca        1 43K     -0.064000
     26 C1         -8.4440   -1.1310    4.6690 cp        1 43K     -0.033000
     27 C7         -9.2860   -1.2580    5.8510 cp        1 43K     -0.192300
     28 C22       -10.6240   -0.8260    5.8220 ca        1 43K     -0.060000
     29 C23       -11.4230   -0.9590    6.9530 ca        1 43K     -0.249300
     30 C24       -10.8600   -1.5280    8.1120 ca        1 43K      0.438200
     31 N25        -9.5890   -1.9510    8.1930 nb        1 43K     -0.677000
     32 C26        -8.8190   -1.8200    7.0750 ca        1 43K      0.613500
     33 F27        -7.5410   -2.2660    7.1820 f         1 43K     -0.232200
     34 H1         -0.6980    1.4430   -0.6390 ha        1 43K      0.178000
     35 H2          2.2980   -0.8040    2.6070 h4        1 43K      0.038100
     36 H3         -0.1830   -1.2470    2.7480 ha        1 43K      0.143000
     37 H4         -2.1310    0.0380    3.3140 ha        1 43K      0.139000
     38 H5         -4.6370   -0.6710   -0.9020 h4        1 43K      0.065100
     39 H6         -4.8440   -1.9960    5.2880 h1        1 43K      0.114200
     40 H7         -3.2230   -1.7570    4.4160 h1        1 43K      0.114200
     41 H8         -4.0170    2.8310    6.2650 hn        1 43K      0.491800
     42 H9         -2.6810    1.8830    6.6780 hn        1 43K      0.491800
     43 H10        -6.6670   -0.5970    5.7780 ha        1 43K      0.133000
     44 H11        -8.6220   -1.4030    1.2460 ha        1 43K      0.176000
     45 H12       -10.0450   -1.6590    3.2910 ha        1 43K      0.161000
     46 H13       -11.0330   -0.3780    4.9030 ha        1 43K      0.152000
     47 H14       -12.4720   -0.6310    6.9500 ha        1 43K      0.165000
     48 H15       -11.4580   -1.6550    9.0360 h4        1 43K      0.046100
     49 H203       -4.1510    1.6390    7.4560 hn        1 43K      0.491800
@<TRIPOS>BOND
     1    1    2 ar  
     2    1    7 ar  
     3    1   34 1   
     4    2    3 1   
     5    2    4 ar  
     6    4    5 ar  
     7    5    6 ar  
     8    5   35 1   
     9    6    7 ar  
    10    6   36 1   
    11    7    8 1   
    12    8    9 ar  
    13    8   10 ar  
    14    9   14 ar  
    15    9   37 1   
    16   10   11 ar  
    17   11   12 ar  
    18   11   38 1   
    19   12   13 1   
    20   12   14 ar  
    21   13   23 1   
    22   14   15 1   
    23   15   16 1   
    24   15   19 1   
    25   15   21 1   
    26   16   17 1   
    27   16   39 1   
    28   16   40 1   
    29   17   18 1   
    30   18   19 2   
    31   18   20 1   
    32   20   41 1   
    33   20   42 1   
    34   20   49 1   
    35   21   22 ar  
    36   21   23 ar  
    37   22   26 ar  
    38   22   43 1   
    39   23   24 ar  
    40   24   25 ar  
    41   24   44 1   
    42   25   26 ar  
    43   25   45 1   
    44   26   27 1   
    45   27   28 ar  
    46   27   32 ar  
    47   28   29 ar  
    48   28   46 1   
    49   29   30 ar  
    50   29   47 1   
    51   30   31 ar  
    52   30   48 1   
    53   31   32 ar  
    54   32   33 1   
@<TRIPOS>SUBSTRUCTURE
     1 43K         1 TEMP              0 ****  ****    0 ROOT
