@<TRIPOS>MOLECULE
43K
   49    54     1     0     0
SMALL
bcc


@<TRIPOS>ATOM
      1 C28        -0.0870    0.9380    0.1120 ca        1 43K     -0.236300
      2 C29         1.3210    1.1250    0.1170 ca        1 43K      0.620500
      3 F33         1.8770    1.9490   -0.8020 f         1 43K     -0.205200
      4 N30         2.1620    0.5180    1.0060 nb        1 43K     -0.667000
      5 C31         1.5930   -0.2990    1.9070 ca        1 43K      0.426200
      6 C32         0.2110   -0.5440    1.9930 ca        1 43K     -0.265300
      7 C15        -0.6380    0.0930    1.0780 cp        1 43K     -0.094500
      8 C12        -2.0940   -0.1250    1.1440 cp        1 43K      0.445800
      9 C14        -2.7260   -0.1220    2.4010 ca        1 43K     -0.203300
     10 N11        -2.7840   -0.3150   -0.0200 nb        1 43K     -0.598000
     11 C10        -4.0970   -0.5190    0.0500 ca        1 43K      0.415200
     12 C9         -4.8070   -0.5330    1.2880 ca        1 43K      0.034800
     13 O8         -6.1620   -0.7650    1.1900 os        1 43K     -0.195200
     14 C13        -4.1140   -0.3230    2.4810 ca        1 43K     -0.130300
     15 C21        -4.8320   -0.2930    3.7990 c3        1 43K      0.238800
     16 C16        -4.1300   -1.2630    4.8340 c3        1 43K      0.106400
     17 O17        -3.6730   -0.3990    5.9200 os        1 43K     -0.438400
     18 C18        -4.0730    0.8980    5.5580 c2        1 43K      0.590500
     19 N19        -4.7010    1.0670    4.4270 n2        1 43K     -0.493900
     20 N20        -3.7070    1.8990    6.5590 nz        1 43K     -0.767600
     21 C5         -6.2810   -0.6570    3.6470 ca        1 43K     -0.164300
     22 C6         -7.0960   -0.7810    4.7810 ca        1 43K     -0.083000
     23 C4         -6.8520   -0.8760    2.3880 ca        1 43K      0.150100
     24 C3         -8.2050   -1.2420    2.2540 ca        1 43K     -0.128000
     25 C2         -8.9850   -1.3740    3.3920 ca        1 43K     -0.064000
     26 C1         -8.4400   -1.1420    4.6710 cp        1 43K     -0.033000
     27 C7         -9.2820   -1.2700    5.8540 cp        1 43K     -0.192300
     28 C22       -10.6200   -0.8410    5.8260 ca        1 43K     -0.060000
     29 C23       -11.4180   -0.9750    6.9570 ca        1 43K     -0.249300
     30 C24       -10.8530   -1.5410    8.1170 ca        1 43K      0.438200
     31 N25        -9.5820   -1.9610    8.1970 nb        1 43K     -0.677000
     32 C26        -8.8120   -1.8290    7.0780 ca        1 43K      0.613500
     33 F27        -7.5330   -2.2720    7.1850 f         1 43K     -0.232200
     34 H1         -0.7040    1.4440   -0.6440 ha        1 43K      0.178000
     35 H2          2.2990   -0.7910    2.6030 h4        1 43K      0.038100
     36 H3         -0.1800   -1.2400    2.7460 ha        1 43K      0.143000
     37 H4         -2.1310    0.0410    3.3110 ha        1 43K      0.139000
     38 H5         -4.6380   -0.6800   -0.9020 h4        1 43K      0.065100
     39 H6         -4.8380   -1.9980    5.2890 h1        1 43K      0.114200
     40 H7         -3.2180   -1.7550    4.4170 h1        1 43K      0.114200
     41 H8         -4.0280    2.8320    6.2630 hn        1 43K      0.491800
     42 H9         -4.1460    1.6390    7.4540 hn        1 43K      0.491800
     43 H10        -6.6640   -0.6030    5.7790 ha        1 43K      0.133000
     44 H11        -8.6200   -1.4190    1.2490 ha        1 43K      0.176000
     45 H12       -10.0410   -1.6760    3.2950 ha        1 43K      0.161000
     46 H13       -11.0310   -0.3950    4.9060 ha        1 43K      0.152000
     47 H14       -12.4680   -0.6500    6.9540 ha        1 43K      0.165000
     48 H15       -11.4510   -1.6690    9.0400 h4        1 43K      0.046100
     49 H203       -2.6830    1.8930    6.6680 hn        1 43K      0.491800
@<TRIPOS>BOND
     1    1    2 ar  
     2    1    7 ar  
     3    1   34 1   
     4    2    3 1   
     5    2    4 ar  
     6    4    5 ar  
     7    5    6 ar  
     8    5   35 1   
     9    6    7 ar  
    10    6   36 1   
    11    7    8 1   
    12    8    9 ar  
    13    8   10 ar  
    14    9   14 ar  
    15    9   37 1   
    16   10   11 ar  
    17   11   12 ar  
    18   11   38 1   
    19   12   13 1   
    20   12   14 ar  
    21   13   23 1   
    22   14   15 1   
    23   15   16 1   
    24   15   19 1   
    25   15   21 1   
    26   16   17 1   
    27   16   39 1   
    28   16   40 1   
    29   17   18 1   
    30   18   19 2   
    31   18   20 1   
    32   20   41 1   
    33   20   42 1   
    34   20   49 1   
    35   21   22 ar  
    36   21   23 ar  
    37   22   26 ar  
    38   22   43 1   
    39   23   24 ar  
    40   24   25 ar  
    41   24   44 1   
    42   25   26 ar  
    43   25   45 1   
    44   26   27 1   
    45   27   28 ar  
    46   27   32 ar  
    47   28   29 ar  
    48   28   46 1   
    49   29   30 ar  
    50   29   47 1   
    51   30   31 ar  
    52   30   48 1   
    53   31   32 ar  
    54   32   33 1   
@<TRIPOS>SUBSTRUCTURE
     1 43K         1 TEMP              0 ****  ****    0 ROOT
