@<TRIPOS>MOLECULE
43M
   16    16     1     0     0
SMALL
bcc


@<TRIPOS>ATOM
      1 C1          0.7730   -0.4790    1.9470 ca        1 43M     -0.087000
      2 C2          1.8180   -1.0710    2.6650 ca        1 43M     -0.022600
      3 C3          2.8980   -1.6750    2.0020 ca        1 43M     -0.026300
      4 C7          4.0090   -2.3040    2.7530 c3        1 43M     -0.058800
      5 C4          2.9140   -1.6770    0.6030 ca        1 43M     -0.210000
      6 C5          1.8660   -1.0830   -0.1100 ca        1 43M      0.130100
      7 C6          0.7870   -0.4790    0.5580 ca        1 43M     -0.155000
      8 CL1         1.7550   -1.0450    4.3660 cl        1 43M     -0.097400
      9 O1          1.8270   -1.0540   -1.4850 oh        1 43M     -0.495100
     10 H1         -0.0670   -0.0100    2.4830 ha        1 43M      0.149000
     11 H71         4.5070   -1.5480    3.4110 hc        1 43M      0.053033
     12 H72         3.6180   -3.1280    3.4020 hc        1 43M      0.053033
     13 H73         4.7750   -2.7320    2.0620 hc        1 43M      0.053033
     14 H4          3.7510   -2.1450    0.0650 ha        1 43M      0.138000
     15 H6         -0.0250   -0.0190   -0.0220 ha        1 43M      0.155000
     16 HO1         2.6210   -1.4990   -1.8160 ho        1 43M      0.421000
@<TRIPOS>BOND
     1    1    2 ar  
     2    1    7 ar  
     3    1   10 1   
     4    2    3 ar  
     5    2    8 1   
     6    3    4 1   
     7    3    5 ar  
     8    4   11 1   
     9    4   12 1   
    10    4   13 1   
    11    5    6 ar  
    12    5   14 1   
    13    6    7 ar  
    14    6    9 1   
    15    7   15 1   
    16    9   16 1   
@<TRIPOS>SUBSTRUCTURE
     1 43M         1 TEMP              0 ****  ****    0 ROOT
