@<TRIPOS>MOLECULE
43M
   16    16     1     0     0
SMALL
bcc


@<TRIPOS>ATOM
      1 C1         -0.0190    0.0570   -0.0390 ca        1 43M     -0.087000
      2 C2          1.3800    0.0350   -0.0060 ca        1 43M     -0.022600
      3 C3          2.0720   -0.0570    1.2120 ca        1 43M     -0.026300
      4 C7          3.5520   -0.0810    1.2570 c3        1 43M     -0.058800
      5 C4          1.3370   -0.1270    2.4000 ca        1 43M     -0.210000
      6 C5         -0.0620   -0.1040    2.3610 ca        1 43M      0.130100
      7 C6         -0.7500   -0.0130    1.1390 ca        1 43M     -0.155000
      8 Cl1         2.2310    0.1220   -1.4790 cl        1 43M     -0.097400
      9 O1         -0.8360   -0.1700    3.4960 oh        1 43M     -0.495100
     10 H1         -0.5460    0.1290   -1.0040 ha        1 43M      0.149000
     11 H71         3.9250   -0.1560    2.3070 hc        1 43M      0.053033
     12 H72         3.9680    0.8520    0.7990 hc        1 43M      0.053033
     13 H73         3.9420   -0.9560    0.6780 hc        1 43M      0.053033
     14 H4          1.8610   -0.1990    3.3640 ha        1 43M      0.138000
     15 H6         -1.8490    0.0030    1.1320 ha        1 43M      0.155000
     16 HO1        -0.2440   -0.2300    4.2600 ho        1 43M      0.421000
@<TRIPOS>BOND
     1    1    2 ar  
     2    1    7 ar  
     3    1   10 1   
     4    2    3 ar  
     5    2    8 1   
     6    3    4 1   
     7    3    5 ar  
     8    4   11 1   
     9    4   12 1   
    10    4   13 1   
    11    5    6 ar  
    12    5   14 1   
    13    6    7 ar  
    14    6    9 1   
    15    7   15 1   
    16    9   16 1   
@<TRIPOS>SUBSTRUCTURE
     1 43M         1 TEMP              0 ****  ****    0 ROOT
