@<TRIPOS>MOLECULE
43M
   16    16     1     0     0
SMALL
bcc


@<TRIPOS>ATOM
      1 C1         -0.0070    0.0390   -0.0510 ca        1 43M     -0.087000
      2 C2          1.3920    0.0440   -0.0040 ca        1 43M     -0.022600
      3 C3          2.0730   -0.0410    1.2200 ca        1 43M     -0.026300
      4 C7          3.5530   -0.0360    1.2790 c3        1 43M     -0.058800
      5 C4          1.3290   -0.1300    2.4010 ca        1 43M     -0.210000
      6 C5         -0.0700   -0.1340    2.3480 ca        1 43M      0.130100
      7 C6         -0.7480   -0.0490    1.1200 ca        1 43M     -0.155000
      8 CL1         2.2550    0.1540   -1.4680 cl        1 43M     -0.097400
      9 O1         -0.8540   -0.2190    3.4750 oh        1 43M     -0.495100
     10 H1         -0.5260    0.1060   -1.0200 ha        1 43M      0.149000
     11 H71         3.9170   -0.1100    2.3330 hc        1 43M      0.053033
     12 H72         3.9550    0.9060    0.8300 hc        1 43M      0.053033
     13 H73         3.9650   -0.9010    0.7000 hc        1 43M      0.053033
     14 H4          1.8450   -0.1960    3.3690 ha        1 43M      0.138000
     15 H6         -1.8470   -0.0540    1.1020 ha        1 43M      0.155000
     16 HO1        -0.2680   -0.2710    4.2440 ho        1 43M      0.421000
@<TRIPOS>BOND
     1    1    2 ar  
     2    1    7 ar  
     3    1   10 1   
     4    2    3 ar  
     5    2    8 1   
     6    3    4 1   
     7    3    5 ar  
     8    4   11 1   
     9    4   12 1   
    10    4   13 1   
    11    5    6 ar  
    12    5   14 1   
    13    6    7 ar  
    14    6    9 1   
    15    7   15 1   
    16    9   16 1   
@<TRIPOS>SUBSTRUCTURE
     1 43M         1 TEMP              0 ****  ****    0 ROOT
