@<TRIPOS>MOLECULE
43M
   16    13     1     0     0
SMALL
bcc


@<TRIPOS>ATOM
      1 C1         -1.2470   -0.0460   -1.3510 c1        1 43M     -0.121000
      2 C2          0.1390   -0.0460   -1.3510 c1        1 43M     -0.101000
      3 C3          0.8320   -0.0460   -0.1510 c1        1 43M     -0.019000
      4 C7          2.3450   -0.0480   -0.1510 c2        1 43M     -0.184000
      5 C4          0.1390   -0.0460    1.0490 c2        1 43M     -0.210000
      6 C5         -1.2470   -0.0460    1.0490 c1        1 43M      0.085000
      7 C6         -1.9400   -0.0460   -0.1510 c1        1 43M     -0.121000
      8 CL1         1.0110   -0.0770   -2.8610 cl        1 43M     -0.019000
      9 O1         -1.9500   -0.0740    2.2670 oh        1 43M     -0.249000
     10 H1         -1.7350   -0.0460   -2.1970 ha        1 43M      0.152000
     11 H71         2.6720    0.7250   -0.6500 ha        1 43M      0.092333
     12 H72         2.6700   -0.8670   -0.5710 ha        1 43M      0.092333
     13 H73         2.6710   -0.0030    0.7680 ha        1 43M      0.092333
     14 H4          0.6270   -0.0460    1.8950 ha        1 43M      0.138000
     15 H6         -2.9160   -0.0460   -0.1510 ha        1 43M      0.152000
     16 HO1        -2.0720    0.7560    2.5580 ho        1 43M      0.220000
@<TRIPOS>BOND
     1    1    7 1   
     2    1   10 1   
     3    2    3 1   
     4    2    8 1   
     5    3    5 1   
     6    4   11 1   
     7    4   12 1   
     8    4   13 1   
     9    5    6 1   
    10    5   14 1   
    11    6    9 1   
    12    7   15 1   
    13    9   16 1   
@<TRIPOS>SUBSTRUCTURE
     1 43M         1 TEMP              0 ****  ****    0 ROOT
