@<TRIPOS>MOLECULE
43N
   74    74     1     0     0
SMALL
bcc


@<TRIPOS>ATOM
      1 C1         -0.1180    1.3890    6.6470 c3        1 43N     -0.277000
      2 C2          4.1970   -0.9930    1.0930 cv        1 43N      0.037000
      3 C7          6.7590    0.8300    4.5950 c2        1 43N     -0.302000
      4 C8          5.6050    1.5010    4.4230 c2        1 43N      0.106000
      5 C9          4.4000    0.9660    3.7990 c2        1 43N     -0.103000
      6 C10         3.0550    1.1610    4.5180 c2        1 43N      0.381000
      7 C14         4.8280    3.7490    4.3780 c2        1 43N      0.086000
      8 C15         1.0100    5.5660    4.2740 c1        1 43N      0.161000
      9 C16         2.0610    5.0290    3.7060 c2        1 43N     -0.467000
     10 C19         4.8280    3.9320    3.0430 c2        1 43N     -0.258000
     11 C21         7.4660   -0.5450    0.3410 c2        1 43N     -0.256000
     12 C22         8.9470   -0.2930    0.3600 c3        1 43N      0.060000
     13 C24         9.8060    1.9700    0.5900 c1        1 43N     -0.221000
     14 C27         9.5740   -0.3910    1.8060 c3        1 43N     -0.184000
     15 C30         9.7190   -2.1190   -2.7330 c2        1 43N     -0.274000
     16 C31         9.1210   -3.1820   -2.2690 c1        1 43N     -0.213000
     17 C32         8.3500   -4.0630   -1.7060 c1        1 43N     -0.283000
     18 C33         6.3640   -2.5610   -0.5520 c3        1 43N     -0.292500
     19 C35         7.4940   -6.1460   -0.9450 c2        1 43N      0.078000
     20 C25        10.2330    2.2110    1.9000 c1        1 43N      0.139000
     21 C26         9.9220    0.8890    2.5860 c3        1 43N     -0.263000
     22 C23         9.2860    1.0590   -0.0520 c1        1 43N     -0.116000
     23 C17         2.9340    5.5370    2.6830 c2        1 43N     -0.081000
     24 C5          5.3150   -0.3160    1.6090 cv        1 43N     -0.290000
     25 C6          6.6740   -0.1200    1.3650 c2        1 43N      0.064000
     26 C4          4.4180    0.2590    2.6630 cv        1 43N      0.020000
     27 C18         4.1490    5.0290    2.3960 c2        1 43N     -0.025000
     28 C36         7.4600   -7.5100   -0.8530 c2        1 43N     -0.287000
     29 C37         8.4520   -8.3150   -1.5750 c2        1 43N      0.359000
     30 C40         9.4060   -6.1950   -2.4260 c2        1 43N      0.359000
     31 C29         6.0740   -0.3590   -1.6370 c3        1 43N     -0.292500
     32 C42         6.4500   -8.2250   -0.0500 c3        1 43N     -0.139000
     33 N39         9.3860   -7.6030   -2.3390 ns        1 43N     -0.373000
     34 N34         8.4220   -5.4550   -1.7030 n         1 43N     -0.133000
     35 N28         6.9700   -1.2430   -0.8500 nx        1 43N      0.100000
     36 N3          3.3140   -0.3810    1.9670 na        1 43N     -0.214000
     37 O11         2.8290    2.2720    5.0680 o         1 43N     -0.545500
     38 O12         2.2530    0.1890    4.5010 o         1 43N     -0.545500
     39 Cl          5.0320    5.7240    1.0900 cl        1 43N     -0.069000
     40 H1         -0.2840    0.4220    7.1700 hc        1 43N      0.068500
     41 H2          0.7900    1.3120    5.9990 hc        1 43N      0.068500
     42 H3          3.9760   -1.7060    0.3030 h4        1 43N      0.174000
     43 H4         -1.0050    1.6240    6.0190 hc        1 43N      0.068500
     44 H5          0.0270    2.1950    7.3970 hc        1 43N      0.068500
     45 H6          6.8620   -0.2140    4.2790 ha        1 43N      0.124000
     46 H7          4.3310    4.3900    5.1280 h4        1 43N      0.179000
     47 H8          2.2990    3.9860    4.0930 ha        1 43N      0.277000
     48 H9          5.3530    3.2250    2.3800 ha        1 43N      0.143000
     49 H10         7.6130    1.2760    5.1170 ha        1 43N      0.124000
     50 H11         9.0710    1.1510    3.2830 hc        1 43N      0.138500
     51 H12         8.8790   -1.0080    2.4300 hc        1 43N      0.101000
     52 H13         5.7600   -0.8980   -2.5680 hx        1 43N      0.141167
     53 H14         6.6250    0.5800   -1.9070 hx        1 43N      0.141167
     54 H15         9.4810   -1.6920   -3.7160 ha        1 43N      0.098000
     55 H16        10.5490   -1.6310   -2.2040 ha        1 43N      0.098000
     56 H17         7.1850   -3.4180   -0.9750 hx        1 43N      0.141167
     57 H18         5.4020   -2.6820   -1.1020 hx        1 43N      0.141167
     58 H19         6.2050   -2.6890    0.5420 hx        1 43N      0.141167
     59 H20         6.7640   -5.5110   -0.4050 h4        1 43N      0.166000
     60 H21        10.8190    0.6680    3.2280 hc        1 43N      0.138500
     61 H22        10.5240   -0.9750    1.6780 hc        1 43N      0.101000
     62 H23         9.4910   -1.0480   -0.2870 hc        1 43N      0.148000
     63 H24         2.5430    6.3920    2.1030 ha        1 43N      0.126000
     64 H25         7.1830    0.4780    2.1570 ha        1 43N      0.162000
     65 H26         5.1720   -0.0930   -1.0260 hx        1 43N      0.141167
     66 H27         7.7950   -1.4500   -1.4540 hn        1 43N      0.264000
     67 H28         5.6340   -8.6140   -0.7110 hc        1 43N      0.079333
     68 H29         6.9190   -9.1000    0.4670 hc        1 43N      0.079333
     69 H30         5.9940   -7.5520    0.7180 hc        1 43N      0.079333
     70 H31        10.0840   -8.0970   -2.8490 hn        1 43N      0.251000
     71 H33         2.5060   -0.7310    2.4300 hn        1 43N      0.276000
     72 O38         8.5220   -9.5600   -1.5550 o         1 43N     -0.378000
     73 O13         5.5340    2.7580    5.0280 os        1 43N     -0.162000
     74 O41        10.2800   -5.6550   -3.1350 o         1 43N     -0.353000
@<TRIPOS>BOND
     1    1   40 1   
     2    1   41 1   
     3    1   43 1   
     4    1   44 1   
     5    2   24 1   
     6    2   36 1   
     7    2   42 1   
     8    3    4 1   
     9    3   45 1   
    10    3   49 1   
    11    4    5 1   
    12    4   73 1   
    13    5    6 1   
    14    5   26 1   
    15    6   37 1   
    16    6   38 1   
    17    7   10 1   
    18    7   46 1   
    19    7   73 1   
    20    8    9 1   
    21    9   23 1   
    22    9   47 1   
    23   10   27 1   
    24   10   48 1   
    25   11   12 1   
    26   11   25 1   
    27   11   35 1   
    28   12   14 1   
    29   12   22 1   
    30   12   62 1   
    31   13   20 1   
    32   13   22 1   
    33   14   21 1   
    34   14   51 1   
    35   14   61 1   
    36   15   16 1   
    37   15   54 1   
    38   15   55 1   
    39   16   17 1   
    40   17   34 1   
    41   18   35 1   
    42   18   56 1   
    43   18   57 1   
    44   18   58 1   
    45   19   28 1   
    46   19   34 1   
    47   19   59 1   
    48   20   21 1   
    49   21   50 1   
    50   21   60 1   
    51   23   27 1   
    52   23   63 1   
    53   24   25 1   
    54   24   26 1   
    55   25   64 1   
    56   26   36 1   
    57   27   39 1   
    58   28   29 1   
    59   28   32 1   
    60   29   33 1   
    61   29   72 1   
    62   30   33 1   
    63   30   34 1   
    64   30   74 1   
    65   31   35 1   
    66   31   52 1   
    67   31   53 1   
    68   31   65 1   
    69   32   67 1   
    70   32   68 1   
    71   32   69 1   
    72   33   70 1   
    73   35   66 1   
    74   36   71 1   
@<TRIPOS>SUBSTRUCTURE
     1 43N         1 TEMP              0 ****  ****    0 ROOT
