@<TRIPOS>MOLECULE
43N
   74    75     1     0     0
SMALL
bcc


@<TRIPOS>ATOM
      1 C1          0.8070    0.0100   -1.0850 c3        1 43N     -0.286000
      2 C2          4.0110   -0.4050    0.9520 cv        1 43N     -0.007000
      3 C7          8.2600    1.0170    2.0500 c2        1 43N     -0.284000
      4 C8          7.5660    0.8170    3.1840 c2        1 43N      0.096000
      5 C9          6.3380    0.0420    3.3130 c2        1 43N     -0.150000
      6 C10         6.1910   -0.8670    4.5260 c2        1 43N      0.382000
      7 C14         7.3730    1.9490    5.2640 c2        1 43N      0.090000
      8 C15         5.1360    1.2430    8.7840 c1        1 43N      0.150000
      9 C16         5.2940    1.7410    7.5840 c2        1 43N     -0.461000
     10 C19         6.3600    2.7720    4.9300 c2        1 43N     -0.266000
     11 C21         5.8860    1.0950   -1.2900 c2        1 43N     -0.010000
     12 C22         6.5160    2.0890   -2.1470 c2        1 43N     -0.079000
     13 C24         7.1820    3.3940   -3.9830 cx        1 43N     -0.159000
     14 C27         7.3250    3.2340   -1.5050 c3        1 43N     -0.036000
     15 C30         8.3400   -3.4700    5.0340 c3        1 43N     -0.281000
     16 C31         7.9150   -4.3600    3.9950 c1        1 43N     -0.106000
     17 C32         7.6190   -3.8410    2.6640 c3        1 43N     -0.093000
     18 C33         4.1480   -0.3990   -1.9850 c1        1 43N     -0.188000
     19 C35         6.8900   -6.1410    2.1130 c2        1 43N      0.080000
     20 C25         8.6480    3.6220   -3.7920 cu        1 43N     -0.136000
     21 C26         7.9220    3.8180   -2.7070 cu        1 43N     -0.161000
     22 C23         6.4930    2.1580   -3.5080 c2        1 43N     -0.152000
     23 C17         5.1290    3.0820    7.0920 c2        1 43N     -0.087000
     24 C5          5.1250    0.4130    0.9530 cv        1 43N     -0.208000
     25 C6          5.7580    1.2990    0.0510 c2        1 43N     -0.008000
     26 C4          5.3900    0.0090    2.3680 cv        1 43N      0.037000
     27 C18         5.5990    3.5160    5.9060 c2        1 43N     -0.017000
     28 C36         6.5460   -7.1320    1.2340 c2        1 43N     -0.290000
     29 C37         6.5840   -6.8730   -0.2080 c2        1 43N      0.360000
     30 C40         7.3190   -4.5720    0.3210 c2        1 43N      0.389000
     31 C29         6.4940   -0.9890   -2.3700 c3        1 43N     -0.166000
     32 C42         6.1220   -8.4730    1.6780 c3        1 43N     -0.137000
     33 N39         6.9730   -5.5780   -0.5970 n         1 43N     -0.370000
     34 N34         7.2750   -4.8830    1.6990 n         1 43N     -0.237000
     35 N28         5.4210   -0.1140   -1.9200 n3        1 43N     -0.094000
     36 N3          4.1170   -0.7090    2.3440 na        1 43N     -0.222000
     37 O11         6.5280   -0.4620    5.6720 o         1 43N     -0.573000
     38 O12         5.7670   -2.0440    4.3100 o         1 43N     -0.573000
     39 CL          5.2590    5.1410    5.4420 cl        1 43N     -0.075000
     40 H1          0.2440   -0.7300   -1.6940 hc        1 43N      0.071000
     41 H2          0.7890   -0.2990   -0.0170 hc        1 43N      0.071000
     42 H3          3.2240   -0.6830    0.2530 h4        1 43N      0.197000
     43 H4          0.3320    1.0100   -1.1860 hc        1 43N      0.071000
     44 H5          1.8650    0.0620   -1.4390 hc        1 43N      0.071000
     45 H6          7.9350    0.5770    1.1010 ha        1 43N      0.124500
     46 H7          7.7410    1.7520    6.2860 h4        1 43N      0.172000
     47 H8          5.6040    0.9640    6.8130 ha        1 43N      0.279000
     48 H9          6.0570    2.8940    3.8770 ha        1 43N      0.149000
     49 H10         9.1920    1.5930    2.0360 ha        1 43N      0.124500
     50 H11         6.5980    4.0450   -4.6490 hc        1 43N      0.125000
     51 H12         6.6460    3.9390   -0.9630 hc        1 43N      0.119000
     52 H13         6.9820   -1.4870   -1.4880 h1        1 43N      0.097333
     53 H14         8.8340   -4.0190    5.8720 hc        1 43N      0.133667
     54 H15         8.9900   -2.6180    4.7090 hc        1 43N      0.133667
     55 H16         7.3770   -2.9950    5.4330 hc        1 43N      0.133667
     56 H17         6.7220   -3.1330    2.7760 h1        1 43N      0.165500
     57 H18         3.9050   -1.3750   -2.4630 ha        1 43N      0.029000
     58 H19         8.4650   -3.2360    2.2200 h1        1 43N      0.165500
     59 H20         6.8910   -6.2900    3.2160 h4        1 43N      0.209000
     60 H21         9.5850    3.6640   -4.3060 ha        1 43N      0.187000
     61 H22         8.0930    2.8430   -0.7920 hc        1 43N      0.119000
     62 H23         5.9860    1.4790   -4.1920 ha        1 43N      0.146000
     63 H24         4.5610    3.7660    7.7460 ha        1 43N      0.125000
     64 H25         6.1950    2.2100    0.5010 ha        1 43N      0.141000
     65 H26         6.0750   -1.7780   -3.0480 h1        1 43N      0.097333
     66 H27         7.2650   -0.3970   -2.9290 h1        1 43N      0.097333
     67 H28         5.0190   -8.5970    1.5310 hc        1 43N      0.079667
     68 H29         6.6390   -9.2590    1.0720 hc        1 43N      0.079667
     69 H30         6.3590   -8.6330    2.7580 hc        1 43N      0.079667
     70 H31         7.0100   -5.3420   -1.5640 hn        1 43N      0.253000
     71 H33         4.1080   -1.6480    2.6830 hn        1 43N      0.220000
     72 O38         6.3090   -7.6960   -1.1030 o         1 43N     -0.373000
     73 O13         8.1680    1.2790    4.3620 os        1 43N     -0.174000
     74 O41         7.6600   -3.4410   -0.0980 o         1 43N     -0.391000
@<TRIPOS>BOND
     1    1   40 1   
     2    1   41 1   
     3    1   43 1   
     4    1   44 1   
     5    2   24 1   
     6    2   36 1   
     7    2   42 1   
     8    3    4 1   
     9    3   45 1   
    10    3   49 1   
    11    4    5 1   
    12    4   73 1   
    13    5    6 1   
    14    5   26 1   
    15    6   37 1   
    16    6   38 1   
    17    7   10 1   
    18    7   46 1   
    19    7   73 1   
    20    8    9 1   
    21    9   23 1   
    22    9   47 1   
    23   10   27 1   
    24   10   48 1   
    25   11   12 1   
    26   11   25 1   
    27   11   35 1   
    28   12   14 1   
    29   12   22 1   
    30   13   20 1   
    31   13   21 1   
    32   13   22 1   
    33   13   50 1   
    34   14   21 1   
    35   14   51 1   
    36   14   61 1   
    37   15   16 1   
    38   15   53 1   
    39   15   54 1   
    40   15   55 1   
    41   16   17 1   
    42   17   34 1   
    43   17   56 1   
    44   17   58 1   
    45   18   35 1   
    46   18   57 1   
    47   19   28 1   
    48   19   34 1   
    49   19   59 1   
    50   20   21 1   
    51   20   60 1   
    52   22   62 1   
    53   23   27 1   
    54   23   63 1   
    55   24   25 1   
    56   24   26 1   
    57   25   64 1   
    58   26   36 1   
    59   27   39 1   
    60   28   29 1   
    61   28   32 1   
    62   29   33 1   
    63   29   72 1   
    64   30   33 1   
    65   30   34 1   
    66   30   74 1   
    67   31   35 1   
    68   31   52 1   
    69   31   65 1   
    70   31   66 1   
    71   32   67 1   
    72   32   68 1   
    73   32   69 1   
    74   33   70 1   
    75   36   71 1   
@<TRIPOS>SUBSTRUCTURE
     1 43N         1 TEMP              0 ****  ****    0 ROOT
