@<TRIPOS>MOLECULE
43O
   38    39     1     0     0
SMALL
bcc


@<TRIPOS>ATOM
      1 CAN        -0.2040   -0.7450    0.0290 c3        1 43O     -0.059900
      2 CAH         1.2520   -0.5360   -0.0980 cc        1 43O      0.008700
      3 NAG         2.1180   -0.6140    0.9910 na        1 43O     -0.167400
      4 CAC         3.4190   -0.3300    0.5560 ca        1 43O     -0.078200
      5 CAD         4.6290   -0.2760    1.2660 ca        1 43O     -0.081000
      6 CAE         5.7810    0.0300    0.5630 ca        1 43O     -0.184000
      7 CAF         5.7340    0.2840   -0.8290 ca        1 43O      0.129100
      8 OAM         6.8660    0.5850   -1.5510 oh        1 43O     -0.497100
      9 CAA         4.5410    0.2390   -1.5530 ca        1 43O     -0.159000
     10 CAB         3.3700   -0.0740   -0.8640 ca        1 43O     -0.048800
     11 CAI         1.9850   -0.2160   -1.2560 cd        1 43O     -0.227400
     12 CAJ         1.4690   -0.0120   -2.6110 c3        1 43O      0.000800
     13 CAK         1.9900   -1.1400   -3.5100 c3        1 43O      0.100800
     14 NAL         1.6520   -0.9280   -4.9530 ny        1 43O     -0.674800
     15 CAO         2.2070   -2.0380   -5.8090 c         1 43O      0.514100
     16 OAP         3.3070   -1.8500   -6.3010 o         1 43O     -0.398100
     17 CAQ         1.3520   -3.2880   -5.9390 c3        1 43O      0.067400
     18 OAR        -0.0160   -2.9530   -5.8510 os        1 43O     -0.438600
     19 CAS        -0.7750   -3.2580   -7.0230 c3        1 43O      0.105700
     20 H1         -0.4460   -1.5300    0.7900 hc        1 43O      0.063033
     21 H2         -0.7010    0.2100    0.3410 hc        1 43O      0.063033
     22 H3         -0.6330   -1.0640   -0.9520 hc        1 43O      0.063033
     23 H4          1.8510   -0.7800    1.9260 hn        1 43O      0.313700
     24 H5          4.6630   -0.4690    2.3470 ha        1 43O      0.150000
     25 H6          6.7470    0.0820    1.0880 ha        1 43O      0.149000
     26 H7          7.6140    0.6350   -0.9370 ho        1 43O      0.430000
     27 H8          4.5390    0.4640   -2.6270 ha        1 43O      0.135000
     28 H9          0.3460   -0.0040   -2.6150 hc        1 43O      0.063700
     29 H10         1.8270    0.9820   -2.9990 hc        1 43O      0.063700
     30 H11         3.1150   -1.1990   -3.4220 hx        1 43O      0.112700
     31 H12         1.5410   -2.1240   -3.1930 hx        1 43O      0.112700
     32 H13         2.0370   -0.0260   -5.2560 hn        1 43O      0.463800
     33 H14         1.6260   -3.8000   -6.9010 h1        1 43O      0.119200
     34 H15         1.5890   -3.9560   -5.0610 h1        1 43O      0.119200
     35 H16        -1.8190   -2.9640   -6.7420 h1        1 43O      0.066033
     36 H17        -0.7210   -4.3520   -7.2440 h1        1 43O      0.066033
     37 H18        -0.4070   -2.6600   -7.8910 h1        1 43O      0.066033
     38 HAL2        0.6290   -0.9110   -5.0620 hn        1 43O      0.463800
@<TRIPOS>BOND
     1    1    2 1   
     2    1   20 1   
     3    1   21 1   
     4    1   22 1   
     5    2    3 1   
     6    2   11 2   
     7    3    4 1   
     8    3   23 1   
     9    4    5 ar  
    10    4   10 ar  
    11    5    6 ar  
    12    5   24 1   
    13    6    7 ar  
    14    6   25 1   
    15    7    8 1   
    16    7    9 ar  
    17    8   26 1   
    18    9   10 ar  
    19    9   27 1   
    20   10   11 1   
    21   11   12 1   
    22   12   13 1   
    23   12   28 1   
    24   12   29 1   
    25   13   14 1   
    26   13   30 1   
    27   13   31 1   
    28   14   15 1   
    29   14   32 1   
    30   14   38 1   
    31   15   16 2   
    32   15   17 1   
    33   17   18 1   
    34   17   33 1   
    35   17   34 1   
    36   18   19 1   
    37   19   35 1   
    38   19   36 1   
    39   19   37 1   
@<TRIPOS>SUBSTRUCTURE
     1 43O         1 TEMP              0 ****  ****    0 ROOT
