@<TRIPOS>MOLECULE
43O
   38    39     1     0     0
SMALL
bcc


@<TRIPOS>ATOM
      1 CAN        -0.3480   -0.4640   -0.2820 c3        1 43O     -0.058900
      2 CAH         1.1270   -0.4020   -0.3100 cc        1 43O      0.008700
      3 NAG         1.9080   -0.6120    0.8260 na        1 43O     -0.167400
      4 CAC         3.2560   -0.4470    0.4850 ca        1 43O     -0.078200
      5 CAD         4.4170   -0.5460    1.2690 ca        1 43O     -0.081000
      6 CAE         5.6370   -0.3330    0.6530 ca        1 43O     -0.184000
      7 CAF         5.7080   -0.0200   -0.7260 ca        1 43O      0.129100
      8 OAM         6.9090    0.1890   -1.3630 oh        1 43O     -0.497100
      9 CAA         4.5660    0.0860   -1.5230 ca        1 43O     -0.159000
     10 CAB         3.3270   -0.1320   -0.9220 ca        1 43O     -0.048800
     11 CAI         1.9630   -0.1150   -1.4050 cd        1 43O     -0.225400
     12 CAJ         1.5600    0.1950   -2.7790 c3        1 43O      0.000800
     13 CAK         2.0300   -0.9390   -3.6960 c3        1 43O      0.101800
     14 NAL         1.8230   -0.6270   -5.1460 n4        1 43O     -0.668800
     15 CAO         2.3570   -1.7310   -6.0200 c         1 43O      0.539100
     16 OAP         3.4420   -1.5270   -6.5440 o         1 43O     -0.403100
     17 CAQ         1.5280   -2.9870   -6.1660 c3        1 43O      0.064400
     18 OAR         0.2200   -2.7470   -5.6740 os        1 43O     -0.460600
     19 CAS        -0.7110   -3.7630   -6.0520 c3        1 43O      0.118700
     20 H1         -0.7180   -1.2350    0.4390 hc        1 43O      0.063033
     21 H2         -0.7650    0.5310    0.0210 hc        1 43O      0.063033
     22 H3         -0.7390   -0.7180   -1.2980 hc        1 43O      0.063033
     23 H4          1.5640   -0.7840    1.7340 hn        1 43O      0.312700
     24 H5          4.3600   -0.7830    2.3410 ha        1 43O      0.150000
     25 H6          6.5670   -0.4010    1.2380 ha        1 43O      0.149000
     26 H7          7.6160    0.1420   -0.7010 ho        1 43O      0.430000
     27 H8          4.6580    0.3530   -2.5830 ha        1 43O      0.135000
     28 H9          0.4450    0.3120   -2.8510 hc        1 43O      0.063700
     29 H10         2.0330    1.1660   -3.0950 hc        1 43O      0.063700
     30 H11         1.4590   -1.8850   -3.4710 hx        1 43O      0.115200
     31 H12         3.1330   -1.1190   -3.5330 hx        1 43O      0.115200
     32 H13         0.8160   -0.5250   -5.3260 hn        1 43O      0.464800
     33 H14         1.5120   -3.2680   -7.2570 h1        1 43O      0.111200
     34 H15         2.0220   -3.8040   -5.5660 h1        1 43O      0.111200
     35 H16        -1.6680   -3.4310   -5.5760 h1        1 43O      0.065367
     36 H17        -0.8090   -3.8020   -7.1640 h1        1 43O      0.065367
     37 H18        -0.3850   -4.7520   -5.6470 h1        1 43O      0.065367
     38 HAL2        2.2970    0.2570   -5.3730 hn        1 43O      0.464800
@<TRIPOS>BOND
     1    1    2 1   
     2    1   20 1   
     3    1   21 1   
     4    1   22 1   
     5    2    3 1   
     6    2   11 2   
     7    3    4 1   
     8    3   23 1   
     9    4    5 ar  
    10    4   10 ar  
    11    5    6 ar  
    12    5   24 1   
    13    6    7 ar  
    14    6   25 1   
    15    7    8 1   
    16    7    9 ar  
    17    8   26 1   
    18    9   10 ar  
    19    9   27 1   
    20   10   11 1   
    21   11   12 1   
    22   12   13 1   
    23   12   28 1   
    24   12   29 1   
    25   13   14 1   
    26   13   30 1   
    27   13   31 1   
    28   14   15 1   
    29   14   32 1   
    30   14   38 1   
    31   15   16 2   
    32   15   17 1   
    33   17   18 1   
    34   17   33 1   
    35   17   34 1   
    36   18   19 1   
    37   19   35 1   
    38   19   36 1   
    39   19   37 1   
@<TRIPOS>SUBSTRUCTURE
     1 43O         1 TEMP              0 ****  ****    0 ROOT
