@<TRIPOS>MOLECULE
43P
   34    36     1     0     0
SMALL
bcc


@<TRIPOS>ATOM
      1 OAQ         0.0020    0.2880   -0.4520 oh        1 43P     -0.482100
      2 CAF         1.3430    0.1510   -0.1840 ca        1 43P      0.183100
      3 CAJ         1.8420    0.2500    1.1210 ca        1 43P     -0.312000
      4 CAL         3.2200    0.1140    1.3340 ca        1 43P      0.168100
      5 OAR         3.7600    0.1970    2.5980 oh        1 43P     -0.497100
      6 CAM         4.1060   -0.1160    0.2650 ca        1 43P     -0.141300
      7 CAS         5.5690   -0.2670    0.4860 c3        1 43P     -0.022100
      8 CAT         6.3450    0.9270   -0.0170 c3        1 43P     -0.091100
      9 CAG         3.5770   -0.2100   -1.0250 ca        1 43P     -0.020000
     10 CAC         2.2080   -0.0810   -1.2740 ca        1 43P     -0.170500
     11 CAB         1.6890   -0.2040   -2.6270 cc        1 43P      0.403800
     12 NAE         0.8400   -1.2040   -3.0180 nd        1 43P     -0.498800
     13 NAI         0.5580   -0.9930   -4.3020 na        1 43P     -0.017600
     14 CAK         1.1900    0.1380   -4.8140 cd        1 43P     -0.152300
     15 CAA         1.9410    0.6840   -3.7550 cc        1 43P     -0.257800
     16 CAD         2.7380    1.8700   -3.8140 cc        1 43P      0.396800
     17 CAP         2.4500    3.0180   -4.5910 cd        1 43P     -0.254600
     18 NAN         3.4800    3.9220   -4.3510 na        1 43P     -0.321900
     19 CAO         4.3540    3.3090   -3.4440 cd        1 43P      0.386400
     20 NAH         3.9340    2.0740   -3.1060 nc        1 43P     -0.654000
     21 HAQ        -0.4590    0.4080    0.3910 ho        1 43P      0.414000
     22 HAJ         1.1620    0.4300    1.9640 ha        1 43P      0.131000
     23 HAR         3.0340    0.3400    3.2230 ho        1 43P      0.416000
     24 HAS1        5.9240   -1.1910   -0.0470 hc        1 43P      0.049700
     25 HAS2        5.7760   -0.4140    1.5800 hc        1 43P      0.049700
     26 HAT1        6.1250    1.1110   -1.0970 hc        1 43P      0.035367
     27 HAT2        6.0690    1.8440    0.5580 hc        1 43P      0.035367
     28 HAT3        7.4410    0.7500    0.1020 hc        1 43P      0.035367
     29 HAG         4.2620   -0.3850   -1.8710 ha        1 43P      0.157000
     30 HAI        -0.0510   -1.6090   -4.7860 hn        1 43P      0.319700
     31 HAK         1.0750    0.4600   -5.8470 h4        1 43P      0.173000
     32 HAP         1.6170    3.2350   -5.2550 h4        1 43P      0.176000
     33 HAN         3.5650    4.8240   -4.7360 hn        1 43P      0.299700
     34 HAO         5.2610    3.7970   -3.0730 h5        1 43P      0.060100
@<TRIPOS>BOND
     1    1    2 1   
     2    1   21 1   
     3    2    3 ar  
     4    2   10 ar  
     5    3    4 ar  
     6    3   22 1   
     7    4    5 1   
     8    4    6 ar  
     9    5   23 1   
    10    6    7 1   
    11    6    9 ar  
    12    7    8 1   
    13    7   24 1   
    14    7   25 1   
    15    8   26 1   
    16    8   27 1   
    17    8   28 1   
    18    9   10 ar  
    19    9   29 1   
    20   10   11 1   
    21   11   12 2   
    22   11   15 1   
    23   12   13 1   
    24   13   14 1   
    25   13   30 1   
    26   14   15 2   
    27   14   31 1   
    28   15   16 1   
    29   16   17 2   
    30   16   20 1   
    31   17   18 1   
    32   17   32 1   
    33   18   19 1   
    34   18   33 1   
    35   19   20 2   
    36   19   34 1   
@<TRIPOS>SUBSTRUCTURE
     1 43P         1 TEMP              0 ****  ****    0 ROOT
