@<TRIPOS>MOLECULE
43P
   34    36     1     0     0
SMALL
bcc


@<TRIPOS>ATOM
      1 OAQ        -2.6280    1.5360    0.3820 oh        1 43P     -0.496100
      2 CAF        -1.6580    0.7710    0.9820 ca        1 43P      0.184100
      3 CAJ        -1.3980    1.0850    2.3240 ca        1 43P     -0.203000
      4 CAL        -0.4190    0.3570    3.0110 ca        1 43P      0.168100
      5 OAR        -0.2310    0.7270    4.3230 oh        1 43P     -0.501100
      6 CAM         0.3040   -0.6770    2.3820 ca        1 43P     -0.202300
      7 CAS         1.3360   -1.4670    3.1060 c3        1 43P     -0.028100
      8 CAT         2.6290   -0.7060    3.2800 c3        1 43P     -0.096100
      9 CAG         0.0250   -0.9620    1.0440 ca        1 43P     -0.007000
     10 CAC        -0.9480   -0.2560    0.3290 ca        1 43P     -0.228500
     11 CAB        -1.2140   -0.6050   -1.0590 cc        1 43P      0.380800
     12 NAE        -2.3910   -1.1600   -1.4880 nd        1 43P     -0.515800
     13 NAI        -2.2770   -1.3500   -2.8000 na        1 43P     -0.016600
     14 CAK        -1.0360   -0.9530   -3.2950 cd        1 43P     -0.150300
     15 CAA        -0.3130   -0.4540   -2.1940 cc        1 43P     -0.251800
     16 CAD         1.0060    0.0970   -2.2320 cc        1 43P      0.387800
     17 CAP         1.5390    0.8920   -3.2750 cd        1 43P     -0.249600
     18 NAN         2.8410    1.2080   -2.9000 na        1 43P     -0.319900
     19 CAO         3.0610    0.6070   -1.6540 cd        1 43P      0.387400
     20 NAH         1.9760   -0.0700   -1.2280 nc        1 43P     -0.648000
     21 HAQ        -2.7190    1.2520   -0.5390 ho        1 43P      0.429000
     22 HAJ        -1.9540    1.8880    2.8260 ha        1 43P      0.164000
     23 HAR         0.4730    0.1770    4.6970 ho        1 43P      0.423000
     24 HAS1        1.5440   -2.4160    2.5420 hc        1 43P      0.044200
     25 HAS2        0.9390   -1.7750    4.1130 hc        1 43P      0.044200
     26 HAT1        3.3630   -1.3210    3.8540 hc        1 43P      0.036367
     27 HAT2        3.0720   -0.4600    2.2840 hc        1 43P      0.036367
     28 HAT3        2.4600    0.2520    3.8300 hc        1 43P      0.036367
     29 HAG         0.5880   -1.7600    0.5320 ha        1 43P      0.150000
     30 HAI        -3.0150   -1.7790   -3.3070 hn        1 43P      0.323700
     31 HAK        -0.7640   -1.0480   -4.3440 h4        1 43P      0.177000
     32 HAP         1.0920    1.2380   -4.2040 h4        1 43P      0.177000
     33 HAN         3.4750    1.7640   -3.4080 hn        1 43P      0.301700
     34 HAO         4.0100    0.6930   -1.1140 h5        1 43P      0.061100
@<TRIPOS>BOND
     1    1    2 1   
     2    1   21 1   
     3    2    3 ar  
     4    2   10 ar  
     5    3    4 ar  
     6    3   22 1   
     7    4    5 1   
     8    4    6 ar  
     9    5   23 1   
    10    6    7 1   
    11    6    9 ar  
    12    7    8 1   
    13    7   24 1   
    14    7   25 1   
    15    8   26 1   
    16    8   27 1   
    17    8   28 1   
    18    9   10 ar  
    19    9   29 1   
    20   10   11 1   
    21   11   12 2   
    22   11   15 1   
    23   12   13 1   
    24   13   14 1   
    25   13   30 1   
    26   14   15 2   
    27   14   31 1   
    28   15   16 1   
    29   16   17 2   
    30   16   20 1   
    31   17   18 1   
    32   17   32 1   
    33   18   19 1   
    34   18   33 1   
    35   19   20 2   
    36   19   34 1   
@<TRIPOS>SUBSTRUCTURE
     1 43P         1 TEMP              0 ****  ****    0 ROOT
