@<TRIPOS>MOLECULE
43P
   34    36     1     0     0
SMALL
bcc


@<TRIPOS>ATOM
      1 OAQ         0.0170    0.2680   -0.4210 oh        1 43P     -0.482100
      2 CAF         1.3610    0.1340   -0.1700 ca        1 43P      0.183100
      3 CAJ         1.8750    0.2230    1.1300 ca        1 43P     -0.312000
      4 CAL         3.2560    0.0910    1.3270 ca        1 43P      0.168100
      5 OAR         3.8100    0.1660    2.5860 oh        1 43P     -0.497100
      6 CAM         4.1300   -0.1280    0.2460 ca        1 43P     -0.141300
      7 CAS         5.5970   -0.2750    0.4490 c3        1 43P     -0.022100
      8 CAT         6.3620    0.9260   -0.0540 c3        1 43P     -0.091100
      9 CAG         3.5870   -0.2130   -1.0390 ca        1 43P     -0.020000
     10 CAC         2.2140   -0.0870   -1.2710 ca        1 43P     -0.170500
     11 CAB         1.6800   -0.2010   -2.6190 cc        1 43P      0.403800
     12 NAE         0.8300   -1.2000   -3.0080 nd        1 43P     -0.498800
     13 NAI         0.5330   -0.9800   -4.2870 na        1 43P     -0.017600
     14 CAK         1.1550    0.1580   -4.7970 cd        1 43P     -0.152300
     15 CAA         1.9160    0.6980   -3.7420 cc        1 43P     -0.257800
     16 CAD         2.7090    1.8860   -3.8000 cc        1 43P      0.396800
     17 CAP         2.4070    3.0400   -4.5630 cd        1 43P     -0.254600
     18 NAN         3.4380    3.9460   -4.3280 na        1 43P     -0.321900
     19 CAO         4.3250    3.3280   -3.4390 cd        1 43P      0.386400
     20 NAH         3.9140    2.0880   -3.1070 nc        1 43P     -0.654000
     21 HAQ        -0.4350    0.3790    0.4290 ho        1 43P      0.414000
     22 HAJ         1.2050    0.3940    1.9830 ha        1 43P      0.131000
     23 HAR         3.0910    0.3010    3.2200 ho        1 43P      0.416000
     24 HAS1        5.9480   -1.1940   -0.0960 hc        1 43P      0.049700
     25 HAS2        5.8170   -0.4300    1.5390 hc        1 43P      0.049700
     26 HAT1        6.1290    1.1180   -1.1300 hc        1 43P      0.035367
     27 HAT2        6.0900    1.8370    0.5320 hc        1 43P      0.035367
     28 HAT3        7.4600    0.7520    0.0510 hc        1 43P      0.035367
     29 HAG         4.2630   -0.3790   -1.8950 ha        1 43P      0.157000
     30 HAI        -0.0790   -1.5930   -4.7690 hn        1 43P      0.319700
     31 HAK         1.0280    0.4870   -5.8260 h4        1 43P      0.173000
     32 HAP         1.5640    3.2610   -5.2140 h4        1 43P      0.176000
     33 HAN         3.5140    4.8510   -4.7060 hn        1 43P      0.299700
     34 HAO         5.2360    3.8150   -3.0760 h5        1 43P      0.060100
@<TRIPOS>BOND
     1    1    2 1   
     2    1   21 1   
     3    2    3 ar  
     4    2   10 ar  
     5    3    4 ar  
     6    3   22 1   
     7    4    5 1   
     8    4    6 ar  
     9    5   23 1   
    10    6    7 1   
    11    6    9 ar  
    12    7    8 1   
    13    7   24 1   
    14    7   25 1   
    15    8   26 1   
    16    8   27 1   
    17    8   28 1   
    18    9   10 ar  
    19    9   29 1   
    20   10   11 1   
    21   11   12 2   
    22   11   15 1   
    23   12   13 1   
    24   13   14 1   
    25   13   30 1   
    26   14   15 2   
    27   14   31 1   
    28   15   16 1   
    29   16   17 2   
    30   16   20 1   
    31   17   18 1   
    32   17   32 1   
    33   18   19 1   
    34   18   33 1   
    35   19   20 2   
    36   19   34 1   
@<TRIPOS>SUBSTRUCTURE
     1 43P         1 TEMP              0 ****  ****    0 ROOT
