@<TRIPOS>MOLECULE
43P
   34    28     1     0     0
SMALL
bcc


@<TRIPOS>ATOM
      1 OAQ        -2.6340   -0.8060    1.1800 oh        1 43P     -0.236000
      2 CAF        -1.2270   -0.7920    1.1850 c2        1 43P      0.138000
      3 CAJ        -0.5370   -0.8400    2.3870 c1        1 43P     -0.312000
      4 CAL         0.8490   -0.8320    2.3910 c1        1 43P      0.123000
      5 OAR         1.5490   -0.8890    3.6110 oh        1 43P     -0.251000
      6 CAM         1.5460   -0.7760    1.1940 c1        1 43P     -0.134000
      7 CAS         3.0570   -0.6960    1.2030 c2        1 43P     -0.110000
      8 CAT         3.6350   -2.0810    1.3930 c3        1 43P     -0.206000
      9 CAG         0.8560   -0.7280   -0.0070 c2        1 43P     -0.018000
     10 CAC        -0.5300   -0.7360   -0.0120 c1        1 43P     -0.062000
     11 CAB        -1.2190   -0.7340   -1.2150 c1        1 43P     -0.080000
     12 NAE        -1.6120   -1.8250   -1.9060 n2        1 43P     -0.114000
     13 NAI        -2.3010   -1.4010   -3.0140 n2        1 43P     -0.114000
     14 CAK        -2.3270   -0.0520   -2.9980 c1        1 43P     -0.080000
     15 CAA        -1.6580    0.3700   -1.8860 c2        1 43P     -0.084000
     16 CAD        -1.4190    1.6880   -1.5310 c2        1 43P     -0.039000
     17 CAP        -0.6240    2.5710   -2.2090 c1        1 43P     -0.166000
     18 NAN        -0.7160    3.7580   -1.6030 n2        1 43P     -0.208000
     19 CAO        -1.5600    3.6270   -0.5510 c1        1 43P     -0.102000
     20 NAH        -1.9890    2.3420   -0.5150 n2        1 43P     -0.127000
     21 HAQ        -2.9270   -1.3850    1.7880 ho        1 43P      0.213000
     22 HAJ        -1.0280   -0.8610    3.2300 ha        1 43P      0.131000
     23 HAR         1.0860   -0.4620    4.2390 ho        1 43P      0.215000
     24 HAS1        3.3490   -0.1170    1.9360 ha        1 43P      0.092000
     25 HAS2        3.3680   -0.3260    0.3520 ha        1 43P      0.092000
     26 HAT1        4.5400   -2.1110    1.0180 hc        1 43P      0.072333
     27 HAT2        3.0690   -2.7360    0.9330 hc        1 43P      0.072333
     28 HAT3        3.6690   -2.2920    2.3490 hc        1 43P      0.072333
     29 HAG         1.3470   -0.6890   -0.8500 ha        1 43P      0.156000
     30 HAI        -2.6750   -1.9370   -3.6490 DU        1 43P      0.213200
     31 HAK        -2.7500    0.5220   -3.6660 DU        1 43P      0.213200
     32 HAP        -0.0850    2.3700   -2.9980 DU        1 43P      0.213200
     33 HAN        -0.2860    4.5230   -1.8530 DU        1 43P      0.213200
     34 HAO        -1.8140    4.3340    0.0730 DU        1 43P      0.213200
@<TRIPOS>BOND
     1    1    2 1   
     2    1   21 1   
     3    2    3 1   
     4    2   10 1   
     5    3   22 1   
     6    4    5 1   
     7    4    6 1   
     8    5   23 1   
     9    6    9 1   
    10    7    8 1   
    11    7   24 1   
    12    7   25 1   
    13    8   26 1   
    14    8   27 1   
    15    8   28 1   
    16    9   10 1   
    17    9   29 1   
    18   11   12 1   
    19   11   15 1   
    20   12   13 1   
    21   13   14 1   
    22   14   15 1   
    23   15   16 1   
    24   16   17 1   
    25   16   20 1   
    26   17   18 1   
    27   18   19 1   
    28   19   20 1   
@<TRIPOS>SUBSTRUCTURE
     1 43P         1 TEMP              0 ****  ****    0 ROOT
