@<TRIPOS>MOLECULE
43Q
   26    25     1     0     0
SMALL
bcc


@<TRIPOS>ATOM
      1 O6          0.0000    0.0000    0.0000 o         1 43Q     -0.457833
      2 P1          1.6100    0.0000    0.0000 p5        1 43Q      1.106500
      3 O5          2.1470    0.0000    1.5190 o         1 43Q     -0.457833
      4 O4          2.1030   -1.2090   -0.6970 o         1 43Q     -0.457833
      5 O3          2.1480    1.3140   -0.7580 os        1 43Q     -0.946000
      6 P           2.2390    1.7540   -2.3050 p5        1 43Q      1.436000
      7 O8          2.6450    0.5920   -3.1250 o         1 43Q     -0.666000
      8 O7          0.8000    2.2820   -2.7970 o         1 43Q     -0.666000
      9 O2          3.3260    2.9310   -2.4640 os        1 43Q     -0.674000
     10 C4          3.7130    3.4660   -3.7320 c3        1 43Q      0.134000
     11 C3          4.7590    4.5630   -3.5240 c3        1 43Q      0.169000
     12 C1          5.0760    5.2120   -4.8470 c2        1 43Q     -0.495000
     13 C           6.0840    6.3310   -4.9150 c3        1 43Q      0.190000
     14 O           6.2100    6.7750   -6.2670 oh        1 43Q     -0.327000
     15 C2          4.3860    4.7410   -6.1010 c3        1 43Q      0.000000
     16 O1          5.9480    3.9910   -2.9760 oh        1 43Q     -0.331000
     17 H4          4.1340    2.6770   -4.3440 h1        1 43Q      0.029000
     18 H5          2.8450    3.8840   -4.2280 h1        1 43Q      0.029000
     19 H6          4.3690    5.3080   -2.8400 h1        1 43Q      0.014000
     20 H8          5.7520    7.1540   -4.2940 h1        1 43Q     -0.007000
     21 H9          7.0430    5.9750   -4.5610 h1        1 43Q     -0.007000
     22 H10         6.8290    7.4850   -6.3080 ho        1 43Q      0.147000
     23 H11         4.7410    5.3170   -6.9470 hc        1 43Q      0.025667
     24 H12         4.6040    3.6920   -6.2610 hc        1 43Q      0.025667
     25 H13         3.3160    4.8750   -5.9960 hc        1 43Q      0.025667
     26 H14         6.0360    4.2510   -2.0740 ho        1 43Q      0.161000
@<TRIPOS>BOND
     1    1    2 1   
     2    2    3 1   
     3    2    4 1   
     4    2    5 1   
     5    5    6 1   
     6    6    7 1   
     7    6    8 1   
     8    6    9 1   
     9    9   10 1   
    10   10   11 1   
    11   10   17 1   
    12   10   18 1   
    13   11   12 1   
    14   11   16 1   
    15   11   19 1   
    16   12   13 1   
    17   12   15 1   
    18   13   14 1   
    19   13   20 1   
    20   13   21 1   
    21   14   22 1   
    22   15   23 1   
    23   15   24 1   
    24   15   25 1   
    25   16   26 1   
@<TRIPOS>SUBSTRUCTURE
     1 43Q         1 TEMP              0 ****  ****    0 ROOT
