@<TRIPOS>MOLECULE
43R
   37    39     1     0     0
SMALL
bcc


@<TRIPOS>ATOM
      1 C12         0.1540    0.0790   -0.1420 c3        1 43R      0.200800
      2 C13         1.6840    0.0900   -0.1030 c3        1 43R     -0.110700
      3 C14        -1.8750    1.2120    0.5790 ca        1 43R      0.079300
      4 C15        -2.5770    2.1470    1.3740 ca        1 43R     -0.188000
      5 C16        -3.9550    2.3080    1.1650 ca        1 43R      0.043800
      6 C1          5.9370   -1.0120    5.8280 c3        1 43R     -0.170100
      7 C5          3.4610   -0.2470    3.0670 cc        1 43R      0.487300
      8 C2          4.6810   -0.4950    5.1770 c         1 43R      0.659100
      9 O3          3.7760    0.0690    5.8220 o         1 43R     -0.586100
     10 N4          4.5670   -0.6720    3.8020 ns        1 43R     -0.531400
     11 N6          3.3550   -0.4330    1.7250 nd        1 43R     -0.678000
     12 C7          2.1530    0.1020    1.3040 cd        1 43R      0.372600
     13 C8          1.3650    0.6790    2.3020 cc        1 43R     -0.291700
     14 S9          2.1070    0.5620    3.7900 ss        1 43R      0.048700
     15 C10         0.0620    1.3250    2.0220 c3        1 43R      0.291100
     16 N11        -0.4810    1.0820    0.6910 nh        1 43R     -0.644000
     17 C17        -4.6120    1.5400    0.1800 ca        1 43R      0.281200
     18 N18        -3.9540    0.6440   -0.5770 nb        1 43R     -0.611000
     19 C19        -2.6410    0.4790   -0.3840 ca        1 43R      0.304200
     20 O20        -4.5710    3.2370    1.9760 os        1 43R     -0.321900
     21 C21        -5.9670    3.4200    1.7620 c3        1 43R      0.112700
     22 H1         -0.2020   -0.9570    0.1370 h1        1 43R      0.045700
     23 H2         -0.1570    0.2810   -1.2080 h1        1 43R      0.045700
     24 H3          2.0570   -0.8130   -0.6540 hc        1 43R      0.072700
     25 H4          2.0810    1.0010   -0.6260 hc        1 43R      0.072700
     26 H5         -2.0790    2.7600    2.1370 ha        1 43R      0.156000
     27 H6          6.8370   -0.5050    5.4020 hc        1 43R      0.075367
     28 H7          5.8830   -0.7990    6.9240 hc        1 43R      0.075367
     29 H8          6.0310   -2.1150    5.6760 hc        1 43R      0.075367
     30 H9          5.3030   -1.1270    3.3070 hn        1 43R      0.339500
     31 H10         0.1900    2.4480    2.1100 h1        1 43R      0.053700
     32 H11        -0.6810    1.0050    2.8140 h1        1 43R      0.053700
     33 H12        -5.6920    1.6360   -0.0140 h4        1 43R      0.025100
     34 H13        -2.1740   -0.2810   -1.0340 h4        1 43R      0.023100
     35 H14        -6.2420    4.2080    2.5080 h1        1 43R      0.046700
     36 H15        -6.1640    3.7750    0.7220 h1        1 43R      0.046700
     37 H16        -6.5230    2.4720    1.9650 h1        1 43R      0.046700
@<TRIPOS>BOND
     1    1    2 1   
     2    1   16 1   
     3    1   22 1   
     4    1   23 1   
     5    2   12 1   
     6    2   24 1   
     7    2   25 1   
     8    3    4 ar  
     9    3   16 1   
    10    3   19 ar  
    11    4    5 ar  
    12    4   26 1   
    13    5   17 ar  
    14    5   20 1   
    15    6    8 1   
    16    6   27 1   
    17    6   28 1   
    18    6   29 1   
    19    7   10 1   
    20    7   11 2   
    21    7   14 1   
    22    8    9 2   
    23    8   10 1   
    24   10   30 1   
    25   11   12 1   
    26   12   13 2   
    27   13   14 1   
    28   13   15 1   
    29   15   16 1   
    30   15   31 1   
    31   15   32 1   
    32   17   18 ar  
    33   17   33 1   
    34   18   19 ar  
    35   19   34 1   
    36   20   21 1   
    37   21   35 1   
    38   21   36 1   
    39   21   37 1   
@<TRIPOS>SUBSTRUCTURE
     1 43R         1 TEMP              0 ****  ****    0 ROOT
