@<TRIPOS>MOLECULE
43R
   37    39     1     0     0
SMALL
bcc


@<TRIPOS>ATOM
      1 C12         0.1440    0.0600   -0.1360 c3        1 43R      0.200800
      2 C13         1.6750    0.0660   -0.1020 c3        1 43R     -0.110700
      3 C14        -1.8770    1.2090    0.5810 ca        1 43R      0.079300
      4 C15        -2.5730    2.1530    1.3700 ca        1 43R     -0.188000
      5 C16        -3.9510    2.3180    1.1630 ca        1 43R      0.043800
      6 C1          5.9410   -1.0050    5.8260 c3        1 43R     -0.170100
      7 C5          3.4600   -0.2520    3.0660 cc        1 43R      0.487300
      8 C2          4.6850   -0.4880    5.1750 c         1 43R      0.659100
      9 O3          3.7840    0.0850    5.8170 o         1 43R     -0.586100
     10 N4          4.5660   -0.6760    3.8010 n         1 43R     -0.531400
     11 N6          3.3490   -0.4480    1.7260 nd        1 43R     -0.678000
     12 C7          2.1480    0.0870    1.3040 cd        1 43R      0.372600
     13 C8          1.3650    0.6760    2.2990 cc        1 43R     -0.291700
     14 S9          2.1120    0.5690    3.7860 ss        1 43R      0.048700
     15 C10         0.0650    1.3250    2.0180 c3        1 43R      0.291100
     16 N11        -0.4830    1.0730    0.6900 nh        1 43R     -0.644000
     17 C17        -4.6140    1.5460    0.1870 ca        1 43R      0.281200
     18 N18        -3.9620    0.6410   -0.5650 nb        1 43R     -0.611000
     19 C19        -2.6490    0.4710   -0.3740 ca        1 43R      0.304200
     20 O20        -4.5600    3.2570    1.9680 os        1 43R     -0.321900
     21 C21        -5.9570    3.4440    1.7570 c3        1 43R      0.112700
     22 H1         -0.1680    0.2550   -1.2030 h1        1 43R      0.045700
     23 H2         -0.2150   -0.9710    0.1530 h1        1 43R      0.045700
     24 H3          2.0420   -0.8440   -0.6460 hc        1 43R      0.072700
     25 H4          2.0740    0.9710   -0.6330 hc        1 43R      0.072700
     26 H5         -2.0710    2.7700    2.1270 ha        1 43R      0.156000
     27 H6          5.8910   -0.7810    6.9200 hc        1 43R      0.075367
     28 H7          6.0300   -2.1090    5.6840 hc        1 43R      0.075367
     29 H8          6.8410   -0.5050    5.3930 hc        1 43R      0.075367
     30 H9          5.2990   -1.1370    3.3080 hn        1 43R      0.339500
     31 H10        -0.6780    1.0130    2.8150 h1        1 43R      0.053700
     32 H11         0.1970    2.4470    2.0970 h1        1 43R      0.053700
     33 H12        -5.6940    1.6450   -0.0060 h4        1 43R      0.025100
     34 H13        -2.1870   -0.2960   -1.0190 h4        1 43R      0.023100
     35 H14        -6.5160    2.5010    1.9690 h1        1 43R      0.046700
     36 H15        -6.2260    4.2390    2.4980 h1        1 43R      0.046700
     37 H16        -6.1540    3.7920    0.7140 h1        1 43R      0.046700
@<TRIPOS>BOND
     1    1    2 1   
     2    1   16 1   
     3    1   22 1   
     4    1   23 1   
     5    2   12 1   
     6    2   24 1   
     7    2   25 1   
     8    3    4 ar  
     9    3   16 1   
    10    3   19 ar  
    11    4    5 ar  
    12    4   26 1   
    13    5   17 ar  
    14    5   20 1   
    15    6    8 1   
    16    6   27 1   
    17    6   28 1   
    18    6   29 1   
    19    7   10 1   
    20    7   11 2   
    21    7   14 1   
    22    8    9 2   
    23    8   10 1   
    24   10   30 1   
    25   11   12 1   
    26   12   13 2   
    27   13   14 1   
    28   13   15 1   
    29   15   16 1   
    30   15   31 1   
    31   15   32 1   
    32   17   18 ar  
    33   17   33 1   
    34   18   19 ar  
    35   19   34 1   
    36   20   21 1   
    37   21   35 1   
    38   21   36 1   
    39   21   37 1   
@<TRIPOS>SUBSTRUCTURE
     1 43R         1 TEMP              0 ****  ****    0 ROOT
