@<TRIPOS>MOLECULE
43S
   28    31     1     0     0
SMALL
bcc


@<TRIPOS>ATOM
      1 C4         -0.0070   -0.2550    0.0000 cp        1 43S      0.603800
      2 C5         -0.7740   -0.3020    1.2540 cp        1 43S     -0.144500
      3 C6         -2.0880    0.1610    1.3470 ca        1 43S      0.108100
      4 C11        -0.9360   -0.8800    3.6250 ca        1 43S     -0.054900
      5 C7         -4.0970    1.0450    0.9310 cc        1 43S     -0.015900
      6 C8         -4.1300    0.6970    2.2580 cd        1 43S     -0.172200
      7 C9         -2.8340    0.1170    2.5680 ca        1 43S     -0.119800
      8 C10        -2.2490   -0.4110    3.7120 ca        1 43S     -0.042000
      9 C12        -0.2110   -0.8250    2.4240 ca        1 43S     -0.042000
     10 N1          1.4370   -0.1190   -2.4770 nb        1 43S     -0.757000
     11 N2          3.2720    0.7920   -1.0490 na        1 43S     -0.390000
     12 C3          1.3290    0.2190   -0.0010 ca        1 43S     -0.203200
     13 N3          2.1970    0.7040    0.9910 nc        1 43S     -0.528100
     14 Br         -0.1180   -1.6030    5.1490 br        1 43S     -0.085100
     15 O          -2.8590    0.7330    0.3380 os        1 43S     -0.183200
     16 N4         -0.5930   -0.6560   -1.1390 nb        1 43S     -0.742000
     17 C           0.1440   -0.5980   -2.3290 ca        1 43S      0.886900
     18 N          -0.4700   -1.1310   -3.4680 nv        1 43S     -0.923500
     19 C1          1.9980    0.2680   -1.3040 ca        1 43S      0.465800
     20 C2          3.3250    1.0280    0.3440 cd        1 43S      0.406700
     21 H1         -4.8000    1.5020    0.2400 h4        1 43S      0.192000
     22 H2         -4.9490    0.8190    2.9610 ha        1 43S      0.168000
     23 H3         -2.8120   -0.4540    4.6570 ha        1 43S      0.154000
     24 H4          0.8270   -1.1990    2.3930 ha        1 43S      0.168000
     25 H5          3.9830    0.9480   -1.7120 hn        1 43S      0.317700
     26 H7         -0.0860   -0.8670   -4.3460 hn        1 43S      0.428800
     27 H8         -1.4580   -1.2350   -3.4310 hn        1 43S      0.428800
     28 H9          4.2260    1.4420    0.8130 h5        1 43S      0.073800
@<TRIPOS>BOND
     1    1    2 1   
     2    1   12 ar  
     3    1   16 ar  
     4    2    3 ar  
     5    2    9 ar  
     6    3    7 ar  
     7    3   15 1   
     8    4    8 ar  
     9    4    9 ar  
    10    4   14 1   
    11    5    6 2   
    12    5   15 1   
    13    5   21 1   
    14    6    7 1   
    15    6   22 1   
    16    7    8 ar  
    17    8   23 1   
    18    9   24 1   
    19   10   17 ar  
    20   10   19 ar  
    21   11   19 1   
    22   11   20 1   
    23   11   25 1   
    24   12   13 1   
    25   12   19 ar  
    26   13   20 2   
    27   16   17 ar  
    28   17   18 1   
    29   18   26 1   
    30   18   27 1   
    31   20   28 1   
@<TRIPOS>SUBSTRUCTURE
     1 43S         1 TEMP              0 ****  ****    0 ROOT
