@<TRIPOS>MOLECULE
43T
   62    64     1     0     0
SMALL
bcc


@<TRIPOS>ATOM
      1 C1         -0.2220    0.5380   -0.2260 c3        1 43T     -0.181400
      2 C2          1.2350    0.8920   -0.3820 c         1 43T      0.721500
      3 N3          2.1220    0.5400    0.6850 n         1 43T     -0.449300
      4 C4          1.4980    0.1890    1.9090 c2        1 43T      0.536800
      5 N5          0.2350    0.2120    2.2040 n2        1 43T     -0.559900
      6 C6         -0.7530    0.6690    1.2180 c3        1 43T      0.156200
      7 C7         -1.0950    2.1460    1.4820 c3        1 43T     -0.103100
      8 C8         -2.0330   -0.2180    1.3530 c3        1 43T     -0.042700
      9 N9          2.3960   -0.3230    3.0110 n4        1 43T     -0.808600
     10 C10         3.5460    0.7070    0.5190 c3        1 43T      0.115300
     11 O11         1.7150    1.4300   -1.3830 o         1 43T     -0.556500
     12 C12        -2.7360    0.0020    2.6760 c3        1 43T     -0.104100
     13 C13        -3.0010    0.0220    0.2120 c3        1 43T     -0.104100
     14 C14         4.1150    2.0320    0.9540 ca        1 43T     -0.107300
     15 C15         3.7990    3.1860    0.2270 ca        1 43T     -0.057000
     16 C16         4.3940    4.4100    0.5650 ca        1 43T     -0.148600
     17 C17         5.2870    4.5000    1.6360 ca        1 43T     -0.124000
     18 C18         5.5980    3.3350    2.3620 ca        1 43T      0.163900
     19 C19         5.0140    2.0980    2.0160 ca        1 43T     -0.138000
     20 F20         6.4590    3.4010    3.3980 f         1 43T     -0.092900
     21 C21         3.9880    5.5960   -0.2130 c         1 43T      0.557700
     22 O22         2.8570    5.8490   -0.6070 o         1 43T     -0.400100
     23 N23         5.0580    6.5830   -0.5770 n4        1 43T     -0.683800
     24 C24         5.7480    6.2310   -1.9000 c3        1 43T      0.217800
     25 C25         7.0200    7.0140   -1.9890 ca        1 43T     -0.201300
     26 C26         8.2460    6.3410   -1.9140 ca        1 43T     -0.104000
     27 C27         9.4380    7.0530   -2.0410 ca        1 43T     -0.113000
     28 C28         9.4130    8.4350   -2.2330 ca        1 43T     -0.069000
     29 C29         8.1910    9.1090   -2.3010 ca        1 43T     -0.113000
     30 C30         6.9960    8.4020   -2.1820 ca        1 43T     -0.104000
     31 C31         4.8290    6.4840   -3.0830 c3        1 43T     -0.131100
     32 H1         -0.8180    1.2080   -0.9050 hc        1 43T      0.124200
     33 H2         -0.3470   -0.5190   -0.5950 hc        1 43T      0.124200
     34 H3         -1.9410    2.4480    0.8180 hc        1 43T      0.065700
     35 H4         -0.2170    2.7990    1.2600 hc        1 43T      0.065700
     36 H5         -1.4090    2.3040    2.5430 hc        1 43T      0.065700
     37 H6         -1.7040   -1.2970    1.2990 hc        1 43T      0.060700
     38 H7          2.7860   -1.2310    2.7310 hn        1 43T      0.480133
     39 H8          1.8450   -0.4450    3.8760 hn        1 43T      0.480133
     40 H9          4.0980   -0.1320    1.0340 h1        1 43T      0.094700
     41 H10         3.7590    0.5960   -0.5930 h1        1 43T      0.094700
     42 H11        -2.0410   -0.1140    3.5400 hc        1 43T      0.054033
     43 H12        -3.5550   -0.7520    2.7870 hc        1 43T      0.054033
     44 H13        -3.1960    1.0190    2.7180 hc        1 43T      0.054033
     45 H14        -3.3070    1.0940    0.1480 hc        1 43T      0.054033
     46 H15        -2.5700   -0.2900   -0.7690 hc        1 43T      0.054033
     47 H16        -3.9250   -0.5860    0.3880 hc        1 43T      0.054033
     48 H17         3.0860    3.1260   -0.6190 ha        1 43T      0.194000
     49 H18         5.7430    5.4510    1.9540 ha        1 43T      0.168000
     50 H19         5.3150    1.1980    2.5760 ha        1 43T      0.157000
     51 H20         5.7740    6.6230    0.1560 hn        1 43T      0.463800
     52 H21         5.9790    5.1240   -1.8340 hx        1 43T      0.097700
     53 H22         8.2770    5.2500   -1.7770 ha        1 43T      0.136500
     54 H23        10.4020    6.5200   -1.9960 ha        1 43T      0.166000
     55 H24        10.3570    8.9950   -2.3380 ha        1 43T      0.170000
     56 H25         8.1710   10.2000   -2.4590 ha        1 43T      0.166000
     57 H26         6.0390    8.9410   -2.2600 ha        1 43T      0.136500
     58 H27         5.3630    6.1470   -4.0100 hc        1 43T      0.084700
     59 H28         3.8760    5.9070   -2.9920 hc        1 43T      0.084700
     60 H29         4.5870    7.5690   -3.2010 hc        1 43T      0.084700
     61 H93         3.1520    0.3480    3.1800 hn        1 43T      0.480133
     62 H232        4.6380    7.5170   -0.6820 hn        1 43T      0.463800
@<TRIPOS>BOND
     1    1    2 1   
     2    1    6 1   
     3    1   32 1   
     4    1   33 1   
     5    2    3 1   
     6    2   11 2   
     7    3    4 1   
     8    3   10 1   
     9    4    5 2   
    10    4    9 1   
    11    5    6 1   
    12    6    7 1   
    13    6    8 1   
    14    7   34 1   
    15    7   35 1   
    16    7   36 1   
    17    8   12 1   
    18    8   13 1   
    19    8   37 1   
    20    9   38 1   
    21    9   39 1   
    22    9   61 1   
    23   10   14 1   
    24   10   40 1   
    25   10   41 1   
    26   12   42 1   
    27   12   43 1   
    28   12   44 1   
    29   13   45 1   
    30   13   46 1   
    31   13   47 1   
    32   14   15 ar  
    33   14   19 ar  
    34   15   16 ar  
    35   15   48 1   
    36   16   17 ar  
    37   16   21 1   
    38   17   18 ar  
    39   17   49 1   
    40   18   19 ar  
    41   18   20 1   
    42   19   50 1   
    43   21   22 2   
    44   21   23 1   
    45   23   24 1   
    46   23   51 1   
    47   23   62 1   
    48   24   25 1   
    49   24   31 1   
    50   24   52 1   
    51   25   26 ar  
    52   25   30 ar  
    53   26   27 ar  
    54   26   53 1   
    55   27   28 ar  
    56   27   54 1   
    57   28   29 ar  
    58   28   55 1   
    59   29   30 ar  
    60   29   56 1   
    61   30   57 1   
    62   31   58 1   
    63   31   59 1   
    64   31   60 1   
@<TRIPOS>SUBSTRUCTURE
     1 43T         1 TEMP              0 ****  ****    0 ROOT
