@<TRIPOS>MOLECULE
43T
   62    64     1     0     0
SMALL
bcc


@<TRIPOS>ATOM
      1 C1         -0.2320    0.5410   -0.1880 c3        1 43T     -0.181400
      2 C2          1.2240    0.8910   -0.3570 c         1 43T      0.721500
      3 N3          2.1190    0.5420    0.7040 n         1 43T     -0.449300
      4 C4          1.5050    0.1990    1.9350 c2        1 43T      0.536800
      5 N5          0.2440    0.2270    2.2390 n2        1 43T     -0.559900
      6 C6         -0.7510    0.6820    1.2600 c3        1 43T      0.156200
      7 C7         -1.0870    2.1610    1.5200 c3        1 43T     -0.103100
      8 C8         -2.0320   -0.2010    1.4100 c3        1 43T     -0.042700
      9 N9          2.4090   -0.3100    3.0310 nz        1 43T     -0.808600
     10 C10         3.5420    0.7050    0.5260 c3        1 43T      0.115300
     11 O11         1.6980    1.4220   -1.3660 o         1 43T     -0.556500
     12 C12        -2.7240    0.0280    2.7370 c3        1 43T     -0.104100
     13 C13        -3.0090    0.0350    0.2760 c3        1 43T     -0.104100
     14 C14         4.1170    2.0320    0.9480 ca        1 43T     -0.107300
     15 C15         3.7980    3.1830    0.2170 ca        1 43T     -0.057000
     16 C16         4.3980    4.4070    0.5440 ca        1 43T     -0.148600
     17 C17         5.2990    4.5010    1.6070 ca        1 43T     -0.124000
     18 C18         5.6130    3.3400    2.3390 ca        1 43T      0.163900
     19 C19         5.0240    2.1020    2.0030 ca        1 43T     -0.138000
     20 F20         6.4810    3.4100    3.3680 f         1 43T     -0.092900
     21 C21         3.9890    5.5890   -0.2390 c         1 43T      0.557700
     22 O22         2.8570    5.8400   -0.6290 o         1 43T     -0.400100
     23 N23         5.0570    6.5740   -0.6130 ny        1 43T     -0.683800
     24 C24         5.7460    6.2120   -1.9340 c3        1 43T      0.217800
     25 C25         7.0150    6.9990   -2.0330 ca        1 43T     -0.201300
     26 C26         8.2430    6.3310   -1.9550 ca        1 43T     -0.104000
     27 C27         9.4330    7.0450   -2.0910 ca        1 43T     -0.113000
     28 C28         9.4020    8.4250   -2.2970 ca        1 43T     -0.069000
     29 C29         8.1780    9.0940   -2.3680 ca        1 43T     -0.113000
     30 C30         6.9860    8.3850   -2.2390 ca        1 43T     -0.104000
     31 C31         4.8230    6.4500   -3.1180 c3        1 43T     -0.131100
     32 H1         -0.3630   -0.5170   -0.5500 hc        1 43T      0.124200
     33 H2         -0.8320    1.2090   -0.8660 hc        1 43T      0.124200
     34 H3         -1.9380    2.4610    0.8610 hc        1 43T      0.065700
     35 H4         -0.2090    2.8100    1.2870 hc        1 43T      0.065700
     36 H5         -1.3910    2.3250    2.5820 hc        1 43T      0.065700
     37 H6         -1.7060   -1.2810    1.3590 hc        1 43T      0.060700
     38 H7          2.7960   -1.2200    2.7530 hn        1 43T      0.480133
     39 H8          3.1690    0.3600    3.1910 hn        1 43T      0.480133
     40 H9          4.0960   -0.1310    1.0410 h1        1 43T      0.094700
     41 H10         3.7450    0.5880   -0.5880 h1        1 43T      0.094700
     42 H11        -3.1810    1.0460    2.7770 hc        1 43T      0.054033
     43 H12        -3.5450   -0.7230    2.8590 hc        1 43T      0.054033
     44 H13        -2.0220   -0.0840    3.5960 hc        1 43T      0.054033
     45 H14        -2.5870   -0.2840   -0.7070 hc        1 43T      0.054033
     46 H15        -3.3120    1.1070    0.2070 hc        1 43T      0.054033
     47 H16        -3.9330   -0.5690    0.4620 hc        1 43T      0.054033
     48 H17         3.0800    3.1190   -0.6230 ha        1 43T      0.194000
     49 H18         5.7590    5.4530    1.9170 ha        1 43T      0.168000
     50 H19         5.3260    1.2050    2.5670 ha        1 43T      0.157000
     51 H20         4.6350    7.5070   -0.7260 hn        1 43T      0.463800
     52 H21         5.9800    5.1060   -1.8580 hx        1 43T      0.097700
     53 H22         8.2780    5.2400   -1.8080 ha        1 43T      0.136500
     54 H23        10.3990    6.5160   -2.0440 ha        1 43T      0.166000
     55 H24        10.3440    8.9880   -2.4090 ha        1 43T      0.170000
     56 H25         8.1530   10.1840   -2.5370 ha        1 43T      0.166000
     57 H26         6.0270    8.9190   -2.3200 ha        1 43T      0.136500
     58 H27         3.8720    5.8710   -3.0190 hc        1 43T      0.084700
     59 H28         4.5770    7.5330   -3.2450 hc        1 43T      0.084700
     60 H29         5.3560    6.1070   -4.0420 hc        1 43T      0.084700
     61 H93         1.8650   -0.4280    3.9010 hn        1 43T      0.480133
     62 H232        5.7740    6.6220    0.1180 hn        1 43T      0.463800
@<TRIPOS>BOND
     1    1    2 1   
     2    1    6 1   
     3    1   32 1   
     4    1   33 1   
     5    2    3 1   
     6    2   11 2   
     7    3    4 1   
     8    3   10 1   
     9    4    5 2   
    10    4    9 1   
    11    5    6 1   
    12    6    7 1   
    13    6    8 1   
    14    7   34 1   
    15    7   35 1   
    16    7   36 1   
    17    8   12 1   
    18    8   13 1   
    19    8   37 1   
    20    9   38 1   
    21    9   39 1   
    22    9   61 1   
    23   10   14 1   
    24   10   40 1   
    25   10   41 1   
    26   12   42 1   
    27   12   43 1   
    28   12   44 1   
    29   13   45 1   
    30   13   46 1   
    31   13   47 1   
    32   14   15 ar  
    33   14   19 ar  
    34   15   16 ar  
    35   15   48 1   
    36   16   17 ar  
    37   16   21 1   
    38   17   18 ar  
    39   17   49 1   
    40   18   19 ar  
    41   18   20 1   
    42   19   50 1   
    43   21   22 2   
    44   21   23 1   
    45   23   24 1   
    46   23   51 1   
    47   23   62 1   
    48   24   25 1   
    49   24   31 1   
    50   24   52 1   
    51   25   26 ar  
    52   25   30 ar  
    53   26   27 ar  
    54   26   53 1   
    55   27   28 ar  
    56   27   54 1   
    57   28   29 ar  
    58   28   55 1   
    59   29   30 ar  
    60   29   56 1   
    61   30   57 1   
    62   31   58 1   
    63   31   59 1   
    64   31   60 1   
@<TRIPOS>SUBSTRUCTURE
     1 43T         1 TEMP              0 ****  ****    0 ROOT
