@<TRIPOS>MOLECULE
43U
   29    31     1     0     0
SMALL
bcc


@<TRIPOS>ATOM
      1 C4         -0.0160    1.0090    0.1740 ca        1 43U     -0.069900
      2 C5          1.3810    0.9630    0.1890 ca        1 43U     -0.030000
      3 C6          2.0610    0.3820    1.2620 cp        1 43U     -0.179500
      4 C11         4.9370   -1.2730   -1.6130 cc        1 43U      0.402700
      5 C7          3.5350    0.3670    1.2510 cp        1 43U      0.610800
      6 C8          4.2180   -0.2410    0.1670 ca        1 43U     -0.203200
      7 C9          5.6810   -0.2420    0.2410 ca        1 43U      0.462800
      8 C10         5.6160    0.9060    2.2190 ca        1 43U      0.882900
      9 N1          6.2800    1.6070    3.2330 nh        1 43U     -0.922500
     10 N2          4.2140    0.9360    2.2570 nb        1 43U     -0.737000
     11 C3         -0.7420    0.4640    1.2350 ca        1 43U     -0.054000
     12 N3          6.1100   -0.9130   -0.9110 na        1 43U     -0.390000
     13 BR         -0.9100    1.8010   -1.2670 br        1 43U     -0.087100
     14 C2         -0.0830   -0.1320    2.3060 ca        1 43U     -0.217000
     15 C1          1.3190   -0.1790    2.3260 ca        1 43U      0.176100
     16 O           2.0490   -0.7790    3.3270 os        1 43U     -0.309900
     17 C           1.3090   -1.2990    4.4270 c3        1 43U      0.111700
     18 N           6.4030    0.3070    1.2500 nb        1 43U     -0.758000
     19 N4          3.8040   -0.8940   -1.0060 nd        1 43U     -0.524100
     20 H1          1.9640    1.3790   -0.6500 ha        1 43U      0.162000
     21 H3          7.2370    1.3780    3.3760 hn        1 43U      0.426300
     22 H4          5.7510    1.8040    4.0520 hn        1 43U      0.426300
     23 H5         -1.8430    0.4980    1.2330 ha        1 43U      0.147000
     24 H6          7.0430   -1.0800   -1.1770 hn        1 43U      0.316700
     25 H7         -0.6720   -0.5610    3.1290 ha        1 43U      0.143000
     26 H8          2.1060   -1.6940    5.1070 h1        1 43U      0.047033
     27 H9          0.6330   -2.1220    4.0920 h1        1 43U      0.047033
     28 H10         0.7270   -0.4900    4.9310 h1        1 43U      0.047033
     29 H2          4.9930   -1.8140   -2.5660 h5        1 43U      0.072800
@<TRIPOS>BOND
     1    1    2 ar  
     2    1   11 ar  
     3    1   13 1   
     4    2    3 ar  
     5    2   20 1   
     6    3    5 1   
     7    3   15 ar  
     8    4   12 1   
     9    4   19 2   
    10    4   29 1   
    11    5    6 ar  
    12    5   10 ar  
    13    6    7 ar  
    14    6   19 1   
    15    7   12 1   
    16    7   18 ar  
    17    8    9 1   
    18    8   10 ar  
    19    8   18 ar  
    20    9   21 1   
    21    9   22 1   
    22   11   14 ar  
    23   11   23 1   
    24   12   24 1   
    25   14   15 ar  
    26   14   25 1   
    27   15   16 1   
    28   16   17 1   
    29   17   26 1   
    30   17   27 1   
    31   17   28 1   
@<TRIPOS>SUBSTRUCTURE
     1 43U         1 TEMP              0 ****  ****    0 ROOT
