@<TRIPOS>MOLECULE
43U
   29    31     1     0     0
SMALL
bcc


@<TRIPOS>ATOM
      1 C4         -0.0160    1.0080    0.1720 ca        1 43U     -0.069900
      2 C5          1.3800    0.9590    0.1860 ca        1 43U     -0.030000
      3 C6          2.0600    0.3820    1.2620 cp        1 43U     -0.179500
      4 C11         4.9320   -1.2910   -1.6080 cc        1 43U      0.402700
      5 C7          3.5340    0.3650    1.2490 cp        1 43U      0.610800
      6 C8          4.2150   -0.2500    0.1680 ca        1 43U     -0.203200
      7 C9          5.6790   -0.2520    0.2410 ca        1 43U      0.462800
      8 C10         5.6170    0.9060    2.2140 ca        1 43U      0.882900
      9 N1          6.2830    1.6110    3.2250 nv        1 43U     -0.922500
     10 N2          4.2150    0.9380    2.2520 nb        1 43U     -0.737000
     11 C3         -0.7430    0.4680    1.2360 ca        1 43U     -0.054000
     12 N3          6.1070   -0.9290   -0.9080 na        1 43U     -0.390000
     13 Br         -0.9110    1.7950   -1.2700 br        1 43U     -0.087100
     14 C2         -0.0840   -0.1250    2.3090 ca        1 43U     -0.217000
     15 C1          1.3180   -0.1740    2.3280 ca        1 43U      0.176100
     16 O           2.0490   -0.7710    3.3310 os        1 43U     -0.309900
     17 C           1.3090   -1.2870    4.4330 c3        1 43U      0.111700
     18 N           6.4030    0.3000    1.2470 nb        1 43U     -0.758000
     19 N4          3.8000   -0.9070   -1.0010 nd        1 43U     -0.524100
     20 H1          1.9640    1.3720   -0.6540 ha        1 43U      0.162000
     21 H3          7.2390    1.3810    3.3680 hn        1 43U      0.426300
     22 H4          5.7540    1.8120    4.0420 hn        1 43U      0.426300
     23 H5         -1.8440    0.5030    1.2350 ha        1 43U      0.147000
     24 H6          7.0400   -1.0990   -1.1730 hn        1 43U      0.316700
     25 H7         -0.6720   -0.5500    3.1340 ha        1 43U      0.143000
     26 H8          0.6310   -2.1110    4.1010 h1        1 43U      0.047033
     27 H9          2.1050   -1.6820    5.1130 h1        1 43U      0.047033
     28 H10         0.7280   -0.4760    4.9350 h1        1 43U      0.047033
     29 H2          4.9870   -1.8360   -2.5580 h5        1 43U      0.072800
@<TRIPOS>BOND
     1    1    2 ar  
     2    1   11 ar  
     3    1   13 1   
     4    2    3 ar  
     5    2   20 1   
     6    3    5 1   
     7    3   15 ar  
     8    4   12 1   
     9    4   19 2   
    10    4   29 1   
    11    5    6 ar  
    12    5   10 ar  
    13    6    7 ar  
    14    6   19 1   
    15    7   12 1   
    16    7   18 ar  
    17    8    9 1   
    18    8   10 ar  
    19    8   18 ar  
    20    9   21 1   
    21    9   22 1   
    22   11   14 ar  
    23   11   23 1   
    24   12   24 1   
    25   14   15 ar  
    26   14   25 1   
    27   15   16 1   
    28   16   17 1   
    29   17   26 1   
    30   17   27 1   
    31   17   28 1   
@<TRIPOS>SUBSTRUCTURE
     1 43U         1 TEMP              0 ****  ****    0 ROOT
