@<TRIPOS>MOLECULE
43V
   54    57     1     0     0
SMALL
bcc


@<TRIPOS>ATOM
      1 N1          1.2950    1.5410    1.1600 n         1 43V     -0.522400
      2 C4          4.3220   -0.2870   -1.4520 ca        1 43V     -0.014000
      3 C5          3.5970    0.8510   -1.1090 ca        1 43V     -0.151500
      4 C6          3.9850    1.6260   -0.0090 ca        1 43V     -0.036300
      5 C7          3.2340    2.8590    0.3450 c3        1 43V     -0.117100
      6 C8          2.1310    2.6280    1.3640 c         1 43V      0.662100
      7 C10        -1.5330    0.0930    2.7860 cc        1 43V      0.411800
      8 C13        -1.8680    1.7090    6.0890 ca        1 43V     -0.113500
      9 C15        -4.1090    1.8420    6.9840 ca        1 43V     -0.123000
     10 C17        -3.7720    1.2630    4.6610 ca        1 43V     -0.113500
     11 C20        -3.2570   -3.0970    3.7650 ca        1 43V      0.013400
     12 C21        -4.2950   -3.1670    2.8300 ca        1 43V     -0.112000
     13 C22        -4.4320   -2.1600    1.8790 ca        1 43V     -0.124000
     14 C24         5.1010    1.2400    0.7440 ca        1 43V     -0.151500
     15 C1          8.4100   -2.3940   -2.7120 c3        1 43V     -0.077100
     16 C2          7.4600   -1.3590   -2.1690 c3        1 43V     -0.310600
     17 O1          5.4850   -2.9330   -1.8470 o         1 43V     -0.649800
     18 O2          6.9570   -2.5650    0.0160 o         1 43V     -0.649800
     19 C3          5.4460   -0.6750   -0.7120 ca        1 43V     -0.374500
     20 C25         5.8170    0.0990    0.3940 ca        1 43V     -0.014000
     21 O3          1.9620    3.4090    2.3190 o         1 43V     -0.583100
     22 C9          0.2260    1.2270    2.0010 cd        1 43V      0.476300
     23 N2         -0.5570    0.1370    1.8020 nc        1 43V     -0.660000
     24 S2         -0.2230    2.1840    3.3670 ss        1 43V      0.039700
     25 C11        -1.4890    1.1380    3.7170 cd        1 43V     -0.176400
     26 C12        -2.3820    1.3640    4.8290 ca        1 43V     -0.012000
     27 C16        -4.6270    1.5010    5.7350 ca        1 43V     -0.129000
     28 C14        -2.7290    1.9450    7.1580 ca        1 43V     -0.129000
     29 C18        -2.4950   -1.0130    2.7980 ca        1 43V     -0.095500
     30 C19        -2.3560   -2.0290    3.7510 ca        1 43V     -0.090000
     31 C23        -3.5360   -1.0850    1.8590 ca        1 43V      0.035400
     32 CL2        -3.7400    0.1290    0.6890 cl        1 43V     -0.078400
     33 H1          1.4980    0.9060    0.4160 hn        1 43V      0.345500
     34 H2          4.0010   -0.9060   -2.3100 ha        1 43V      0.161500
     35 H3          2.7220    1.1430   -1.7100 ha        1 43V      0.148000
     36 H4          2.7650    3.3110   -0.5720 hc        1 43V      0.094200
     37 H5          3.9310    3.6250    0.7840 hc        1 43V      0.094200
     38 H6         -0.7790    1.7880    6.2320 ha        1 43V      0.139000
     39 H7         -4.7860    2.0280    7.8300 ha        1 43V      0.133000
     40 H8         -4.1800    0.9920    3.6750 ha        1 43V      0.139000
     41 H9         -5.0000   -4.0120    2.8410 ha        1 43V      0.152000
     42 H10        -5.2460   -2.2140    1.1390 ha        1 43V      0.152000
     43 H11         5.4100    1.8370    1.6160 ha        1 43V      0.148000
     44 H12         7.8520   -3.1720   -3.2900 hc        1 43V      0.054033
     45 H13         9.1560   -1.9200   -3.3940 hc        1 43V      0.054033
     46 H14         8.9650   -2.8910   -1.8780 hc        1 43V      0.054033
     47 H15         6.9640   -0.8410   -3.0320 h1        1 43V      0.108700
     48 H16         8.0570   -0.5650   -1.6460 h1        1 43V      0.108700
     49 H17         6.6850   -0.2120    1.0040 ha        1 43V      0.161500
     50 H18        -5.7150    1.4180    5.5940 ha        1 43V      0.134000
     51 H19        -2.3160    2.2120    8.1420 ha        1 43V      0.134000
     52 H20        -1.5360   -1.9800    4.4840 ha        1 43V      0.161000
     53 CL1        -3.0860   -4.3250    4.9260 cl        1 43V     -0.086400
     54 S1          6.3070   -2.0620   -1.1190 sy        1 43V      1.382300
@<TRIPOS>BOND
     1    1    6 1   
     2    1   22 1   
     3    1   33 1   
     4    2    3 ar  
     5    2   19 ar  
     6    2   34 1   
     7    3    4 ar  
     8    3   35 1   
     9    4    5 1   
    10    4   14 ar  
    11    5    6 1   
    12    5   36 1   
    13    5   37 1   
    14    6   21 2   
    15    7   23 1   
    16    7   25 2   
    17    7   29 1   
    18    8   26 ar  
    19    8   28 ar  
    20    8   38 1   
    21    9   27 ar  
    22    9   28 ar  
    23    9   39 1   
    24   10   26 ar  
    25   10   27 ar  
    26   10   40 1   
    27   11   12 ar  
    28   11   30 ar  
    29   11   53 1   
    30   12   13 ar  
    31   12   41 1   
    32   13   31 ar  
    33   13   42 1   
    34   14   20 ar  
    35   14   43 1   
    36   15   16 1   
    37   15   44 1   
    38   15   45 1   
    39   15   46 1   
    40   16   47 1   
    41   16   48 1   
    42   16   54 1   
    43   17   54 2   
    44   18   54 2   
    45   19   20 ar  
    46   19   54 1   
    47   20   49 1   
    48   22   23 2   
    49   22   24 1   
    50   24   25 1   
    51   25   26 1   
    52   27   50 1   
    53   28   51 1   
    54   29   30 ar  
    55   29   31 ar  
    56   30   52 1   
    57   31   32 1   
@<TRIPOS>SUBSTRUCTURE
     1 43V         1 TEMP              0 ****  ****    0 ROOT
