@<TRIPOS>MOLECULE
43V
   54    55     1     0     0
SMALL
bcc


@<TRIPOS>ATOM
      1 N1          2.0660   -1.6200    2.0240 ns        1 43V     -0.290000
      2 C4          6.4950    0.0640    1.4090 ca        1 43V     -0.035500
      3 C5          5.8490   -1.0240    1.9820 ca        1 43V     -0.160000
      4 C6          4.8780   -1.7250    1.2520 ca        1 43V     -0.025000
      5 C7          4.1930   -2.8970    1.8600 c3        1 43V     -0.151000
      6 C8          2.9250   -2.5380    2.6120 c2        1 43V      0.306000
      7 C10        -1.0480   -0.0950    2.8790 c2        1 43V     -0.022000
      8 C13        -3.4040   -1.4250    4.6200 c2        1 43V     -0.171000
      9 C15        -2.0790    0.7930    8.3280 c1        1 43V      0.197000
     10 C17        -2.2580    0.3950    5.7710 c2        1 43V      0.201000
     11 C20        -4.1520    1.3400    1.3200 ca        1 43V     -0.067000
     12 C21        -4.0150    2.7040    1.5990 ca        1 43V     -0.110000
     13 C22        -2.8990    3.1530    2.2990 ca        1 43V     -0.120000
     14 C24         4.5790   -1.3270   -0.0540 ca        1 43V     -0.160000
     15 C1          4.5530    1.7950   -3.9270 c3        1 43V     -0.292000
     16 C2          5.2080    0.6520   -3.3480 c1        1 43V     -0.063000
     17 O1          6.6810    1.9110   -1.9530 o         1 43V     -0.944000
     18 O2          8.3020    1.8540   -0.1850 o         1 43V     -0.944000
     19 C3          6.1910    0.4780    0.1020 ca        1 43V     -0.859000
     20 C25         5.2310   -0.2360   -0.6270 ca        1 43V     -0.035500
     21 O3          2.6400   -3.0760    3.6990 o         1 43V     -0.345000
     22 C9          0.8740   -1.2110    2.6210 c2        1 43V     -0.174000
     23 N2          0.0590   -0.2800    2.0630 n2        1 43V     -0.139000
     24 S2          0.2990   -1.8480    4.1170 ss        1 43V      0.640000
     25 C11        -1.0670   -0.8780    4.0380 c2        1 43V     -0.438000
     26 C12        -2.0750   -0.9460    5.1210 c3        1 43V     -0.017000
     27 C16        -2.1660    0.5860    7.0720 c1        1 43V     -0.577000
     28 C14        -4.0310   -2.4860    5.1200 c2        1 43V     -0.190000
     29 C18        -2.0680    0.8740    2.4620 ca        1 43V      0.003000
     30 C19        -3.1820    0.4270    1.7420 ca        1 43V     -0.101000
     31 C23        -1.9230    2.2450    2.7260 ca        1 43V     -0.050000
     32 Cl2        -0.5660    2.8350    3.5590 cl        1 43V      0.009000
     33 H1          2.3420   -1.1670    1.1770 hn        1 43V      0.263000
     34 H2          7.2690    0.6050    1.9810 ha        1 43V      0.205500
     35 H3          6.1010   -1.3380    3.0060 ha        1 43V      0.145000
     36 H4          3.9180   -3.6450    1.0660 hc        1 43V      0.135000
     37 H5          4.8760   -3.4110    2.5920 hc        1 43V      0.135000
     38 H6         -3.8270   -0.8320    3.7920 ha        1 43V      0.134000
     39 H7         -3.6270   -3.0910    5.9430 ha        1 43V      0.121000
     40 H8         -1.6980   -1.6750    5.9040 hc        1 43V      0.123000
     41 H9         -4.7800    3.4210    1.2640 ha        1 43V      0.155000
     42 H10        -2.7830    4.2280    2.5110 ha        1 43V      0.156000
     43 H11         3.8350   -1.8820   -0.6460 ha        1 43V      0.145000
     44 H12         6.3350    2.6590    0.0140 hs        1 43V     -0.494000
     45 H13         6.1150    0.2880   -3.8520 ha        1 43V      0.061000
     46 H14         4.6840    1.9180   -5.0320 hc        1 43V      0.117000
     47 H15         3.4590    1.8130   -3.6870 hc        1 43V      0.117000
     48 H16         5.0350    2.6870   -3.4230 hc        1 43V      0.117000
     49 H17         5.0080    0.0640   -1.7200 ha        1 43V      0.205500
     50 H18        -2.4820    1.2270    5.0740 ha        1 43V      0.136000
     51 H19        -5.0050   -2.8190    4.7350 ha        1 43V      0.121000
     52 H20        -3.2820   -0.6440    1.5030 ha        1 43V      0.161000
     53 Cl1        -5.5050    0.7870    0.4560 cl        1 43V     -0.003000
     54 S1          6.9590    1.7770   -0.5730 s6        1 43V      2.866000
@<TRIPOS>BOND
     1    1    6 1   
     2    1   22 1   
     3    1   33 1   
     4    2    3 1   
     5    2   19 1   
     6    2   34 1   
     7    3    4 1   
     8    3   35 1   
     9    4    5 1   
    10    4   14 1   
    11    5    6 1   
    12    5   36 1   
    13    5   37 1   
    14    6   21 1   
    15    7   23 1   
    16    7   25 1   
    17    7   29 1   
    18    8   26 1   
    19    8   28 1   
    20    8   38 1   
    21    9   27 1   
    22   10   26 1   
    23   10   27 1   
    24   10   50 1   
    25   11   12 1   
    26   11   30 1   
    27   11   53 1   
    28   12   13 1   
    29   12   41 1   
    30   13   31 1   
    31   13   42 1   
    32   14   20 1   
    33   14   43 1   
    34   15   16 1   
    35   15   46 1   
    36   15   47 1   
    37   15   48 1   
    38   16   45 1   
    39   17   54 1   
    40   18   54 1   
    41   19   20 1   
    42   19   54 1   
    43   20   49 1   
    44   22   23 1   
    45   22   24 1   
    46   24   25 1   
    47   25   26 1   
    48   26   40 1   
    49   28   39 1   
    50   28   51 1   
    51   29   30 1   
    52   29   31 1   
    53   30   52 1   
    54   31   32 1   
    55   44   54 1   
@<TRIPOS>SUBSTRUCTURE
     1 43V         1 TEMP              0 ****  ****    0 ROOT
