@<TRIPOS>MOLECULE
43W
   18    17     1     0     0
SMALL
bcc


@<TRIPOS>ATOM
      1 O6          0.3000    1.3910    0.0950 o         1 43W     -0.958167
      2 P           1.3340    0.3000    0.0450 p5        1 43W      1.459900
      3 O           1.8810   -0.1090    1.3850 o         1 43W     -0.958167
      4 O5          0.9870   -0.8430   -0.8680 o         1 43W     -0.958167
      5 O1          2.7510    1.0730   -0.7360 os        1 43W     -0.799800
      6 P1          4.0140    1.7350   -1.3410 p5        1 43W      1.576800
      7 O4          4.4280    3.0500   -0.7620 o         1 43W     -0.932000
      8 O3          5.1280    0.8250   -1.7320 o         1 43W     -0.932000
      9 O2          3.4690    2.2840   -2.8900 os        1 43W     -0.555200
     10 C           4.4020    3.0050   -3.5820 c3        1 43W      0.267400
     11 C1          4.0640    4.5180   -3.5340 c3        1 43W     -0.119300
     12 C2          4.7890    5.2990   -4.4870 c1        1 43W      0.000900
     13 C3          5.3860    5.9680   -5.2860 c1        1 43W     -0.365500
     14 H4          5.4360    2.8510   -3.1640 h1        1 43W     -0.015300
     15 H5          4.3940    2.6900   -4.6690 h1        1 43W     -0.015300
     16 H6          2.9590    4.6340   -3.7090 hc        1 43W      0.092200
     17 H7          4.2800    4.8690   -2.4830 hc        1 43W      0.092200
     18 H8          5.9240    6.5420   -5.9850 ha        1 43W      0.120500
@<TRIPOS>BOND
     1    1    2 1   
     2    2    3 1   
     3    2    4 1   
     4    2    5 1   
     5    5    6 1   
     6    6    7 1   
     7    6    8 1   
     8    6    9 1   
     9    9   10 1   
    10   10   11 1   
    11   10   14 1   
    12   10   15 1   
    13   11   12 1   
    14   11   16 1   
    15   11   17 1   
    16   12   13 3   
    17   13   18 1   
@<TRIPOS>SUBSTRUCTURE
     1 43W         1 TEMP              0 ****  ****    0 ROOT
