@<TRIPOS>MOLECULE
440
   34    29     1     0     0
SMALL
bcc


@<TRIPOS>ATOM
      1 C          -1.0890   -0.7170   -1.5140 c1        1 440     -0.241000
      2 C1          0.2900   -0.7180   -1.4570 c1        1 440      0.025000
      3 C2          0.1930   -0.7810    0.9380 c1        1 440     -0.085000
      4 C3         -1.1850   -0.7800    0.8790 c1        1 440     -0.085000
      5 C4         -1.8280   -0.7480   -0.3510 c1        1 440      0.151000
      6 O          -3.2400   -0.8200   -0.4130 os        1 440     -0.197000
      7 C5         -3.8930    0.4610   -0.4100 c3        1 440      0.098000
      8 C6         -8.1180   -0.0950   -0.9560 c3        1 440     -0.119000
      9 C7         -6.6130    0.1020   -0.7630 c1        1 440     -0.102000
     10 C8         -5.3980    0.2630   -0.6060 c1        1 440     -0.197000
     11 C9          0.9330   -0.7500   -0.2270 c1        1 440     -0.880000
     12 O1          3.0630   -2.0330    0.7370 o         1 440     -0.937500
     13 O2          3.1820   -1.5250   -1.4240 o         1 440     -0.937500
     14 S           2.7000   -0.9870   -0.1840 ss        1 440      2.858000
     15 C10         3.5280    0.5490    0.2190 c2        1 440     -0.859000
     16 C11         5.0220    0.2910    0.3810 c3        1 440     -0.122000
     17 C12         5.6390    1.4180    1.1180 c3        1 440     -0.243000
     18 S1          5.9120    0.9450    2.8210 sh        1 440     -0.030000
     19 H'         -1.5420   -0.6940   -2.3820 ha        1 440      0.146000
     20 H1          0.8240   -0.6960   -2.2950 ha        1 440      0.158000
     21 H2          0.6430   -0.8050    1.7990 ha        1 440      0.160000
     22 H3         -1.7140   -0.8020    1.7120 ha        1 440      0.160000
     23 H51        -3.7270    0.9170    0.4610 h1        1 440      0.101000
     24 H52        -3.5330    1.0160   -1.1480 h1        1 440      0.101000
     25 H61        -8.3000   -1.0360   -1.2070 hc        1 440      0.101000
     26 H62        -8.4380    0.5040   -1.6720 hc        1 440      0.101000
     27 H63        -8.5860    0.1170   -0.1160 hc        1 440      0.101000
     28 H101        3.3840    1.2020   -0.5090 ha        1 440      0.157000
     29 H102        3.1630    0.9090    1.0620 ha        1 440      0.157000
     30 H111        5.4390    0.2130   -0.5060 hc        1 440      0.112000
     31 H112        5.1590   -0.5390    0.8790 hc        1 440      0.112000
     32 H121        6.5090    1.6530    0.6940 h1        1 440      0.101500
     33 H122        5.0330    2.2040    1.0860 h1        1 440      0.101500
     34 H1A         6.5890    1.7610    3.3550 hs        1 440      0.031000
@<TRIPOS>BOND
     1    1    5 1   
     2    1   19 1   
     3    2   11 1   
     4    2   20 1   
     5    3    4 1   
     6    3   21 1   
     7    4   22 1   
     8    5    6 1   
     9    6    7 1   
    10    7   10 1   
    11    7   23 1   
    12    7   24 1   
    13    8    9 1   
    14    8   25 1   
    15    8   26 1   
    16    8   27 1   
    17    9   10 1   
    18   12   14 1   
    19   13   14 1   
    20   15   16 1   
    21   15   28 1   
    22   15   29 1   
    23   16   17 1   
    24   16   30 1   
    25   16   31 1   
    26   17   18 1   
    27   17   32 1   
    28   17   33 1   
    29   18   34 1   
@<TRIPOS>SUBSTRUCTURE
     1 440         1 TEMP              0 ****  ****    0 ROOT
