@<TRIPOS>MOLECULE
440
   34    34     1     0     0
SMALL
bcc


@<TRIPOS>ATOM
      1 C          -1.8680   -0.1460    1.0670 ca        1 440     -0.212500
      2 C1         -0.5190   -0.4690    1.1530 ca        1 440      0.018500
      3 C2         -0.4170   -0.7960   -1.2320 ca        1 440      0.018500
      4 C3         -1.7590   -0.4790   -1.3510 ca        1 440     -0.212500
      5 C4         -2.4910   -0.1470   -0.1900 ca        1 440      0.197100
      6 O          -3.8090    0.1590   -0.4140 os        1 440     -0.313900
      7 C5         -4.5950    0.4640    0.7600 c3        1 440      0.221500
      8 C6         -8.3990    1.2230   -0.4260 c3        1 440     -0.028000
      9 C7         -7.0570    0.9550   -0.0250 c1        1 440     -0.073100
     10 C8         -5.9340    0.7300    0.3230 c1        1 440     -0.171100
     11 C9          0.2320   -0.7900    0.0150 ca        1 440     -0.438500
     12 O1          2.1310   -1.6370    1.4410 o         1 440     -0.654800
     13 O2          2.2170   -2.0320   -0.9260 o         1 440     -0.654800
     14 S           1.8420   -1.2010    0.1390 sy        1 440      1.394300
     15 C10         2.5390    0.3510   -0.0950 c3        1 440     -0.307600
     16 C11         4.0500    0.2990   -0.0380 c3        1 440     -0.049400
     17 C12         4.6470    1.6670   -0.2530 c3        1 440      0.013700
     18 S1          6.4070    1.4920   -0.1520 sh        1 440     -0.368900
     19 H'         -2.4270    0.0980    1.9810 ha        1 440      0.154500
     20 H1         -0.0270   -0.4880    2.1430 ha        1 440      0.157500
     21 H2          0.1590   -1.0780   -2.1330 ha        1 440      0.157500
     22 H3         -2.2670   -0.4850   -2.3260 ha        1 440      0.154500
     23 H51        -4.5700   -0.4210    1.4560 h1        1 440      0.062200
     24 H52        -4.1530    1.3670    1.2670 h1        1 440      0.062200
     25 H61        -8.6880    2.2720   -0.1570 hc        1 440      0.062033
     26 H62        -8.5040    1.1000   -1.5360 hc        1 440      0.062033
     27 H63        -9.1090    0.5170    0.0780 hc        1 440      0.062033
     28 H101        2.2320    0.7840   -1.0830 h1        1 440      0.106700
     29 H102        2.1760    1.0770    0.6780 h1        1 440      0.106700
     30 H111        4.3720   -0.1010    0.9630 hc        1 440      0.077200
     31 H112        4.4290   -0.4070   -0.8280 hc        1 440      0.077200
     32 H121        4.3520    2.0690   -1.2520 h1        1 440      0.059700
     33 H122        4.2820    2.3790    0.5250 h1        1 440      0.059700
     34 H1A         6.7500    2.7480   -0.3710 hs        1 440      0.199800
@<TRIPOS>BOND
     1    1    2 ar  
     2    1    5 ar  
     3    1   19 1   
     4    2   11 ar  
     5    2   20 1   
     6    3    4 ar  
     7    3   11 ar  
     8    3   21 1   
     9    4    5 ar  
    10    4   22 1   
    11    5    6 1   
    12    6    7 1   
    13    7   10 1   
    14    7   23 1   
    15    7   24 1   
    16    8    9 1   
    17    8   25 1   
    18    8   26 1   
    19    8   27 1   
    20    9   10 3   
    21   11   14 1   
    22   12   14 2   
    23   13   14 2   
    24   14   15 1   
    25   15   16 1   
    26   15   28 1   
    27   15   29 1   
    28   16   17 1   
    29   16   30 1   
    30   16   31 1   
    31   17   18 1   
    32   17   32 1   
    33   17   33 1   
    34   18   34 1   
@<TRIPOS>SUBSTRUCTURE
     1 440         1 TEMP              0 ****  ****    0 ROOT
