@<TRIPOS>MOLECULE
440
   34    34     1     0     0
SMALL
bcc


@<TRIPOS>ATOM
      1 C           0.1090   -0.0600   -0.0740 ca        1 440     -0.212500
      2 C1          1.4960    0.0040   -0.0220 ca        1 440      0.018500
      3 C2          1.4470   -0.2190    2.3760 ca        1 440      0.018500
      4 C3          0.0650   -0.2860    2.3590 ca        1 440     -0.212500
      5 C4         -0.6110   -0.2090    1.1210 ca        1 440      0.197100
      6 O          -1.9770   -0.2930    1.2110 os        1 440     -0.313900
      7 C5         -2.6990   -0.1770   -0.0360 c3        1 440      0.221500
      8 C6         -6.6670   -0.4180    0.7740 c3        1 440     -0.028000
      9 C7         -5.2690   -0.3360    0.5050 c1        1 440     -0.073100
     10 C8         -4.0980   -0.2650    0.2680 c1        1 440     -0.171100
     11 C9          2.1910   -0.0820    1.1910 ca        1 440     -0.438500
     12 O1          4.3280    0.6660    0.0840 o         1 440     -0.654800
     13 O2          4.2770    0.5140    2.4800 o         1 440     -0.654800
     14 S           3.8530    0.0230    1.2370 sy        1 440      1.394300
     15 C10         4.2350   -1.6480    1.1400 c3        1 440     -0.307600
     16 C11         5.7300   -1.8810    1.1630 c3        1 440     -0.049400
     17 C12         6.0490   -3.3520    1.0860 c3        1 440      0.013700
     18 S1          7.8140   -3.5070    1.1060 sh        1 440     -0.368900
     19 H'         -0.4030    0.0130   -1.0430 ha        1 440      0.154500
     20 H1          2.0690    0.1400   -0.9580 ha        1 440      0.157500
     21 H2          1.9830   -0.2580    3.3420 ha        1 440      0.157500
     22 H3         -0.5180   -0.3920    3.2860 ha        1 440      0.154500
     23 H51        -2.3850   -1.0170   -0.7170 h1        1 440      0.062200
     24 H52        -2.4550    0.8150   -0.5080 h1        1 440      0.062200
     25 H61        -6.8450   -0.5180    1.8760 hc        1 440      0.062033
     26 H62        -7.1920    0.5040    0.4120 hc        1 440      0.062033
     27 H63        -7.1150   -1.3070    0.2600 hc        1 440      0.062033
     28 H101        3.8160   -2.1040    0.2050 h1        1 440      0.106700
     29 H102        3.7700   -2.2170    1.9880 h1        1 440      0.106700
     30 H111        6.2050   -1.3450    0.2960 hc        1 440      0.077200
     31 H112        6.1600   -1.4510    2.1100 hc        1 440      0.077200
     32 H121        5.6310   -3.7940    0.1500 h1        1 440      0.059700
     33 H122        5.6010   -3.8960    1.9520 h1        1 440      0.059700
     34 H1A         7.9040   -4.8230    1.0460 hs        1 440      0.199800
@<TRIPOS>BOND
     1    1    2 ar  
     2    1    5 ar  
     3    1   19 1   
     4    2   11 ar  
     5    2   20 1   
     6    3    4 ar  
     7    3   11 ar  
     8    3   21 1   
     9    4    5 ar  
    10    4   22 1   
    11    5    6 1   
    12    6    7 1   
    13    7   10 1   
    14    7   23 1   
    15    7   24 1   
    16    8    9 1   
    17    8   25 1   
    18    8   26 1   
    19    8   27 1   
    20    9   10 3   
    21   11   14 1   
    22   12   14 2   
    23   13   14 2   
    24   14   15 1   
    25   15   16 1   
    26   15   28 1   
    27   15   29 1   
    28   16   17 1   
    29   16   30 1   
    30   16   31 1   
    31   17   18 1   
    32   17   32 1   
    33   17   33 1   
    34   18   34 1   
@<TRIPOS>SUBSTRUCTURE
     1 440         1 TEMP              0 ****  ****    0 ROOT
