@<TRIPOS>MOLECULE
440
   34    34     1     0     0
SMALL
bcc


@<TRIPOS>ATOM
      1 C          -0.1440   -0.3790   -0.1310 ca        1 440     -0.202500
      2 C1          1.2110   -0.1400    0.0560 ca        1 440      0.014000
      3 C2          1.0310   -0.7760    2.3740 ca        1 440      0.014000
      4 C3         -0.3230   -1.0260    2.2200 ca        1 440     -0.202500
      5 C4         -0.9100   -0.8290    0.9540 ca        1 440      0.141000
      6 O          -2.2660   -1.0830    0.8910 os        1 440     -0.160000
      7 C5         -2.8210   -1.1430   -0.3870 c2        1 440     -0.111000
      8 C6         -5.2340    0.6250    1.2730 c3        1 440     -0.234000
      9 C7         -4.4960    0.6330    0.0480 c1        1 440     -0.031000
     10 C8         -3.9220   -0.4150   -0.6730 c2        1 440     -0.173000
     11 C9          1.8250   -0.3410    1.3000 ca        1 440     -0.878000
     12 O1          3.9010    0.8700    0.5350 o         1 440     -0.933500
     13 O2          3.7080    0.2880    2.8570 o         1 440     -0.933500
     14 S           3.4480   -0.0250    1.5150 s6        1 440      2.858000
     15 C10         4.0750   -1.5870    1.1760 c3        1 440     -0.847000
     16 C11         5.5820   -1.6230    1.3040 c3        1 440     -0.128000
     17 C12         6.1190   -3.0000    1.0100 c3        1 440     -0.247000
     18 S1          7.8800   -2.9250    1.1830 sh        1 440     -0.014000
     19 H'         -0.6120   -0.2000   -1.1100 ha        1 440      0.157000
     20 H1          1.8190    0.2360   -0.7880 ha        1 440      0.158000
     21 H2          1.5000   -0.9070    3.3670 ha        1 440      0.158000
     22 H3         -0.9440   -1.3660    3.0610 ha        1 440      0.157000
     23 H51        -4.3890   -0.5610   -1.6720 ha        1 440      0.180000
     24 H52        -2.3080   -1.8090   -1.0910 h4        1 440      0.149000
     25 H61        -4.6090    1.1890    2.0240 hc        1 440      0.119333
     26 H62        -6.1830    1.2120    1.1320 hc        1 440      0.119333
     27 H63        -5.4840   -0.3810    1.6970 hc        1 440      0.119333
     28 H101        3.7960   -1.9180    0.1420 h1        1 440      0.146000
     29 H102        3.6390   -2.3550    1.8670 h1        1 440      0.146000
     30 H111        6.0350   -0.8800    0.5900 hc        1 440      0.116500
     31 H112        5.8760   -1.3180    2.3470 hc        1 440      0.116500
     32 H121        5.8430   -3.3140   -0.0260 h1        1 440      0.099000
     33 H122        5.6890   -3.7470    1.7200 h1        1 440      0.099000
     34 H1A         8.1670   -4.1830    0.9010 hs        1 440      0.028000
@<TRIPOS>BOND
     1    1    2 1   
     2    1    5 1   
     3    1   19 1   
     4    2   11 1   
     5    2   20 1   
     6    3    4 1   
     7    3   11 1   
     8    3   21 1   
     9    4    5 1   
    10    4   22 1   
    11    5    6 1   
    12    6    7 1   
    13    7   10 1   
    14    7   24 1   
    15    8    9 1   
    16    8   25 1   
    17    8   26 1   
    18    8   27 1   
    19    9   10 1   
    20   10   23 1   
    21   11   14 1   
    22   12   14 1   
    23   13   14 1   
    24   14   15 1   
    25   15   16 1   
    26   15   28 1   
    27   15   29 1   
    28   16   17 1   
    29   16   30 1   
    30   16   31 1   
    31   17   18 1   
    32   17   32 1   
    33   17   33 1   
    34   18   34 1   
@<TRIPOS>SUBSTRUCTURE
     1 440         1 TEMP              0 ****  ****    0 ROOT
