@<TRIPOS>MOLECULE
442
   55    57     1     0     0
SMALL
bcc


@<TRIPOS>ATOM
      1 O3         -0.1100    1.1690   -0.4430 oh        1 442     -0.631800
      2 C8          1.2080    0.7570   -0.1610 c3        1 442      0.334900
      3 O2          1.2070    0.4210    1.2070 oh        1 442     -0.631800
      4 C7          1.5140   -0.4250   -1.0860 c3        1 442     -0.072100
      5 C5          2.9730   -0.6800   -1.2160 ca        1 442     -0.063300
      6 C6          3.5150   -0.9830   -2.4690 ca        1 442     -0.086000
      7 C4          3.8040   -0.6440   -0.0910 ca        1 442     -0.086000
      8 C3          5.1720   -0.9050   -0.2070 ca        1 442     -0.028400
      9 Br2         6.2230   -0.8390    1.3430 br        1 442     -0.049100
     10 C2          5.7070   -1.1980   -1.4740 ca        1 442      0.099100
     11 C1          4.8800   -1.2500   -2.6100 ca        1 442     -0.028400
     12 Br1         5.5330   -1.6550   -4.3190 br        1 442     -0.049100
     13 O4          7.0930   -1.2860   -1.6300 os        1 442     -0.222200
     14 C11         7.6510   -2.5510   -1.5190 ca        1 442      0.113100
     15 C12         9.0430   -2.5820   -1.7110 ca        1 442     -0.065000
     16 C13         9.7130   -3.8000   -1.6170 ca        1 442     -0.186300
     17 C14         8.9890   -4.9730   -1.3170 ca        1 442      0.097100
     18 C15         7.6030   -4.9330   -1.1370 ca        1 442     -0.156000
     19 C16         6.9300   -3.7190   -1.2380 ca        1 442     -0.105000
     20 O           9.7280   -6.1330   -1.1900 oh        1 442     -0.552100
     21 C17        11.1850   -3.9080   -1.8890 c3        1 442      0.426600
     22 O1         11.7070   -2.6640   -2.2800 oh        1 442     -0.562800
     23 N28        11.9110   -4.3070   -0.5930 ny        1 442     -0.805000
     24 C29        13.3400   -4.6430   -0.8260 c3        1 442      0.097800
     25 C30        14.0870   -4.9890    0.4630 c3        1 442     -0.045100
     26 C31        15.5020   -5.3080    0.1310 ca        1 442     -0.127300
     27 C36        15.8700   -6.6200   -0.1900 ca        1 442     -0.118000
     28 C35        17.2000   -6.9210   -0.4820 ca        1 442     -0.118500
     29 C32        16.4750   -4.3030    0.1610 ca        1 442     -0.118000
     30 C33        17.8040   -4.6080   -0.1310 ca        1 442     -0.118500
     31 C34        18.1670   -5.9160   -0.4540 ca        1 442     -0.101000
     32 HO3        -0.2860    1.9630    0.0770 ho        1 442      0.424000
     33 H8          1.9590    1.5880   -0.2670 h2        1 442      0.080700
     34 HO2         0.5000   -0.2190    1.3620 ho        1 442      0.424000
     35 H71         1.0580   -0.2080   -2.0900 hc        1 442      0.082200
     36 H72         1.0120   -1.3460   -0.6820 hc        1 442      0.082200
     37 H6          2.8560   -1.0080   -3.3530 ha        1 442      0.176000
     38 H4          3.3610   -0.3970    0.8930 ha        1 442      0.176000
     39 H12         9.5860   -1.6510   -1.9460 ha        1 442      0.186000
     40 H15         7.0450   -5.8570   -0.9170 ha        1 442      0.161000
     41 H16         5.8370   -3.6780   -1.0990 ha        1 442      0.173000
     42 HO          9.1160   -6.8840   -1.1580 ho        1 442      0.457000
     43 H17        11.3910   -4.7340   -2.6340 hx        1 442      0.111700
     44 HO1        12.3160   -2.8060   -3.0210 ho        1 442      0.447000
     45 H28        11.8470   -3.5260    0.0680 hn        1 442      0.460300
     46 H291       13.3840   -5.5190   -1.5350 hx        1 442      0.102200
     47 H292       13.8280   -3.7520   -1.3180 hx        1 442      0.102200
     48 H301       13.6040   -5.8710    0.9640 hc        1 442      0.069200
     49 H302       14.0480   -4.1240    1.1780 hc        1 442      0.069200
     50 H36        15.1140   -7.4190   -0.2000 ha        1 442      0.132000
     51 H35        17.4860   -7.9550   -0.7280 ha        1 442      0.149500
     52 H32        16.1970   -3.2720    0.4270 ha        1 442      0.132000
     53 H33        18.5680   -3.8160   -0.1010 ha        1 442      0.149500
     54 H34        19.2180   -6.1560   -0.6810 ha        1 442      0.151000
     55 H282       11.4190   -5.1170   -0.1960 hn        1 442      0.460300
@<TRIPOS>BOND
     1    1    2 1   
     2    1   32 1   
     3    2    3 1   
     4    2    4 1   
     5    2   33 1   
     6    3   34 1   
     7    4    5 1   
     8    4   35 1   
     9    4   36 1   
    10    5    6 ar  
    11    5    7 ar  
    12    6   11 ar  
    13    6   37 1   
    14    7    8 ar  
    15    7   38 1   
    16    8    9 1   
    17    8   10 ar  
    18   10   11 ar  
    19   10   13 1   
    20   11   12 1   
    21   13   14 1   
    22   14   15 ar  
    23   14   19 ar  
    24   15   16 ar  
    25   15   39 1   
    26   16   17 ar  
    27   16   21 1   
    28   17   18 ar  
    29   17   20 1   
    30   18   19 ar  
    31   18   40 1   
    32   19   41 1   
    33   20   42 1   
    34   21   22 1   
    35   21   23 1   
    36   21   43 1   
    37   22   44 1   
    38   23   24 1   
    39   23   45 1   
    40   23   55 1   
    41   24   25 1   
    42   24   46 1   
    43   24   47 1   
    44   25   26 1   
    45   25   48 1   
    46   25   49 1   
    47   26   27 ar  
    48   26   29 ar  
    49   27   28 ar  
    50   27   50 1   
    51   28   31 ar  
    52   28   51 1   
    53   29   30 ar  
    54   29   52 1   
    55   30   31 ar  
    56   30   53 1   
    57   31   54 1   
@<TRIPOS>SUBSTRUCTURE
     1 442         1 TEMP              0 ****  ****    0 ROOT
