@<TRIPOS>MOLECULE
442
   54    50     1     0     0
SMALL
bcc


@<TRIPOS>ATOM
      1 O3         -8.0940    4.4080   -3.1240 oh        1 442     -0.360000
      2 C8         -7.5550    3.8530   -1.9210 c3        1 442      0.150000
      3 O2         -8.5910    3.7370   -0.9460 oh        1 442     -0.360000
      4 C7         -6.9660    2.4540   -2.2180 c3        1 442     -0.151000
      5 C5         -5.6330    2.2860   -1.4650 c2        1 442     -0.078000
      6 C6         -4.4480    2.6810   -2.0630 c2        1 442     -0.082000
      7 C4         -5.6090    1.6210   -0.2280 c1        1 442     -0.087000
      8 C3         -4.3880    1.3570    0.4000 c1        1 442     -0.175000
      9 BR2        -4.3640    0.6050    2.1340 br        1 442      0.089000
     10 C2         -3.1950    1.7540   -0.2000 c1        1 442      0.094000
     11 C1         -3.2200    2.4160   -1.4310 c1        1 442     -0.179000
     12 BR1        -1.5830    2.9890   -2.2440 br        1 442      0.085000
     13 O4         -1.9650    1.5550    0.4720 os        1 442     -0.147000
     14 C11        -1.3630    0.3240    0.0240 c2        1 442      0.033000
     15 C12         0.0260    0.1780    0.0510 c2        1 442     -0.090000
     16 C13         0.5990   -1.0210   -0.2920 c1        1 442     -0.119000
     17 C14        -0.2050   -2.0940   -0.6680 c1        1 442      0.082000
     18 C15        -1.5820   -1.9500   -0.6940 c1        1 442     -0.189000
     19 C16        -2.1600   -0.7390   -0.3480 c1        1 442     -0.128000
     20 O           0.3800   -3.2670   -1.1480 oh        1 442     -0.249000
     21 C17         2.0760   -1.1390   -0.3640 c3        1 442      0.148000
     22 O1          2.5860   -0.1050   -1.1590 oh        1 442     -0.372000
     23 N28         2.6200   -1.0450    0.9490 n3        1 442     -0.286000
     24 C29         3.8870   -1.6750    0.9810 c3        1 442     -0.073000
     25 C30         4.6530   -1.2180    2.2400 c3        1 442     -0.128000
     26 C31         6.0620   -1.7750    2.2100 c2        1 442     -0.072000
     27 C36         6.3200   -3.0590    2.7000 c2        1 442     -0.125000
     28 C35         7.6120   -3.5730    2.6600 c1        1 442     -0.130000
     29 C32         7.0970   -1.0130    1.6820 c1        1 442     -0.127000
     30 C33         8.3980   -1.5320    1.6420 c1        1 442     -0.130500
     31 C34         8.6530   -2.8070    2.1290 c1        1 442     -0.130500
     32 HO3        -7.9180    5.2680   -3.1530 ho        1 442      0.217000
     33 H8         -6.8310    4.4530   -1.5700 h2        1 442      0.122000
     34 HO2        -8.9830    4.5280   -0.8350 ho        1 442      0.217000
     35 H71        -7.5730    1.7890   -1.9340 hc        1 442      0.113500
     36 H72        -6.8120    2.3650   -3.1700 hc        1 442      0.113500
     37 H6         -4.4640    3.1300   -2.8980 ha        1 442      0.175000
     38 H4         -6.4230    1.4110    0.2130 ha        1 442      0.154000
     39 H12         0.5720    0.9050    0.3060 ha        1 442      0.165000
     40 H15        -2.1230   -2.6720   -0.9470 ha        1 442      0.139000
     41 H16        -3.1690   -0.6340   -0.3670 ha        1 442      0.148000
     42 HO         -0.2040   -3.9190   -1.1170 ho        1 442      0.221000
     43 H17         2.3160   -1.9950   -0.7550 h2        1 442      0.119000
     44 HO1         2.8330   -0.4520   -2.0100 ho        1 442      0.213000
     45 H28         2.7100   -0.1740    1.1770 hn        1 442      0.160000
     46 H291        4.3840   -1.4330    0.1990 h1        1 442      0.084000
     47 H292        3.7660   -2.6610    1.0060 h1        1 442      0.084000
     48 H301        4.1890   -1.5460    3.0410 hc        1 442      0.093500
     49 H302        4.6900   -0.2130    2.2630 hc        1 442      0.093500
     50 H36         5.5840   -3.6020    3.0760 ha        1 442      0.132000
     51 H35         7.7920   -4.4690    3.0020 ha        1 442      0.130000
     52 H32         6.9150   -0.0990    1.3330 ha        1 442      0.134000
     53 H33         9.1190   -1.0040    1.2760 ha        1 442      0.130000
     54 H34         9.5850   -3.1790    2.1000 ha        1 442      0.130000
@<TRIPOS>BOND
     1    1    2 1   
     2    1   32 1   
     3    2    3 1   
     4    2    4 1   
     5    2   33 1   
     6    3   34 1   
     7    4    5 1   
     8    4   35 1   
     9    4   36 1   
    10    5    6 1   
    11    5    7 1   
    12    6   11 1   
    13    6   37 1   
    14    7   38 1   
    15    8    9 1   
    16    8   10 1   
    17   10   13 1   
    18   11   12 1   
    19   13   14 1   
    20   14   15 1   
    21   14   19 1   
    22   15   16 1   
    23   15   39 1   
    24   16   21 1   
    25   17   18 1   
    26   17   20 1   
    27   18   40 1   
    28   19   41 1   
    29   20   42 1   
    30   21   22 1   
    31   21   23 1   
    32   21   43 1   
    33   22   44 1   
    34   23   24 1   
    35   23   45 1   
    36   24   25 1   
    37   24   46 1   
    38   24   47 1   
    39   25   26 1   
    40   25   48 1   
    41   25   49 1   
    42   26   27 1   
    43   26   29 1   
    44   27   28 1   
    45   27   50 1   
    46   28   51 1   
    47   29   52 1   
    48   30   31 1   
    49   30   53 1   
    50   31   54 1   
@<TRIPOS>SUBSTRUCTURE
     1 442         1 TEMP              0 ****  ****    0 ROOT
