@<TRIPOS>MOLECULE
442
   55    57     1     0     0
SMALL
bcc


@<TRIPOS>ATOM
      1 O3         -0.1280    1.1310   -0.3930 oh        1 442     -0.631800
      2 C8          1.1820    0.7030   -0.1030 c3        1 442      0.334900
      3 O2          1.1440    0.2770    1.2390 oh        1 442     -0.631800
      4 C7          1.5160   -0.4160   -1.0950 c3        1 442     -0.072100
      5 C5          2.9790   -0.6600   -1.2020 ca        1 442     -0.063300
      6 C6          3.5560   -0.8800   -2.4560 ca        1 442     -0.086000
      7 C4          3.7790   -0.6990   -0.0550 ca        1 442     -0.086000
      8 C3          5.1500   -0.9500   -0.1500 ca        1 442     -0.028400
      9 BR2         6.1580   -0.9860    1.4300 br        1 442     -0.049100
     10 C2          5.7200   -1.1590   -1.4180 ca        1 442      0.099100
     11 C1          4.9250   -1.1360   -2.5780 ca        1 442     -0.028400
     12 BR1         5.6250   -1.4260   -4.2900 br        1 442     -0.049100
     13 O4          7.1110   -1.2350   -1.5410 os        1 442     -0.222200
     14 C11         7.6670   -2.5050   -1.5030 ca        1 442      0.113100
     15 C12         9.0640   -2.5230   -1.6660 ca        1 442     -0.065000
     16 C13         9.7330   -3.7450   -1.6380 ca        1 442     -0.186300
     17 C14         9.0050   -4.9350   -1.4340 ca        1 442      0.097100
     18 C15         7.6140   -4.9080   -1.2820 ca        1 442     -0.156000
     19 C16         6.9420   -3.6890   -1.3180 ca        1 442     -0.105000
     20 O           9.7420   -6.1010   -1.3680 oh        1 442     -0.552100
     21 C17        11.2110   -3.8340   -1.8830 c3        1 442      0.426600
     22 O1         11.7400   -2.5670   -2.1790 oh        1 442     -0.562800
     23 N28        11.9090   -4.3190   -0.6020 n4        1 442     -0.805000
     24 C29        13.3430   -4.6400   -0.8260 c3        1 442      0.097800
     25 C30        14.0620   -5.0720    0.4530 c3        1 442     -0.045100
     26 C31        15.4840   -5.3690    0.1320 ca        1 442     -0.127300
     27 C36        15.8620   -6.6610   -0.2530 ca        1 442     -0.117500
     28 C35        17.1980   -6.9420   -0.5360 ca        1 442     -0.118500
     29 C32        16.4530   -4.3650    0.2360 ca        1 442     -0.117500
     30 C33        17.7880   -4.6510   -0.0480 ca        1 442     -0.118500
     31 C34        18.1610   -5.9380   -0.4340 ca        1 442     -0.101000
     32 HO3        -0.3210    1.8890    0.1740 ho        1 442      0.424000
     33 H8          1.9340    1.5400   -0.1330 h2        1 442      0.080700
     34 HO2         0.4350   -0.3730    1.3320 ho        1 442      0.424000
     35 H71         1.0870   -0.1330   -2.0950 hc        1 442      0.082200
     36 H72         1.0060   -1.3620   -0.7670 hc        1 442      0.082200
     37 H6          2.9210   -0.8460   -3.3580 ha        1 442      0.176000
     38 H4          3.3090   -0.5170    0.9310 ha        1 442      0.176000
     39 H12         9.6110   -1.5780   -1.8260 ha        1 442      0.186000
     40 H15         7.0530   -5.8440   -1.1370 ha        1 442      0.161000
     41 H16         5.8460   -3.6580   -1.2000 ha        1 442      0.173000
     42 HO          9.1300   -6.8530   -1.3990 ho        1 442      0.457000
     43 H17        11.4350   -4.6090   -2.6780 hx        1 442      0.111700
     44 HO1        12.3650   -2.6590   -2.9140 ho        1 442      0.447000
     45 H28        11.4080   -5.1530   -0.2700 hn        1 442      0.460300
     46 H291       13.4020   -5.4680   -1.5890 hx        1 442      0.102200
     47 H292       13.8400   -3.7200   -1.2470 hx        1 442      0.102200
     48 H301       13.5690   -5.9840    0.8850 hc        1 442      0.069200
     49 H302       14.0060   -4.2550    1.2230 hc        1 442      0.069200
     50 H36        15.1080   -7.4590   -0.3220 ha        1 442      0.132000
     51 H35        17.4920   -7.9610   -0.8330 ha        1 442      0.149500
     52 H32        16.1660   -3.3510    0.5530 ha        1 442      0.132000
     53 H33        18.5480   -3.8590    0.0410 ha        1 442      0.149500
     54 H34        19.2170   -6.1630   -0.6540 ha        1 442      0.151000
     55 H282       11.8300   -3.5840    0.1080 hn        1 442      0.460300
@<TRIPOS>BOND
     1    1    2 1   
     2    1   32 1   
     3    2    3 1   
     4    2    4 1   
     5    2   33 1   
     6    3   34 1   
     7    4    5 1   
     8    4   35 1   
     9    4   36 1   
    10    5    6 ar  
    11    5    7 ar  
    12    6   11 ar  
    13    6   37 1   
    14    7    8 ar  
    15    7   38 1   
    16    8    9 1   
    17    8   10 ar  
    18   10   11 ar  
    19   10   13 1   
    20   11   12 1   
    21   13   14 1   
    22   14   15 ar  
    23   14   19 ar  
    24   15   16 ar  
    25   15   39 1   
    26   16   17 ar  
    27   16   21 1   
    28   17   18 ar  
    29   17   20 1   
    30   18   19 ar  
    31   18   40 1   
    32   19   41 1   
    33   20   42 1   
    34   21   22 1   
    35   21   23 1   
    36   21   43 1   
    37   22   44 1   
    38   23   24 1   
    39   23   45 1   
    40   23   55 1   
    41   24   25 1   
    42   24   46 1   
    43   24   47 1   
    44   25   26 1   
    45   25   48 1   
    46   25   49 1   
    47   26   27 ar  
    48   26   29 ar  
    49   27   28 ar  
    50   27   50 1   
    51   28   31 ar  
    52   28   51 1   
    53   29   30 ar  
    54   29   52 1   
    55   30   31 ar  
    56   30   53 1   
    57   31   54 1   
@<TRIPOS>SUBSTRUCTURE
     1 442         1 TEMP              0 ****  ****    0 ROOT
