@<TRIPOS>MOLECULE
442
   54    56     1     0     0
SMALL
bcc


@<TRIPOS>ATOM
      1 O3          2.0140    0.6690    8.3130 oh        1 442     -0.633300
      2 C8          1.9840    0.3210    6.9450 c3        1 442      0.332900
      3 O2          2.8320   -0.7980    6.8370 oh        1 442     -0.633300
      4 C7          0.5230    0.0390    6.5840 c3        1 442     -0.063100
      5 C5          0.2750    0.1370    5.1220 ca        1 442     -0.089300
      6 C6         -0.8640    0.7950    4.6520 ca        1 442     -0.086500
      7 C4          1.1590   -0.4480    4.2100 ca        1 442     -0.086500
      8 C3          0.9160   -0.3810    2.8370 ca        1 442     -0.036400
      9 BR2         2.1580   -1.1780    1.6830 br        1 442     -0.053100
     10 C2         -0.2360    0.2810    2.3720 ca        1 442      0.141100
     11 C1         -1.1340    0.8680    3.2830 ca        1 442     -0.036400
     12 BR1        -2.6890    1.7640    2.7420 br        1 442     -0.053100
     13 O4         -0.4380    0.4910    1.0110 os        1 442     -0.238200
     14 C11        -0.8920   -0.6130    0.2830 ca        1 442      0.071100
     15 C12        -0.6090   -0.5700   -1.0880 ca        1 442     -0.079000
     16 C13        -1.0970   -1.5770   -1.9250 ca        1 442     -0.180300
     17 C14        -1.8220   -2.6420   -1.3550 ca        1 442      0.121100
     18 C15        -2.0950   -2.6740    0.0250 ca        1 442     -0.136000
     19 C16        -1.6400   -1.6520    0.8470 ca        1 442     -0.133000
     20 O          -2.3540   -3.6880   -2.0740 oh        1 442     -0.512100
     21 C17        -0.7930   -1.5570   -3.4090 c3        1 442      0.419600
     22 O1         -1.8340   -2.2210   -4.1410 oh        1 442     -0.641800
     23 N28        -0.5080   -0.2250   -3.9210 n3        1 442     -0.847200
     24 C29        -0.0910   -0.2110   -5.3100 c3        1 442      0.166800
     25 C30        -0.0460    1.2010   -5.9020 c3        1 442     -0.042100
     26 C31         0.4900    1.1620   -7.2890 ca        1 442     -0.081300
     27 C36         1.8650    1.0030   -7.5060 ca        1 442     -0.125500
     28 C35         2.3740    0.9770   -8.8030 ca        1 442     -0.128000
     29 C32        -0.3660    1.2960   -8.3880 ca        1 442     -0.125500
     30 C33         0.1460    1.2700   -9.6850 ca        1 442     -0.128000
     31 C34         1.5150    1.1110   -9.8950 ca        1 442     -0.130000
     32 HO3         2.9290    0.8770    8.5390 ho        1 442      0.418500
     33 H8          2.4430    1.1110    6.2880 h2        1 442      0.081700
     34 HO2         2.4770   -1.5030    7.3930 ho        1 442      0.418500
     35 H71         0.2500   -0.9920    6.9390 hc        1 442      0.074700
     36 H72        -0.1210    0.7680    7.1450 hc        1 442      0.074700
     37 H6         -1.5570    1.2600    5.3740 ha        1 442      0.164000
     38 H4          2.0610   -0.9580    4.5950 ha        1 442      0.164000
     39 H12        -0.0050    0.2640   -1.4790 ha        1 442      0.172000
     40 H15        -2.6760   -3.5140    0.4340 ha        1 442      0.156000
     41 H16        -1.8550   -1.6650    1.9250 ha        1 442      0.148000
     42 HO         -1.8270   -3.8200   -2.8790 ho        1 442      0.442000
     43 H17         0.1130   -2.2100   -3.6110 h2        1 442      0.094700
     44 HO1        -2.6850   -1.8460   -3.8840 ho        1 442      0.412000
     45 H28        -1.2780    0.3970   -3.7620 hn        1 442      0.365800
     46 H291        0.9440   -0.6560   -5.3530 h1        1 442      0.045700
     47 H292       -0.7620   -0.8510   -5.9550 h1        1 442      0.045700
     48 H301       -1.0770    1.6470   -5.9000 hc        1 442      0.054200
     49 H302        0.6060    1.8590   -5.2680 hc        1 442      0.054200
     50 H36         2.5420    0.8990   -6.6460 ha        1 442      0.132500
     51 H35         3.4540    0.8520   -8.9650 ha        1 442      0.131000
     52 H32        -1.4470    1.4220   -8.2280 ha        1 442      0.132500
     53 H33        -0.5330    1.3760  -10.5430 ha        1 442      0.131000
     54 H34         1.9180    1.0910  -10.9180 ha        1 442      0.131000
@<TRIPOS>BOND
     1    1    2 1   
     2    1   32 1   
     3    2    3 1   
     4    2    4 1   
     5    2   33 1   
     6    3   34 1   
     7    4    5 1   
     8    4   35 1   
     9    4   36 1   
    10    5    6 ar  
    11    5    7 ar  
    12    6   11 ar  
    13    6   37 1   
    14    7    8 ar  
    15    7   38 1   
    16    8    9 1   
    17    8   10 ar  
    18   10   11 ar  
    19   10   13 1   
    20   11   12 1   
    21   13   14 1   
    22   14   15 ar  
    23   14   19 ar  
    24   15   16 ar  
    25   15   39 1   
    26   16   17 ar  
    27   16   21 1   
    28   17   18 ar  
    29   17   20 1   
    30   18   19 ar  
    31   18   40 1   
    32   19   41 1   
    33   20   42 1   
    34   21   22 1   
    35   21   23 1   
    36   21   43 1   
    37   22   44 1   
    38   23   24 1   
    39   23   45 1   
    40   24   25 1   
    41   24   46 1   
    42   24   47 1   
    43   25   26 1   
    44   25   48 1   
    45   25   49 1   
    46   26   27 ar  
    47   26   29 ar  
    48   27   28 ar  
    49   27   50 1   
    50   28   31 ar  
    51   28   51 1   
    52   29   30 ar  
    53   29   52 1   
    54   30   31 ar  
    55   30   53 1   
    56   31   54 1   
@<TRIPOS>SUBSTRUCTURE
     1 442         1 TEMP              0 ****  ****    0 ROOT
