@<TRIPOS>MOLECULE
442
   55    57     1     0     0
SMALL
bcc


@<TRIPOS>ATOM
      1 O3         -0.1170    1.1590   -0.4590 oh        1 442     -0.631800
      2 C8          1.2030    0.7530   -0.1760 c3        1 442      0.334900
      3 O2          1.2060    0.4310    1.1960 oh        1 442     -0.631800
      4 C7          1.5090   -0.4390   -1.0890 c3        1 442     -0.072100
      5 C5          2.9680   -0.6920   -1.2200 ca        1 442     -0.063300
      6 C6          3.5080   -1.0080   -2.4700 ca        1 442     -0.086000
      7 C4          3.8020   -0.6440   -0.0980 ca        1 442     -0.086000
      8 C3          5.1690   -0.9030   -0.2140 ca        1 442     -0.028400
      9 BR2         6.2240   -0.8190    1.3330 br        1 442     -0.049100
     10 C2          5.7020   -1.2090   -1.4790 ca        1 442      0.099100
     11 C1          4.8730   -1.2740   -2.6120 ca        1 442     -0.028400
     12 BR1         5.5220   -1.6960   -4.3180 br        1 442     -0.049100
     13 O4          7.0880   -1.2960   -1.6370 os        1 442     -0.222200
     14 C11         7.6480   -2.5590   -1.5150 ca        1 442      0.113100
     15 C12         9.0390   -2.5900   -1.7130 ca        1 442     -0.065000
     16 C13         9.7110   -3.8070   -1.6090 ca        1 442     -0.186300
     17 C14         8.9910   -4.9770   -1.2940 ca        1 442      0.097100
     18 C15         7.6040   -4.9380   -1.1080 ca        1 442     -0.156000
     19 C16         6.9300   -3.7250   -1.2200 ca        1 442     -0.105000
     20 O           9.7310   -6.1340   -1.1580 oh        1 442     -0.552100
     21 C17        11.1820   -3.9150   -1.8860 c3        1 442      0.426600
     22 O1         11.7010   -2.6750   -2.2930 oh        1 442     -0.562800
     23 N28        11.9140   -4.2990   -0.5900 n4        1 442     -0.805000
     24 C29        13.3430   -4.6370   -0.8250 c3        1 442      0.097800
     25 C30        14.0960   -4.9690    0.4640 c3        1 442     -0.045100
     26 C31        15.5090   -5.2910    0.1290 ca        1 442     -0.127300
     27 C36        15.8770   -6.6070   -0.1740 ca        1 442     -0.117500
     28 C35        17.2050   -6.9110   -0.4690 ca        1 442     -0.118500
     29 C32        16.4810   -4.2840    0.1390 ca        1 442     -0.117500
     30 C33        17.8090   -4.5920   -0.1560 ca        1 442     -0.118500
     31 C34        18.1720   -5.9040   -0.4610 ca        1 442     -0.101000
     32 HO3        -0.2920    1.9580    0.0540 ho        1 442      0.424000
     33 H8          1.9520    1.5840   -0.2920 h2        1 442      0.080700
     34 HO2         0.5000   -0.2090    1.3590 ho        1 442      0.424000
     35 H71         1.0500   -0.2330   -2.0940 hc        1 442      0.082200
     36 H72         1.0100   -1.3560   -0.6740 hc        1 442      0.082200
     37 H6          2.8460   -1.0430   -3.3530 ha        1 442      0.176000
     38 H4          3.3610   -0.3870    0.8850 ha        1 442      0.176000
     39 H12         9.5800   -1.6610   -1.9600 ha        1 442      0.186000
     40 H15         7.0490   -5.8590   -0.8760 ha        1 442      0.161000
     41 H16         5.8370   -3.6840   -1.0760 ha        1 442      0.173000
     42 HO          9.1200   -6.8860   -1.1150 ho        1 442      0.457000
     43 H17        11.3860   -4.7490   -2.6240 hx        1 442      0.111700
     44 HO1        12.3070   -2.8230   -3.0340 ho        1 442      0.447000
     45 H28        11.4240   -5.1060   -0.1810 hn        1 442      0.460300
     46 H291       13.8270   -3.7510   -1.3290 hx        1 442      0.102200
     47 H292       13.3840   -5.5210   -1.5240 hx        1 442      0.102200
     48 H301       13.6160   -5.8450    0.9780 hc        1 442      0.069200
     49 H302       14.0590   -4.0950    1.1690 hc        1 442      0.069200
     50 H36        15.1220   -7.4070   -0.1680 ha        1 442      0.132000
     51 H35        17.4920   -7.9480   -0.7020 ha        1 442      0.149500
     52 H32        16.2030   -3.2500    0.3920 ha        1 442      0.132000
     53 H33        18.5710   -3.7980   -0.1420 ha        1 442      0.149500
     54 H34        19.2210   -6.1460   -0.6910 ha        1 442      0.151000
     55 H282       11.8530   -3.5110    0.0640 hn        1 442      0.460300
@<TRIPOS>BOND
     1    1    2 1   
     2    1   32 1   
     3    2    3 1   
     4    2    4 1   
     5    2   33 1   
     6    3   34 1   
     7    4    5 1   
     8    4   35 1   
     9    4   36 1   
    10    5    6 ar  
    11    5    7 ar  
    12    6   11 ar  
    13    6   37 1   
    14    7    8 ar  
    15    7   38 1   
    16    8    9 1   
    17    8   10 ar  
    18   10   11 ar  
    19   10   13 1   
    20   11   12 1   
    21   13   14 1   
    22   14   15 ar  
    23   14   19 ar  
    24   15   16 ar  
    25   15   39 1   
    26   16   17 ar  
    27   16   21 1   
    28   17   18 ar  
    29   17   20 1   
    30   18   19 ar  
    31   18   40 1   
    32   19   41 1   
    33   20   42 1   
    34   21   22 1   
    35   21   23 1   
    36   21   43 1   
    37   22   44 1   
    38   23   24 1   
    39   23   45 1   
    40   23   55 1   
    41   24   25 1   
    42   24   46 1   
    43   24   47 1   
    44   25   26 1   
    45   25   48 1   
    46   25   49 1   
    47   26   27 ar  
    48   26   29 ar  
    49   27   28 ar  
    50   27   50 1   
    51   28   31 ar  
    52   28   51 1   
    53   29   30 ar  
    54   29   52 1   
    55   30   31 ar  
    56   30   53 1   
    57   31   54 1   
@<TRIPOS>SUBSTRUCTURE
     1 442         1 TEMP              0 ****  ****    0 ROOT
