@<TRIPOS>MOLECULE
443
   58    61     1     0     0
SMALL
bcc


@<TRIPOS>ATOM
      1 C4          0.6520   -2.3870    0.1180 c3        1 443     -0.349600
      2 C8          2.7470   -1.1800   -0.7860 ca        1 443     -0.386500
      3 C10         5.0730   -1.3770   -0.0970 ca        1 443     -0.130000
      4 C13         6.3230    2.0000    0.8770 ca        1 443      0.043400
      5 C15         5.1690    2.7960    0.6410 ca        1 443     -0.130000
      6 C17         3.9700    0.8070   -0.0710 ca        1 443     -0.076000
      7 C22        -2.6910   -0.1240    2.3270 c3        1 443      0.073500
      8 C24        -4.0750    1.1890    0.6900 c3        1 443      0.118700
      9 C26        -1.8570    0.1890    0.0710 c3        1 443      0.073500
     10 C28        -5.5100    3.0200   -0.1170 c3        1 443      0.087000
     11 O1         -1.1330   -4.0180    0.0050 oh        1 443     -0.578800
     12 C2         -0.8530   -2.6360    0.0260 c3        1 443      0.121100
     13 S5          1.3680   -1.9300   -1.3750 sy        1 443      1.389300
     14 O6          1.7180   -3.0660   -2.1100 o         1 443     -0.651800
     15 O7          0.5350   -0.9770   -1.9880 o         1 443     -0.651800
     16 C9          3.9180   -1.9540   -0.5590 ca        1 443     -0.045000
     17 C11         5.1260    0.0200    0.1630 ca        1 443      0.019000
     18 C12         6.3090    0.6430    0.6450 ca        1 443     -0.130000
     19 CL14        7.7290    2.7570    1.4540 cl        1 443     -0.078400
     20 C16         4.0200    2.2080    0.1760 ca        1 443     -0.090000
     21 C18         2.7930    0.1780   -0.5490 ca        1 443      0.027000
     22 C19        -1.5580   -1.9940    1.2320 c         1 443      0.626100
     23 O20        -1.7760   -2.7240    2.2230 o         1 443     -0.608100
     24 N21        -1.8500   -0.6380    1.2580 n         1 443     -0.440800
     25 C23        -4.1130    0.2280    1.8890 c3        1 443     -0.124900
     26 C25        -3.2550    0.5390   -0.4380 c3        1 443     -0.124900
     27 N27        -5.4030    1.6330    0.2850 n         1 443     -0.449800
     28 C29        -6.9560    3.4590   -0.3340 c3        1 443     -0.105400
     29 C30        -7.6650    2.5160   -1.3020 c3        1 443      0.098000
     30 N31        -7.3410    1.1330   -1.1080 n         1 443     -0.575900
     31 C32        -6.2790    0.6940   -0.3120 c         1 443      0.795500
     32 O33        -6.1510   -0.5420   -0.1270 o         1 443     -0.675500
     33 H4          0.8460   -1.6180    0.9120 h1        1 443      0.127200
     34 H4A         1.1280   -3.3320    0.5010 h1        1 443      0.127200
     35 H10         5.9760   -1.9830    0.0740 ha        1 443      0.147000
     36 H15         5.2120    3.8790    0.8340 ha        1 443      0.154000
     37 H22        -2.7450   -0.8820    3.1600 h1        1 443      0.065450
     38 H22A       -2.1850    0.8020    2.7240 h1        1 443      0.065450
     39 H24        -3.5170    2.1180    1.0240 h1        1 443      0.046700
     40 H26        -1.3270    1.1490    0.3460 h1        1 443      0.065450
     41 H26A       -1.2690   -0.2860   -0.7640 h1        1 443      0.065450
     42 H28        -5.0560    3.6540    0.6970 h1        1 443      0.041200
     43 H28A       -4.9240    3.2060   -1.0650 h1        1 443      0.041200
     44 HO1        -1.0830   -4.3560    0.9130 ho        1 443      0.431000
     45 H2         -1.2750   -2.2590   -0.9520 h1        1 443      0.108700
     46 H9          3.8830   -3.0350   -0.7830 ha        1 443      0.159000
     47 H12         7.2010    0.0230    0.8250 ha        1 443      0.156000
     48 H16         3.1190    2.8110   -0.0130 ha        1 443      0.143000
     49 H18         1.9000    0.8020   -0.7430 ha        1 443      0.154000
     50 H23        -4.6790   -0.7020    1.6130 hc        1 443      0.073700
     51 H23A       -4.6390    0.7080    2.7530 hc        1 443      0.073700
     52 H25        -3.7830   -0.3820   -0.8020 hc        1 443      0.073700
     53 H25A       -3.1490    1.2440   -1.3010 hc        1 443      0.073700
     54 H29        -7.5000    3.4820    0.6450 hc        1 443      0.061700
     55 H29A       -6.9620    4.4950   -0.7570 hc        1 443      0.061700
     56 H30        -8.7800    2.6580   -1.2040 h1        1 443      0.040700
     57 H30A       -7.3820    2.7970   -2.3600 h1        1 443      0.040700
     58 HN31       -8.0330    0.4530   -1.3210 hn        1 443      0.331500
@<TRIPOS>BOND
     1    1   12 1   
     2    1   13 1   
     3    1   33 1   
     4    1   34 1   
     5    2   13 1   
     6    2   16 ar  
     7    2   21 ar  
     8    3   16 ar  
     9    3   17 ar  
    10    3   35 1   
    11    4    5 ar  
    12    4   18 ar  
    13    4   19 1   
    14    5   20 ar  
    15    5   36 1   
    16    6   17 ar  
    17    6   20 ar  
    18    6   21 ar  
    19    7   24 1   
    20    7   25 1   
    21    7   37 1   
    22    7   38 1   
    23    8   25 1   
    24    8   26 1   
    25    8   27 1   
    26    8   39 1   
    27    9   24 1   
    28    9   26 1   
    29    9   40 1   
    30    9   41 1   
    31   10   27 1   
    32   10   28 1   
    33   10   42 1   
    34   10   43 1   
    35   11   12 1   
    36   11   44 1   
    37   12   22 1   
    38   12   45 1   
    39   13   14 2   
    40   13   15 2   
    41   16   46 1   
    42   17   18 ar  
    43   18   47 1   
    44   20   48 1   
    45   21   49 1   
    46   22   23 2   
    47   22   24 1   
    48   25   50 1   
    49   25   51 1   
    50   26   52 1   
    51   26   53 1   
    52   27   31 1   
    53   28   29 1   
    54   28   54 1   
    55   28   55 1   
    56   29   30 1   
    57   29   56 1   
    58   29   57 1   
    59   30   31 1   
    60   30   58 1   
    61   31   32 2   
@<TRIPOS>SUBSTRUCTURE
     1 443         1 TEMP              0 ****  ****    0 ROOT
