@<TRIPOS>MOLECULE
443
   58    61     1     0     0
SMALL
bcc


@<TRIPOS>ATOM
      1 C4          0.0940    0.2990    0.5240 c3        1 443     -0.349600
      2 C8         -2.1190    1.6260    0.4530 ca        1 443     -0.386500
      3 C10        -4.1100    1.4030    1.8350 ca        1 443     -0.130000
      4 C13        -7.0430    0.7740   -0.3830 ca        1 443      0.043400
      5 C15        -6.4260    0.7980   -1.6630 ca        1 443     -0.130000
      6 C17        -4.2830    1.2130   -0.5990 ca        1 443     -0.076000
      7 C22         1.3660   -2.4740   -2.9210 c3        1 443      0.073500
      8 C24         2.1640   -1.1130   -4.8770 c3        1 443      0.118700
      9 C26         0.9140   -0.0910   -2.9550 c3        1 443      0.073500
     10 C28         2.5910   -0.5660   -7.2410 c3        1 443      0.087000
     11 O1          2.4450    0.0200    1.0290 oh        1 443     -0.578800
     12 C2          1.5060    0.0860   -0.0210 c3        1 443      0.121100
     13 S5         -0.4700    1.9140    0.3680 sy        1 443      1.389300
     14 O6         -0.0610    2.6760    1.4650 o         1 443     -0.651800
     15 O7         -0.1350    2.3740   -0.9180 o         1 443     -0.651800
     16 C9         -2.7610    1.6150    1.7220 ca        1 443     -0.045000
     17 C11        -4.9060    1.1920    0.6760 ca        1 443      0.019000
     18 C12        -6.3060    0.9670    0.7640 ca        1 443     -0.130000
     19 CL14       -8.7170    0.5030   -0.2920 cl        1 443     -0.078400
     20 C16        -5.0750    1.0130   -1.7640 ca        1 443     -0.090000
     21 C18        -2.8850    1.4340   -0.6790 ca        1 443      0.027000
     22 C19         1.5570   -1.2200   -0.8300 c         1 443      0.626100
     23 O20         1.9300   -2.2510   -0.2300 o         1 443     -0.608100
     24 N21         1.1120   -1.2720   -2.1430 n         1 443     -0.440800
     25 C23         2.4660   -2.3180   -3.9710 c3        1 443     -0.124400
     26 C25         2.0070    0.1390   -3.9980 c3        1 443     -0.124400
     27 N27         3.1310   -0.9690   -5.9580 n         1 443     -0.449800
     28 C29         3.6270   -0.6290   -8.3600 c3        1 443     -0.105400
     29 C30         4.8780    0.1580   -7.9820 c3        1 443      0.098000
     30 N31         5.2710    0.0020   -6.6120 n         1 443     -0.575900
     31 C32         4.4540   -0.5780   -5.6370 c         1 443      0.795500
     32 O33         4.9390   -0.7610   -4.4930 o         1 443     -0.675500
     33 H4         -0.6030   -0.4230    0.0220 h1        1 443      0.127200
     34 H4A         0.1000   -0.0050    1.6070 h1        1 443      0.127200
     35 H10        -4.5990    1.3980    2.8210 ha        1 443      0.147000
     36 H15        -7.0420    0.6430   -2.5620 ha        1 443      0.154000
     37 H22         0.3980   -2.7420   -3.4330 h1        1 443      0.065450
     38 H22A        1.6450   -3.3180   -2.2270 h1        1 443      0.065450
     39 H24         1.1620   -1.3090   -5.3720 h1        1 443      0.046700
     40 H26         0.8120    0.8320   -2.3180 h1        1 443      0.065450
     41 H26A       -0.0690   -0.2340   -3.4950 h1        1 443      0.065450
     42 H28         1.7390   -1.2600   -7.4930 h1        1 443      0.041200
     43 H28A        2.1750    0.4830   -7.1840 h1        1 443      0.041200
     44 HO1         2.4080   -0.8680    1.4180 ho        1 443      0.431000
     45 H2          1.8490    0.9700   -0.6360 h1        1 443      0.108700
     46 H9         -2.1460    1.8020    2.6210 ha        1 443      0.159000
     47 H12        -6.7800    0.9510    1.7580 ha        1 443      0.156000
     48 H16        -4.5830    1.0360   -2.7490 ha        1 443      0.143000
     49 H18        -2.4100    1.4640   -1.6770 ha        1 443      0.154000
     50 H23         3.4630   -2.1800   -3.4760 hc        1 443      0.073700
     51 H23A        2.5080   -3.2580   -4.5790 hc        1 443      0.073700
     52 H25         1.7170    1.0220   -4.6230 hc        1 443      0.073700
     53 H25A        2.9860    0.3700   -3.4990 hc        1 443      0.073700
     54 H29         3.1830   -0.1930   -9.2900 hc        1 443      0.061700
     55 H29A        3.8950   -1.6960   -8.5720 hc        1 443      0.061700
     56 H30         5.7270   -0.1550   -8.6550 h1        1 443      0.040700
     57 H30A        4.6890    1.2570   -8.1690 h1        1 443      0.040700
     58 HN31        6.2370    0.0580   -6.3900 hn        1 443      0.331500
@<TRIPOS>BOND
     1    1   12 1   
     2    1   13 1   
     3    1   33 1   
     4    1   34 1   
     5    2   13 1   
     6    2   16 ar  
     7    2   21 ar  
     8    3   16 ar  
     9    3   17 ar  
    10    3   35 1   
    11    4    5 ar  
    12    4   18 ar  
    13    4   19 1   
    14    5   20 ar  
    15    5   36 1   
    16    6   17 ar  
    17    6   20 ar  
    18    6   21 ar  
    19    7   24 1   
    20    7   25 1   
    21    7   37 1   
    22    7   38 1   
    23    8   25 1   
    24    8   26 1   
    25    8   27 1   
    26    8   39 1   
    27    9   24 1   
    28    9   26 1   
    29    9   40 1   
    30    9   41 1   
    31   10   27 1   
    32   10   28 1   
    33   10   42 1   
    34   10   43 1   
    35   11   12 1   
    36   11   44 1   
    37   12   22 1   
    38   12   45 1   
    39   13   14 2   
    40   13   15 2   
    41   16   46 1   
    42   17   18 ar  
    43   18   47 1   
    44   20   48 1   
    45   21   49 1   
    46   22   23 2   
    47   22   24 1   
    48   25   50 1   
    49   25   51 1   
    50   26   52 1   
    51   26   53 1   
    52   27   31 1   
    53   28   29 1   
    54   28   54 1   
    55   28   55 1   
    56   29   30 1   
    57   29   56 1   
    58   29   57 1   
    59   30   31 1   
    60   30   58 1   
    61   31   32 2   
@<TRIPOS>SUBSTRUCTURE
     1 443         1 TEMP              0 ****  ****    0 ROOT
