@<TRIPOS>MOLECULE
443
   58    61     1     0     0
SMALL
bcc


@<TRIPOS>ATOM
      1 C4          0.0910    0.2770    0.5220 c3        1 443     -0.349600
      2 C8         -2.1110    1.6230    0.4620 ca        1 443     -0.386500
      3 C10        -4.1020    1.4090    1.8450 ca        1 443     -0.130000
      4 C13        -7.0430    0.8170   -0.3730 ca        1 443      0.043400
      5 C15        -6.4270    0.8430   -1.6540 ca        1 443     -0.130000
      6 C17        -4.2790    1.2340   -0.5900 ca        1 443     -0.076000
      7 C22         1.3450   -2.4820   -2.9410 c3        1 443      0.073500
      8 C24         2.1590   -1.1140   -4.8860 c3        1 443      0.118700
      9 C26         0.9120   -0.0960   -2.9600 c3        1 443      0.073500
     10 C28         2.5960   -0.5520   -7.2440 c3        1 443      0.087000
     11 O1          2.4390   -0.0250    1.0270 oh        1 443     -0.578800
     12 C2          1.5020    0.0570   -0.0230 c3        1 443      0.121100
     13 S5         -0.4600    1.8980    0.3760 sy        1 443      1.389300
     14 O6         -0.0420    2.6490    1.4770 o         1 443     -0.651800
     15 O7         -0.1220    2.3620   -0.9080 o         1 443     -0.651800
     16 C9         -2.7510    1.6100    1.7310 ca        1 443     -0.045000
     17 C11        -4.9010    1.2110    0.6850 ca        1 443      0.019000
     18 C12        -6.3030    0.9970    0.7740 ca        1 443     -0.130000
     19 CL14       -8.7180    0.5600   -0.2810 cl        1 443     -0.078400
     20 C16        -5.0740    1.0480   -1.7550 ca        1 443     -0.090000
     21 C18        -2.8800    1.4440   -0.6710 ca        1 443      0.027000
     22 C19         1.5430   -1.2450   -0.8420 c         1 443      0.626100
     23 O20         1.9070   -2.2830   -0.2480 o         1 443     -0.608100
     24 N21         1.0990   -1.2840   -2.1550 n         1 443     -0.440800
     25 C23         2.4480   -2.3280   -3.9880 c3        1 443     -0.124900
     26 C25         2.0100    0.1330   -3.9990 c3        1 443     -0.124900
     27 N27         3.1300   -0.9690   -5.9640 n         1 443     -0.449800
     28 C29         3.6340   -0.6150   -8.3620 c3        1 443     -0.105400
     29 C30         4.8910    0.1590   -7.9740 c3        1 443      0.098000
     30 N31         5.2790   -0.0110   -6.6050 n         1 443     -0.575900
     31 C32         4.4550   -0.5920   -5.6370 c         1 443      0.795500
     32 O33         4.9360   -0.7880   -4.4930 o         1 443     -0.675500
     33 H4          0.0940   -0.0340    1.6030 h1        1 443      0.127200
     34 H4A        -0.6110   -0.4360    0.0140 h1        1 443      0.127200
     35 H10        -4.5900    1.4020    2.8320 ha        1 443      0.147000
     36 H15        -7.0460    0.6990   -2.5530 ha        1 443      0.154000
     37 H22         0.3760   -2.7390   -3.4580 h1        1 443      0.065450
     38 H22A        1.6150   -3.3330   -2.2530 h1        1 443      0.065450
     39 H24         1.1570   -1.2980   -5.3850 h1        1 443      0.046700
     40 H26         0.8170    0.8240   -2.3170 h1        1 443      0.065450
     41 H26A       -0.0700   -0.2270   -3.5020 h1        1 443      0.065450
     42 H28         2.1890    0.5000   -7.1810 h1        1 443      0.041200
     43 H28A        1.7390   -1.2370   -7.5040 h1        1 443      0.041200
     44 HO1         2.3950   -0.9150    1.4100 ho        1 443      0.431000
     45 H2          1.8520    0.9410   -0.6320 h1        1 443      0.108700
     46 H9         -2.1330    1.7860    2.6300 ha        1 443      0.159000
     47 H12        -6.7760    0.9790    1.7680 ha        1 443      0.156000
     48 H16        -4.5840    1.0730   -2.7400 ha        1 443      0.143000
     49 H18        -2.4050    1.4760   -1.6690 ha        1 443      0.154000
     50 H23         2.4850   -3.2630   -4.6020 hc        1 443      0.073700
     51 H23A        3.4460   -2.2010   -3.4900 hc        1 443      0.073700
     52 H25         2.9890    0.3530   -3.4960 hc        1 443      0.073700
     53 H25A        1.7280    1.0230   -4.6170 hc        1 443      0.073700
     54 H29         3.8940   -1.6830   -8.5820 hc        1 443      0.061700
     55 H29A        3.1960   -0.1680   -9.2900 hc        1 443      0.061700
     56 H30         5.7390   -0.1560   -8.6480 h1        1 443      0.040700
     57 H30A        4.7110    1.2610   -8.1530 h1        1 443      0.040700
     58 HN31        6.2460    0.0350   -6.3800 hn        1 443      0.331500
@<TRIPOS>BOND
     1    1   12 1   
     2    1   13 1   
     3    1   33 1   
     4    1   34 1   
     5    2   13 1   
     6    2   16 ar  
     7    2   21 ar  
     8    3   16 ar  
     9    3   17 ar  
    10    3   35 1   
    11    4    5 ar  
    12    4   18 ar  
    13    4   19 1   
    14    5   20 ar  
    15    5   36 1   
    16    6   17 ar  
    17    6   20 ar  
    18    6   21 ar  
    19    7   24 1   
    20    7   25 1   
    21    7   37 1   
    22    7   38 1   
    23    8   25 1   
    24    8   26 1   
    25    8   27 1   
    26    8   39 1   
    27    9   24 1   
    28    9   26 1   
    29    9   40 1   
    30    9   41 1   
    31   10   27 1   
    32   10   28 1   
    33   10   42 1   
    34   10   43 1   
    35   11   12 1   
    36   11   44 1   
    37   12   22 1   
    38   12   45 1   
    39   13   14 2   
    40   13   15 2   
    41   16   46 1   
    42   17   18 ar  
    43   18   47 1   
    44   20   48 1   
    45   21   49 1   
    46   22   23 2   
    47   22   24 1   
    48   25   50 1   
    49   25   51 1   
    50   26   52 1   
    51   26   53 1   
    52   27   31 1   
    53   28   29 1   
    54   28   54 1   
    55   28   55 1   
    56   29   30 1   
    57   29   56 1   
    58   29   57 1   
    59   30   31 1   
    60   30   58 1   
    61   31   32 2   
@<TRIPOS>SUBSTRUCTURE
     1 443         1 TEMP              0 ****  ****    0 ROOT
