@<TRIPOS>MOLECULE
443
   58    57     1     0     0
SMALL
bcc


@<TRIPOS>ATOM
      1 C4         -1.9500    0.6260    1.9920 c3        1 443     -0.892000
      2 C8         -1.1080    0.7040    4.8100 c1        1 443     -0.829000
      3 C10        -1.8360    0.3760    7.0920 c1        1 443     -0.131000
      4 C13         0.4110   -2.1000    8.7290 c1        1 443     -0.035000
      5 C15         1.2770   -2.3970    7.6890 c1        1 443     -0.131000
      6 C17         0.0670   -0.8660    6.2520 c1        1 443     -0.076000
      7 C22        -0.6270   -1.5470   -2.2470 c3        1 443     -0.038500
      8 C24        -0.1420   -0.1730   -4.2850 c3        1 443      0.043000
      9 C26        -1.4250    0.7640   -2.3450 c3        1 443     -0.038500
     10 C28         0.7830   -0.2650   -6.6380 c3        1 443     -0.029000
     11 O1         -0.2710    1.8830    0.8270 oh        1 443     -0.311000
     12 C2         -1.3310    1.0190    0.6250 c3        1 443      0.051000
     13 S5         -1.2220    1.6340    3.2950 s4        1 443      2.069800
     14 O6          0.0640    2.1470    2.9010 o         1 443     -0.538900
     15 O7         -1.9620    2.8500    3.4870 o         1 443     -0.538900
     16 C9         -1.9860    1.0040    5.8640 c2        1 443     -0.043000
     17 C11        -0.7930   -0.5720    7.2830 c1        1 443      0.019000
     18 C12        -0.6250   -1.1910    8.5350 c2        1 443     -0.131000
     19 CL14        0.6900   -3.0210   10.1890 cl        1 443     -0.003000
     20 C16         1.1130   -1.7860    6.4500 c2        1 443     -0.088000
     21 C18        -0.0850   -0.2260    4.9990 c1        1 443      0.029000
     22 C19        -0.8360   -0.2350   -0.0900 c2        1 443      0.266000
     23 O20        -0.4340   -1.2070    0.5690 o         1 443     -0.367000
     24 N21        -0.9550   -0.3370   -1.5060 n         1 443     -0.296000
     25 C23         0.3330   -1.2750   -3.4120 c3        1 443     -0.202500
     26 C25        -0.4720    1.0540   -3.5070 c3        1 443     -0.202500
     27 N27         0.9210    0.1540   -5.2800 n         1 443     -0.309000
     28 C29         1.5450    0.5360   -7.5930 c3        1 443     -0.184000
     29 C30         2.9640    0.6060   -7.2130 c3        1 443     -0.019000
     30 N31         3.1640    1.0590   -5.8810 n         1 443     -0.383000
     31 C32         2.3140    0.3570   -4.8390 c2        1 443      0.388000
     32 O33         2.5610    0.4930   -3.6740 o         1 443     -0.407000
     33 H4         -1.7710   -0.3220    2.1720 h1        1 443      0.176500
     34 H4A        -2.9270    0.7770    1.9660 h1        1 443      0.176500
     35 H10        -2.4570    0.5900    7.8400 ha        1 443      0.145000
     36 H15         2.0200   -3.0490    7.8290 ha        1 443      0.154000
     37 H22        -0.2090   -2.1940   -1.6330 h1        1 443      0.104500
     38 H22A       -1.4540   -1.9360   -2.6020 h1        1 443      0.104500
     39 H24        -0.9550   -0.4740   -4.7690 h1        1 443      0.088000
     40 H26        -1.5100    1.5760   -1.7910 h1        1 443      0.104500
     41 H26A       -2.3070    0.5340   -2.7080 h1        1 443      0.104500
     42 H28        -0.1570   -0.2200   -6.8800 h1        1 443      0.081500
     43 H28A        1.0790   -1.1960   -6.7080 h1        1 443      0.081500
     44 HO1        -0.1020    2.3240    0.0740 ho        1 443      0.218000
     45 H2         -2.0170    1.4650    0.0690 h1        1 443      0.159000
     46 H9         -2.7520    1.5810    5.7060 ha        1 443      0.154000
     47 H12        -1.2530   -0.9780    9.2890 ha        1 443      0.154000
     48 H16         1.7340   -2.0000    5.7050 ha        1 443      0.145000
     49 H18         0.4900   -0.4880    4.2380 ha        1 443      0.160000
     50 H23         1.2070   -1.0380   -3.0520 hc        1 443      0.110000
     51 H23A        0.4200   -2.0950   -3.9520 hc        1 443      0.110000
     52 H25         0.3490    1.4340   -3.1540 hc        1 443      0.110000
     53 H25A       -0.8970    1.7140   -4.1130 hc        1 443      0.110000
     54 H29         1.5190    0.0470   -8.4280 hc        1 443      0.101500
     55 H29A        1.2010    1.4490   -7.5100 hc        1 443      0.101500
     56 H30         3.3610    1.3110   -7.7960 h1        1 443      0.080000
     57 H30A        3.2840   -0.3170   -7.2270 h1        1 443      0.080000
     58 HN31        3.9570    1.4370   -5.6440 hn        1 443      0.244000
@<TRIPOS>BOND
     1    1   12 1   
     2    1   13 1   
     3    1   33 1   
     4    1   34 1   
     5    2   16 1   
     6    2   21 1   
     7    3   16 1   
     8    3   35 1   
     9    4   18 1   
    10    4   19 1   
    11    5   20 1   
    12    5   36 1   
    13    6   17 1   
    14    6   20 1   
    15    7   24 1   
    16    7   25 1   
    17    7   37 1   
    18    7   38 1   
    19    8   25 1   
    20    8   26 1   
    21    8   27 1   
    22    8   39 1   
    23    9   24 1   
    24    9   26 1   
    25    9   40 1   
    26    9   41 1   
    27   10   27 1   
    28   10   28 1   
    29   10   42 1   
    30   10   43 1   
    31   11   12 1   
    32   11   44 1   
    33   12   22 1   
    34   12   45 1   
    35   13   14 1   
    36   13   15 1   
    37   16   46 1   
    38   17   18 1   
    39   18   47 1   
    40   20   48 1   
    41   21   49 1   
    42   22   23 1   
    43   22   24 1   
    44   25   50 1   
    45   25   51 1   
    46   26   52 1   
    47   26   53 1   
    48   27   31 1   
    49   28   29 1   
    50   28   54 1   
    51   28   55 1   
    52   29   30 1   
    53   29   56 1   
    54   29   57 1   
    55   30   31 1   
    56   30   58 1   
    57   31   32 1   
@<TRIPOS>SUBSTRUCTURE
     1 443         1 TEMP              0 ****  ****    0 ROOT
