@<TRIPOS>MOLECULE
443
   58    61     1     0     0
SMALL
bcc


@<TRIPOS>ATOM
      1 C4          0.0870    0.2890    0.5220 c3        1 443     -0.349600
      2 C8         -2.1330    1.6040    0.4550 ca        1 443     -0.386500
      3 C10        -4.1220    1.3660    1.8380 ca        1 443     -0.130000
      4 C13        -7.0530    0.7290   -0.3810 ca        1 443      0.043400
      5 C15        -6.4370    0.7600   -1.6610 ca        1 443     -0.130000
      6 C17        -4.2950    1.1830   -0.5970 ca        1 443     -0.076000
      7 C22         1.3790   -2.4670   -2.9300 c3        1 443      0.073500
      8 C24         2.1740   -1.0960   -4.8810 c3        1 443      0.118700
      9 C26         0.9150   -0.0860   -2.9580 c3        1 443      0.073500
     10 C28         2.6040   -0.5370   -7.2410 c3        1 443      0.087000
     11 O1          2.4390    0.0210    1.0290 oh        1 443     -0.578800
     12 C2          1.5010    0.0860   -0.0220 c3        1 443      0.121100
     13 S5         -0.4860    1.9010    0.3690 sy        1 443      1.389300
     14 O6         -0.0800    2.6630    1.4680 o         1 443     -0.651800
     15 O7         -0.1530    2.3660   -0.9160 o         1 443     -0.651800
     16 C9         -2.7730    1.5860    1.7240 ca        1 443     -0.045000
     17 C11        -4.9170    1.1550    0.6780 ca        1 443      0.019000
     18 C12        -6.3160    0.9210    0.7670 ca        1 443     -0.130000
     19 Cl14       -8.7250    0.4490   -0.2880 cl        1 443     -0.078400
     20 C16        -5.0870    0.9830   -1.7620 ca        1 443     -0.090000
     21 C18        -2.8990    1.4120   -0.6770 ca        1 443      0.027000
     22 C19         1.5590   -1.2180   -0.8360 c         1 443      0.626100
     23 O20         1.9370   -2.2490   -0.2380 o         1 443     -0.608100
     24 N21         1.1170   -1.2690   -2.1490 n         1 443     -0.440800
     25 C23         2.4800   -2.3020   -3.9780 c3        1 443     -0.124900
     26 C25         2.0100    0.1530   -3.9980 c3        1 443     -0.124900
     27 N27         3.1430   -0.9430   -5.9590 n         1 443     -0.449800
     28 C29         3.6420   -0.5920   -8.3580 c3        1 443     -0.105400
     29 C30         4.8890    0.2000   -7.9740 c3        1 443      0.098000
     30 N31         5.2800    0.0400   -6.6040 ns        1 443     -0.575900
     31 C32         4.4640   -0.5470   -5.6330 c         1 443      0.795500
     32 O33         4.9470   -0.7330   -4.4890 o         1 443     -0.675500
     33 H4          0.0940   -0.0180    1.6040 h1        1 443      0.127200
     34 H4A        -0.6050   -0.4350    0.0170 h1        1 443      0.127200
     35 H10        -4.6100    1.3550    2.8240 ha        1 443      0.147000
     36 H15        -7.0530    0.6050   -2.5600 ha        1 443      0.154000
     37 H22         1.6600   -3.3110   -2.2380 h1        1 443      0.065450
     38 H22A        0.4130   -2.7380   -3.4460 h1        1 443      0.065450
     39 H24         1.1740   -1.2950   -5.3780 h1        1 443      0.046700
     40 H26         0.8070    0.8350   -2.3190 h1        1 443      0.065450
     41 H26A       -0.0670   -0.2330   -3.5000 h1        1 443      0.065450
     42 H28         2.1830    0.5090   -7.1810 h1        1 443      0.041200
     43 H28A        1.7560   -1.2350   -7.4980 h1        1 443      0.041200
     44 HO1         2.4060   -0.8690    1.4150 ho        1 443      0.431000
     45 H2          1.8390    0.9730   -0.6340 h1        1 443      0.108700
     46 H9         -2.1590    1.7730    2.6230 ha        1 443      0.159000
     47 H12        -6.7890    0.9000    1.7610 ha        1 443      0.156000
     48 H16        -4.5960    1.0120   -2.7470 ha        1 443      0.143000
     49 H18        -2.4240    1.4480   -1.6760 ha        1 443      0.154000
     50 H23         2.5280   -3.2390   -4.5880 hc        1 443      0.073700
     51 H23A        3.4760   -2.1610   -3.4800 hc        1 443      0.073700
     52 H25         1.7160    1.0360   -4.6200 hc        1 443      0.073700
     53 H25A        2.9850    0.3880   -3.4960 hc        1 443      0.073700
     54 H29         3.1980   -0.1540   -9.2880 hc        1 443      0.061700
     55 H29A        3.9160   -1.6570   -8.5740 hc        1 443      0.061700
     56 H30         4.6950    1.2980   -8.1580 h1        1 443      0.040700
     57 H30A        5.7410   -0.1070   -8.6470 h1        1 443      0.040700
     58 HN31        6.2450    0.1000   -6.3800 hn        1 443      0.331500
@<TRIPOS>BOND
     1    1   12 1   
     2    1   13 1   
     3    1   33 1   
     4    1   34 1   
     5    2   13 1   
     6    2   16 ar  
     7    2   21 ar  
     8    3   16 ar  
     9    3   17 ar  
    10    3   35 1   
    11    4    5 ar  
    12    4   18 ar  
    13    4   19 1   
    14    5   20 ar  
    15    5   36 1   
    16    6   17 ar  
    17    6   20 ar  
    18    6   21 ar  
    19    7   24 1   
    20    7   25 1   
    21    7   37 1   
    22    7   38 1   
    23    8   25 1   
    24    8   26 1   
    25    8   27 1   
    26    8   39 1   
    27    9   24 1   
    28    9   26 1   
    29    9   40 1   
    30    9   41 1   
    31   10   27 1   
    32   10   28 1   
    33   10   42 1   
    34   10   43 1   
    35   11   12 1   
    36   11   44 1   
    37   12   22 1   
    38   12   45 1   
    39   13   14 2   
    40   13   15 2   
    41   16   46 1   
    42   17   18 ar  
    43   18   47 1   
    44   20   48 1   
    45   21   49 1   
    46   22   23 2   
    47   22   24 1   
    48   25   50 1   
    49   25   51 1   
    50   26   52 1   
    51   26   53 1   
    52   27   31 1   
    53   28   29 1   
    54   28   54 1   
    55   28   55 1   
    56   29   30 1   
    57   29   56 1   
    58   29   57 1   
    59   30   31 1   
    60   30   58 1   
    61   31   32 2   
@<TRIPOS>SUBSTRUCTURE
     1 443         1 TEMP              0 ****  ****    0 ROOT
