@<TRIPOS>MOLECULE
444
   43    38     1     0     0
SMALL
bcc


@<TRIPOS>ATOM
      1 O13        -1.2660    1.9730   -1.9870 o         1 444     -0.916500
      2 S12        -0.0230    1.2550   -1.9520 ss        1 444      2.856000
      3 O14        -0.4400   -0.0480   -2.3910 o         1 444     -0.916500
      4 C01         1.1610    1.9610   -3.0670 c1        1 444     -0.857000
      5 C02         2.2970    1.2470   -3.4140 c2        1 444     -0.006000
      6 C03         3.1760    1.7580   -4.3550 c1        1 444     -0.155000
      7 C04         2.9200    2.9820   -4.9490 c1        1 444     -0.107000
      8 C05         1.7850    3.6970   -4.6030 c1        1 444     -0.107000
      9 C06         0.9050    3.1860   -3.6620 c1        1 444     -0.016000
     10 N15         0.6750    1.1940   -0.2240 n2        1 444     -0.765000
     11 C16         0.2690    2.5990    0.5740 c3        1 444     -0.026000
     12 C19         1.4710    3.1120    1.3350 c3        1 444      0.381000
     13 F22         1.8480    4.2940    0.8300 f         1 444     -0.164667
     14 F21         2.4780    2.2360    1.2220 f         1 444     -0.164667
     15 F20         1.1510    3.2610    2.6270 f         1 444     -0.164667
     16 C23         0.0070   -0.1010    0.5850 c2        1 444      0.051000
     17 C24         0.6450   -0.6240    1.6990 c2        1 444     -0.138000
     18 C25         0.0490   -1.6440    2.4240 c1        1 444     -0.052000
     19 C28        -1.2260   -0.5980    0.1970 c1        1 444     -0.125000
     20 C27        -1.8220   -1.6180    0.9220 c1        1 444     -0.094000
     21 C26        -1.1850   -2.1410    2.0350 c1        1 444     -0.114000
     22 C33        -1.8230   -3.2720    2.8110 c3        1 444      0.084000
     23 C34        -1.8420   -4.5200    1.9570 c3        1 444      0.387500
     24 F36        -2.3840   -4.2380    0.7660 f         1 444     -0.148333
     25 F37        -0.5910   -4.9620    1.7850 f         1 444     -0.148333
     26 F35        -2.5690   -5.4660    2.5660 f         1 444     -0.148333
     27 O42        -1.0810   -3.5150    3.9810 oh        1 444     -0.278000
     28 C38        -3.2410   -2.8920    3.1820 c3        1 444      0.387500
     29 F39        -3.2180   -2.0010    4.1810 f         1 444     -0.148333
     30 F40        -3.9070   -3.9850    3.5750 f         1 444     -0.148333
     31 F41        -3.8520   -2.3560    2.1200 f         1 444     -0.148333
     32 H02         2.4770    0.3840   -2.9950 ha        1 444      0.164000
     33 H03         3.9760    1.2550   -4.5990 ha        1 444      0.149000
     34 H04         3.5390    3.3420   -5.6120 ha        1 444      0.145000
     35 H05         1.6040    4.5600   -5.0220 ha        1 444      0.145000
     36 H06         0.1050    3.6890   -3.4180 ha        1 444      0.160000
     37 H161       -0.0170    3.2720   -0.0750 h1        1 444      0.129500
     38 H162       -0.4610    2.4190    1.2000 h1        1 444      0.129500
     39 H24         1.5140   -0.2740    1.9730 ha        1 444      0.177000
     40 H25         0.4980   -2.0120    3.2090 ha        1 444      0.167000
     41 H28        -1.6760   -0.2300   -0.5870 ha        1 444      0.146000
     42 H27        -2.6910   -1.9680    0.6480 ha        1 444      0.156000
     43 H42        -1.4740   -4.1580    4.4530 ho        1 444      0.240000
@<TRIPOS>BOND
     1    1    2 1   
     2    2    3 1   
     3    4    5 1   
     4    4    9 1   
     5    5    6 1   
     6    5   32 1   
     7    6   33 1   
     8    7    8 1   
     9    7   34 1   
    10    8   35 1   
    11    9   36 1   
    12   10   11 1   
    13   10   16 1   
    14   11   12 1   
    15   11   37 1   
    16   11   38 1   
    17   12   13 1   
    18   12   14 1   
    19   12   15 1   
    20   16   17 1   
    21   16   19 1   
    22   17   18 1   
    23   17   39 1   
    24   18   40 1   
    25   19   41 1   
    26   20   21 1   
    27   20   42 1   
    28   21   22 1   
    29   22   23 1   
    30   22   27 1   
    31   22   28 1   
    32   23   24 1   
    33   23   25 1   
    34   23   26 1   
    35   27   43 1   
    36   28   29 1   
    37   28   30 1   
    38   28   31 1   
@<TRIPOS>SUBSTRUCTURE
     1 444         1 TEMP              0 ****  ****    0 ROOT
