@<TRIPOS>MOLECULE
444
   43    44     1     0     0
SMALL
bcc


@<TRIPOS>ATOM
      1 O13         0.7960   -0.9480   -4.6220 o         1 444     -0.636800
      2 S12         0.1640   -1.0100   -3.3640 sy        1 444      1.512200
      3 O14         0.0030   -2.2770   -2.7820 o         1 444     -0.636800
      4 C01        -1.3270   -0.2530   -3.4590 ca        1 444     -0.401500
      5 C02        -2.3960   -0.6610   -2.6490 ca        1 444     -0.009500
      6 C03        -3.6460   -0.0570   -2.7570 ca        1 444     -0.155000
      7 C04        -3.8460    0.9670   -3.6840 ca        1 444     -0.055000
      8 C05        -2.7940    1.3790   -4.5050 ca        1 444     -0.155000
      9 C06        -1.5480    0.7720   -4.3910 ca        1 444     -0.009500
     10 N15         1.0180   -0.0180   -2.3250 nh        1 444     -0.664900
     11 C16         2.1480    0.7270   -2.7770 c3        1 444      0.188800
     12 C19         3.5460    0.1470   -2.3270 c3        1 444      0.601900
     13 F22         4.5790    0.7990   -2.9520 f         1 444     -0.233300
     14 F21         3.8100    0.2790   -0.9900 f         1 444     -0.233300
     15 F20         3.7390   -1.1780   -2.6050 f         1 444     -0.233300
     16 C23         0.6130    0.1620   -0.9800 ca        1 444      0.151600
     17 C24         0.4360   -0.9560   -0.1340 ca        1 444     -0.137000
     18 C25         0.0190   -0.7820    1.1810 ca        1 444     -0.080000
     19 C28         0.3600    1.4490   -0.4580 ca        1 444     -0.137000
     20 C27        -0.0490    1.6070    0.8610 ca        1 444     -0.080000
     21 C26        -0.2160    0.4970    1.6980 ca        1 444     -0.160300
     22 C33        -0.6680    0.6900    3.1130 c3        1 444      0.149100
     23 C34         0.3060   -0.0180    4.1550 c3        1 444      0.628400
     24 F36        -0.0410    0.2340    5.4560 f         1 444     -0.217633
     25 F37         0.3850   -1.3780    4.0620 f         1 444     -0.217633
     26 F35         1.5930    0.4410    4.0470 f         1 444     -0.217633
     27 O42        -0.7460    2.0470    3.4910 oh        1 444     -0.554800
     28 C38        -2.1520    0.1610    3.3210 c3        1 444      0.628400
     29 F39        -2.2800   -1.1910    3.1430 f         1 444     -0.217633
     30 F40        -2.6430    0.4070    4.5720 f         1 444     -0.217633
     31 F41        -3.0530    0.7270    2.4620 f         1 444     -0.217633
     32 H02        -2.2430   -1.4830   -1.9270 ha        1 444      0.154000
     33 H03        -4.4750   -0.3900   -2.1140 ha        1 444      0.147000
     34 H04        -4.8330    1.4470   -3.7710 ha        1 444      0.142000
     35 H05        -2.9520    2.1790   -5.2440 ha        1 444      0.147000
     36 H06        -0.7230    1.0820   -5.0560 ha        1 444      0.154000
     37 H161        2.1270    1.7860   -2.3940 h1        1 444      0.098700
     38 H162        2.1700    0.7390   -3.9070 h1        1 444      0.098700
     39 H24         0.6150   -1.9800   -0.5120 ha        1 444      0.163000
     40 H25        -0.1270   -1.6710    1.8200 ha        1 444      0.157000
     41 H28         0.4770    2.3440   -1.0890 ha        1 444      0.163000
     42 H27        -0.2620    2.6210    1.2380 ha        1 444      0.157000
     43 H42         0.1490    2.4160    3.4330 ho        1 444      0.438000
@<TRIPOS>BOND
     1    1    2 2   
     2    2    3 2   
     3    2    4 1   
     4    2   10 1   
     5    4    5 ar  
     6    4    9 ar  
     7    5    6 ar  
     8    5   32 1   
     9    6    7 ar  
    10    6   33 1   
    11    7    8 ar  
    12    7   34 1   
    13    8    9 ar  
    14    8   35 1   
    15    9   36 1   
    16   10   11 1   
    17   10   16 1   
    18   11   12 1   
    19   11   37 1   
    20   11   38 1   
    21   12   13 1   
    22   12   14 1   
    23   12   15 1   
    24   16   17 ar  
    25   16   19 ar  
    26   17   18 ar  
    27   17   39 1   
    28   18   21 ar  
    29   18   40 1   
    30   19   20 ar  
    31   19   41 1   
    32   20   21 ar  
    33   20   42 1   
    34   21   22 1   
    35   22   23 1   
    36   22   27 1   
    37   22   28 1   
    38   23   24 1   
    39   23   25 1   
    40   23   26 1   
    41   27   43 1   
    42   28   29 1   
    43   28   30 1   
    44   28   31 1   
@<TRIPOS>SUBSTRUCTURE
     1 444         1 TEMP              0 ****  ****    0 ROOT
