@<TRIPOS>MOLECULE
445
   43    44     1     0     0
SMALL
bcc


@<TRIPOS>ATOM
      1 C10        -1.5330    0.6110    1.3820 ca        1 445     -0.092000
      2 C11        -0.2820    0.9800    1.8690 ca        1 445     -0.095000
      3 C12         0.6590    0.0060    2.2180 ca        1 445     -0.042000
      4 C13         0.3510   -1.3500    2.0780 ca        1 445     -0.095000
      5 C14        -0.8930   -1.7470    1.5950 ca        1 445     -0.092000
      6 C9         -1.8350   -0.7580    1.2510 ca        1 445     -0.099400
      7 N2         -3.1720   -1.1670    0.7940 n4        1 445     -0.491200
      8 C8         -3.2200   -1.3630   -0.6770 c         1 445      0.493100
      9 O8         -2.9450   -2.4350   -1.1900 o         1 445     -0.342100
     10 C7         -3.6470   -0.1490   -1.4990 c         1 445      0.476100
     11 O7         -3.2380    0.9880   -1.3500 o         1 445     -0.323100
     12 N1         -4.6620   -0.4510   -2.5470 n4        1 445     -0.667800
     13 C1         -6.0500   -0.5690   -1.9240 c3        1 445      0.347300
     14 O5         -5.8450   -1.2690   -0.7060 os        1 445     -0.497600
     15 C5         -7.0610   -1.4590    0.0580 c3        1 445      0.130100
     16 C6         -6.6280   -2.3000    1.2640 c3        1 445      0.131400
     17 O6         -5.6310   -1.5970    1.9850 oh        1 445     -0.676800
     18 C4         -8.1310   -2.1870   -0.7730 c3        1 445      0.090100
     19 O4         -9.3120   -2.1260    0.0010 oh        1 445     -0.579800
     20 C3         -8.3570   -1.4640   -2.1160 c3        1 445      0.083100
     21 O3         -9.1740   -2.2470   -2.9590 oh        1 445     -0.582800
     22 C2         -7.0110   -1.3480   -2.8560 c3        1 445      0.114100
     23 O2         -7.0860   -0.5880   -4.0390 oh        1 445     -0.617800
     24 H10        -2.2620    1.3930    1.1100 ha        1 445      0.161000
     25 H11        -0.0380    2.0510    1.9830 ha        1 445      0.188000
     26 H12         1.6480    0.3100    2.6060 ha        1 445      0.190000
     27 H13         1.0950   -2.1180    2.3560 ha        1 445      0.188000
     28 H14        -1.1190   -2.8220    1.4960 ha        1 445      0.161000
     29 HN2        -3.8800   -0.4680    1.0820 hn        1 445      0.498800
     30 HN1        -4.4250   -1.3380   -3.0200 hn        1 445      0.503800
     31 H1         -6.4220    0.4840   -1.7320 hx        1 445      0.134700
     32 H5         -7.4340   -0.4480    0.3820 h1        1 445      0.096700
     33 H6         -7.5400   -2.5160    1.8820 h1        1 445      0.097200
     34 H6A        -6.1530   -3.2610    0.9260 h1        1 445      0.097200
     35 HO6        -6.0240   -1.2730    2.8070 ho        1 445      0.456000
     36 H4         -7.8240   -3.2530   -0.9670 h1        1 445      0.085700
     37 HO4        -9.9040   -2.8230   -0.3180 ho        1 445      0.447000
     38 H3         -8.8070   -0.4470   -1.9420 h1        1 445      0.088700
     39 HO3       -10.0980   -2.0370   -2.7550 ho        1 445      0.450000
     40 H2         -6.6190   -2.3810   -3.0830 h1        1 445      0.095700
     41 HO2        -7.8700   -0.8860   -4.5340 ho        1 445      0.484000
     42 H22        -3.4300   -2.0630    1.2550 hn        1 445      0.498800
     43 H121       -4.7060    0.3010   -3.2590 hn        1 445      0.503800
@<TRIPOS>BOND
     1    1    2 ar  
     2    1    6 ar  
     3    1   24 1   
     4    2    3 ar  
     5    2   25 1   
     6    3    4 ar  
     7    3   26 1   
     8    4    5 ar  
     9    4   27 1   
    10    5    6 ar  
    11    5   28 1   
    12    6    7 1   
    13    7    8 1   
    14    7   29 1   
    15    7   42 1   
    16    8    9 2   
    17    8   10 1   
    18   10   11 2   
    19   10   12 1   
    20   12   13 1   
    21   12   30 1   
    22   12   43 1   
    23   13   14 1   
    24   13   22 1   
    25   13   31 1   
    26   14   15 1   
    27   15   16 1   
    28   15   18 1   
    29   15   32 1   
    30   16   17 1   
    31   16   33 1   
    32   16   34 1   
    33   17   35 1   
    34   18   19 1   
    35   18   20 1   
    36   18   36 1   
    37   19   37 1   
    38   20   21 1   
    39   20   22 1   
    40   20   38 1   
    41   21   39 1   
    42   22   23 1   
    43   22   40 1   
    44   23   41 1   
@<TRIPOS>SUBSTRUCTURE
     1 445         1 TEMP              0 ****  ****    0 ROOT
