@<TRIPOS>MOLECULE
445
   41    39     1     0     0
SMALL
bcc


@<TRIPOS>ATOM
      1 C10         4.1560    3.0120   -0.5510 c1        1 445     -0.113500
      2 C11         5.5480    3.0490   -0.5620 c1        1 445     -0.070750
      3 C12         6.2660    2.4160    0.4390 c1        1 445     -0.070750
      4 C13         5.5950    1.7420    1.4600 c1        1 445     -0.070750
      5 C14         4.2010    1.7040    1.4730 c1        1 445     -0.070750
      6 C9          3.4820    2.3360    0.4720 c1        1 445      0.071200
      7 N2          2.0610    2.3970    0.5480 n         1 445     -0.452700
      8 C8          1.2630    1.2100    0.2580 c         1 445      0.597100
      9 O8          1.8160    0.1610   -0.0500 o         1 445     -0.589100
     10 C7         -0.2710    1.3050    0.2350 c         1 445      0.597100
     11 O7         -0.8190    2.3700    0.4780 o         1 445     -0.588100
     12 N1         -1.0770    0.1310   -0.1280 n         1 445     -0.556900
     13 C1         -2.4820    0.2390   -0.1930 c3        1 445      0.258500
     14 O5         -3.0670   -0.4250    0.9740 os        1 445     -0.411600
     15 C5         -2.9140   -1.8990    0.9390 c3        1 445      0.105100
     16 C6         -1.4970   -2.2360    1.1140 c3        1 445      0.098400
     17 O6         -1.3870   -3.4800    1.7820 oh        1 445     -0.610800
     18 C4         -3.4080   -2.5060   -0.3740 c3        1 445      0.079100
     19 O4         -4.8170   -2.3800   -0.4330 oh        1 445     -0.601800
     20 C3         -2.8120   -1.8390   -1.5630 c3        1 445      0.104100
     21 O3         -1.4000   -2.1570   -1.6250 oh        1 445     -0.602800
     22 C2         -2.9720   -0.3600   -1.5180 c3        1 445      0.131100
     23 O2         -4.3360   -0.0420   -1.6860 oh        1 445     -0.579800
     24 H10         3.6470    3.4620   -1.2610 ha        1 445      0.077500
     25 H11         6.0160    3.5170   -1.2740 ha        1 445      0.085750
     26 H12         7.2430    2.4420    0.4300 ha        1 445      0.085750
     27 H13         6.1020    1.2960    2.1670 ha        1 445      0.085750
     28 H14         3.7360    1.2370    2.1790 ha        1 445      0.085750
     29 HN2         1.6540    3.1610    0.8250 hn        1 445      0.342500
     30 HN1        -0.6750   -0.6760   -0.2530 hn        1 445      0.346500
     31 H1         -2.7230    1.1800   -0.1690 h2        1 445      0.131700
     32 H5         -3.4280   -2.2890    1.6830 h1        1 445      0.093700
     33 H6         -1.0720   -2.2960    0.2530 h1        1 445      0.047700
     34 H6A        -1.0610   -1.5420    1.6460 h1        1 445      0.047700
     35 HO6        -0.8510   -3.3950    2.4700 ho        1 445      0.412000
     36 H4         -3.1720   -3.4620   -0.3930 h1        1 445      0.060700
     37 HO4        -5.1820   -3.1730   -0.4060 ho        1 445      0.417000
     38 H3         -3.2540   -2.1830   -2.3780 h1        1 445      0.077700
     39 HO3        -1.2270   -2.6040   -2.3880 ho        1 445      0.416000
     40 H2         -2.4570    0.0400   -2.2570 h1        1 445      0.105700
     41 HO2        -4.4260    0.5380   -2.3650 ho        1 445      0.428000
@<TRIPOS>BOND
     1    1    6 3   
     2    1   24 1   
     3    2    3 3   
     4    2   25 1   
     5    3   26 1   
     6    4    5 3   
     7    4   27 1   
     8    5   28 1   
     9    6    7 1   
    10    7    8 1   
    11    7   29 1   
    12    8    9 2   
    13    8   10 1   
    14   10   11 2   
    15   10   12 1   
    16   12   13 1   
    17   12   30 1   
    18   13   14 1   
    19   13   22 1   
    20   13   31 1   
    21   14   15 1   
    22   15   16 1   
    23   15   18 1   
    24   15   32 1   
    25   16   17 1   
    26   16   33 1   
    27   16   34 1   
    28   17   35 1   
    29   18   19 1   
    30   18   20 1   
    31   18   36 1   
    32   19   37 1   
    33   20   21 1   
    34   20   22 1   
    35   20   38 1   
    36   21   39 1   
    37   22   23 1   
    38   22   40 1   
    39   23   41 1   
@<TRIPOS>SUBSTRUCTURE
     1 445         1 TEMP              0 ****  ****    0 ROOT
