@<TRIPOS>MOLECULE
445
   42    43     1     0     0
SMALL
bcc


@<TRIPOS>ATOM
      1 C10        -0.0760   -0.9300    0.3300 ca        1 445     -0.137000
      2 C11         1.1850   -1.2970    0.7980 ca        1 445     -0.103000
      3 C12         1.5840   -0.9810    2.0940 ca        1 445     -0.112000
      4 C13         0.7120   -0.2900    2.9380 ca        1 445     -0.103000
      5 C14        -0.5510    0.0850    2.4960 ca        1 445     -0.137000
      6 C9         -0.9570   -0.2340    1.1780 ca        1 445      0.007600
      7 N2         -2.2500    0.1870    0.7690 n         1 445     -0.390100
      8 C8         -2.8880   -0.2070   -0.3610 c         1 445      0.621100
      9 O8         -2.4820   -0.9550   -1.2680 o         1 445     -0.563100
     10 C7         -4.3110    0.3900   -0.5270 c         1 445      0.456100
     11 O7         -4.8520    1.2170    0.1880 o         1 445     -0.398100
     12 N1         -5.0590   -0.1260   -1.7210 n4        1 445     -0.667800
     13 C1         -6.4830   -0.5060   -1.4030 c3        1 445      0.333300
     14 O5         -6.4060   -1.7320   -0.6880 os        1 445     -0.422600
     15 C5         -7.6960   -2.1500   -0.1930 c3        1 445      0.115100
     16 C6         -7.4140   -3.4460    0.5720 c3        1 445      0.137400
     17 O6         -6.8760   -3.0590    1.8220 oh        1 445     -0.596800
     18 C4         -8.6660   -2.3710   -1.3670 c3        1 445      0.077100
     19 O4         -9.9880   -2.5360   -0.8890 oh        1 445     -0.582800
     20 C3         -8.7270   -1.1170   -2.2620 c3        1 445      0.118100
     21 O3         -9.4320   -1.3800   -3.4580 oh        1 445     -0.594800
     22 C2         -7.3070   -0.7240   -2.6990 c3        1 445      0.109100
     23 O2         -7.2700    0.4990   -3.4030 oh        1 445     -0.622800
     24 H10        -0.3630   -1.1950   -0.7010 ha        1 445      0.153500
     25 H11         1.8690   -1.8410    0.1270 ha        1 445      0.154000
     26 H12         2.5830   -1.2740    2.4540 ha        1 445      0.155000
     27 H13         1.0240   -0.0370    3.9640 ha        1 445      0.154000
     28 H14        -1.2200    0.6300    3.1800 ha        1 445      0.153500
     29 HN2        -2.7330    0.7900    1.4070 hn        1 445      0.352500
     30 HN1        -4.5540   -0.9500   -2.0890 hn        1 445      0.492300
     31 H1         -6.9290    0.3180   -0.7660 hx        1 445      0.127700
     32 H5         -8.0950   -1.3650    0.5080 h1        1 445      0.098700
     33 H6         -6.6840   -4.0860    0.0100 h1        1 445      0.051200
     34 H6A        -8.3810   -4.0000    0.7130 h1        1 445      0.051200
     35 HO6        -6.7300   -3.8680    2.3290 ho        1 445      0.426000
     36 H4         -8.3430   -3.2590   -1.9770 h1        1 445      0.076700
     37 HO4       -10.0710   -3.4400   -0.5580 ho        1 445      0.428000
     38 H3         -9.2190   -0.2720   -1.7030 h1        1 445      0.080700
     39 HO3       -10.3280   -1.6480   -3.2040 ho        1 445      0.449000
     40 H2         -6.8630   -1.5430   -3.3310 h1        1 445      0.088700
     41 HO2        -7.9940    0.4850   -4.0500 ho        1 445      0.470000
     42 H121       -5.0980    0.6020   -2.4520 hn        1 445      0.492300
@<TRIPOS>BOND
     1    1    2 ar  
     2    1    6 ar  
     3    1   24 1   
     4    2    3 ar  
     5    2   25 1   
     6    3    4 ar  
     7    3   26 1   
     8    4    5 ar  
     9    4   27 1   
    10    5    6 ar  
    11    5   28 1   
    12    6    7 1   
    13    7    8 1   
    14    7   29 1   
    15    8    9 2   
    16    8   10 1   
    17   10   11 2   
    18   10   12 1   
    19   12   13 1   
    20   12   30 1   
    21   12   42 1   
    22   13   14 1   
    23   13   22 1   
    24   13   31 1   
    25   14   15 1   
    26   15   16 1   
    27   15   18 1   
    28   15   32 1   
    29   16   17 1   
    30   16   33 1   
    31   16   34 1   
    32   17   35 1   
    33   18   19 1   
    34   18   20 1   
    35   18   36 1   
    36   19   37 1   
    37   20   21 1   
    38   20   22 1   
    39   20   38 1   
    40   21   39 1   
    41   22   23 1   
    42   22   40 1   
    43   23   41 1   
@<TRIPOS>SUBSTRUCTURE
     1 445         1 TEMP              0 ****  ****    0 ROOT
