@<TRIPOS>MOLECULE
445
   42    43     1     0     0
SMALL
bcc


@<TRIPOS>ATOM
      1 C10        -0.0830   -0.9460    0.3550 ca        1 445     -0.136500
      2 C11         1.1730   -1.3240    0.8270 ca        1 445     -0.103000
      3 C12         1.5630   -1.0290    2.1310 ca        1 445     -0.112000
      4 C13         0.6870   -0.3480    2.9780 ca        1 445     -0.103000
      5 C14        -0.5720    0.0380    2.5320 ca        1 445     -0.136500
      6 C9         -0.9680   -0.2600    1.2070 ca        1 445      0.007600
      7 N2         -2.2560    0.1720    0.7930 ns        1 445     -0.390100
      8 C8         -2.8880   -0.2070   -0.3450 c         1 445      0.621100
      9 O8         -2.4800   -0.9470   -1.2570 o         1 445     -0.563100
     10 C7         -4.3080    0.3980   -0.5140 c         1 445      0.456100
     11 O7         -4.8490    1.2210    0.2050 o         1 445     -0.398100
     12 N1         -5.0520   -0.1060   -1.7150 ny        1 445     -0.667800
     13 C1         -6.4780   -0.4880   -1.4060 c3        1 445      0.333300
     14 O5         -6.4050   -1.7200   -0.7020 os        1 445     -0.422600
     15 C5         -7.6970   -2.1410   -0.2160 c3        1 445      0.115100
     16 C6         -7.4200   -3.4440    0.5390 c3        1 445      0.137400
     17 O6         -6.8850   -3.0680    1.7940 oh        1 445     -0.596800
     18 C4         -8.6630   -2.3500   -1.3950 c3        1 445      0.077100
     19 O4         -9.9860   -2.5180   -0.9240 oh        1 445     -0.582800
     20 C3         -8.7190   -1.0880   -2.2800 c3        1 445      0.118100
     21 O3         -9.4190   -1.3390   -3.4800 oh        1 445     -0.594800
     22 C2         -7.2970   -0.6920   -2.7070 c3        1 445      0.109100
     23 O2         -7.2560    0.5360   -3.4000 oh        1 445     -0.622800
     24 H10        -0.3630   -1.1940   -0.6820 ha        1 445      0.153500
     25 H11         1.8600   -1.8610    0.1530 ha        1 445      0.154000
     26 H12         2.5580   -1.3310    2.4940 ha        1 445      0.155000
     27 H13         0.9910   -0.1120    4.0100 ha        1 445      0.154000
     28 H14        -1.2450    0.5750    3.2190 ha        1 445      0.153500
     29 HN2        -2.7410    0.7690    1.4350 hn        1 445      0.352500
     30 HN1        -4.5470   -0.9270   -2.0900 hn        1 445      0.492300
     31 H1         -6.9250    0.3320   -0.7640 hx        1 445      0.127700
     32 H5         -8.0980   -1.3620    0.4910 h1        1 445      0.097700
     33 H6         -8.3880   -3.9980    0.6720 h1        1 445      0.051200
     34 H6A        -6.6880   -4.0800   -0.0270 h1        1 445      0.051200
     35 HO6        -6.7410   -3.8830    2.2940 ho        1 445      0.426000
     36 H4         -8.3380   -3.2330   -2.0120 h1        1 445      0.076700
     37 HO4       -10.0720   -3.4250   -0.6010 ho        1 445      0.428000
     38 H3         -9.2130   -0.2480   -1.7150 h1        1 445      0.080700
     39 HO3       -10.3170   -1.6090   -3.2320 ho        1 445      0.449000
     40 H2         -6.8510   -1.5070   -3.3450 h1        1 445      0.088700
     41 HO2        -7.9770    0.5290   -4.0500 ho        1 445      0.470000
     42 H121       -5.0880    0.6290   -2.4390 hn        1 445      0.492300
@<TRIPOS>BOND
     1    1    2 ar  
     2    1    6 ar  
     3    1   24 1   
     4    2    3 ar  
     5    2   25 1   
     6    3    4 ar  
     7    3   26 1   
     8    4    5 ar  
     9    4   27 1   
    10    5    6 ar  
    11    5   28 1   
    12    6    7 1   
    13    7    8 1   
    14    7   29 1   
    15    8    9 2   
    16    8   10 1   
    17   10   11 2   
    18   10   12 1   
    19   12   13 1   
    20   12   30 1   
    21   12   42 1   
    22   13   14 1   
    23   13   22 1   
    24   13   31 1   
    25   14   15 1   
    26   15   16 1   
    27   15   18 1   
    28   15   32 1   
    29   16   17 1   
    30   16   33 1   
    31   16   34 1   
    32   17   35 1   
    33   18   19 1   
    34   18   20 1   
    35   18   36 1   
    36   19   37 1   
    37   20   21 1   
    38   20   22 1   
    39   20   38 1   
    40   21   39 1   
    41   22   23 1   
    42   22   40 1   
    43   23   41 1   
@<TRIPOS>SUBSTRUCTURE
     1 445         1 TEMP              0 ****  ****    0 ROOT
