@<TRIPOS>MOLECULE
445
   41    42     1     0     0
SMALL
bcc


@<TRIPOS>ATOM
      1 C10        -4.9120    0.2270    1.1110 ca        1 445     -0.160000
      2 C11        -6.2680    0.2110    1.4300 ca        1 445     -0.106000
      3 C12        -7.2180   -0.1990    0.4980 ca        1 445     -0.148000
      4 C13        -6.8040   -0.6010   -0.7720 ca        1 445     -0.106000
      5 C14        -5.4570   -0.5960   -1.1130 ca        1 445     -0.160000
      6 C9         -4.4860   -0.1780   -0.1700 ca        1 445      0.055600
      7 N2         -3.1350   -0.1710   -0.5700 n         1 445     -0.438100
      8 C8         -2.0380    0.0460    0.2270 c         1 445      0.598100
      9 O8         -2.0660    0.3240    1.4400 o         1 445     -0.581100
     10 C7         -0.6760   -0.0700   -0.5030 c         1 445      0.586100
     11 O7         -0.5830   -0.6470   -1.6000 o         1 445     -0.573100
     12 N1          0.3820    0.5780    0.1110 n         1 445     -0.524900
     13 C1          1.7390    0.3230   -0.3150 c3        1 445      0.253500
     14 O5          2.2840   -0.6580    0.5920 os        1 445     -0.452600
     15 C5          3.5930   -1.0900    0.2170 c3        1 445      0.108100
     16 C6          3.9790   -2.1710    1.2320 c3        1 445      0.140400
     17 O6          3.1930   -3.3290    1.0700 oh        1 445     -0.591800
     18 C4          4.5720    0.0920    0.2770 c3        1 445      0.122100
     19 O4          5.8270   -0.3820   -0.1750 oh        1 445     -0.592800
     20 C3          4.0660    1.2240   -0.6320 c3        1 445      0.109100
     21 O3          4.9380    2.3210   -0.4300 oh        1 445     -0.604800
     22 C2          2.6240    1.6000   -0.2520 c3        1 445      0.085100
     23 O2          2.2150    2.5540   -1.2140 oh        1 445     -0.598800
     24 H10        -4.1840    0.5540    1.8720 ha        1 445      0.152500
     25 H11        -6.5850    0.5280    2.4350 ha        1 445      0.136000
     26 H12        -8.2850   -0.2080    0.7600 ha        1 445      0.136000
     27 H13        -7.5480   -0.9280   -1.5140 ha        1 445      0.136000
     28 H14        -5.1570   -0.9190   -2.1210 ha        1 445      0.152500
     29 HN2        -2.9570   -0.4550   -1.5130 hn        1 445      0.343500
     30 HN1         0.2650    0.7990    1.0790 hn        1 445      0.333500
     31 H1          1.7370   -0.0890   -1.3680 h2        1 445      0.101700
     32 H5          3.5690   -1.5230   -0.8200 h1        1 445      0.075700
     33 H6          5.0370   -2.4930    1.0350 h1        1 445      0.065700
     34 H6A         3.8800   -1.7700    2.2750 h1        1 445      0.065700
     35 HO6         2.2730   -3.0700    1.2060 ho        1 445      0.410000
     36 H4          4.6650    0.4720    1.3330 h1        1 445      0.062700
     37 HO4         6.4090    0.3900   -0.2210 ho        1 445      0.426000
     38 H3          4.1030    0.9040   -1.7110 h1        1 445      0.068700
     39 HO3         4.5990    3.0470   -0.9720 ho        1 445      0.428000
     40 H2          2.6040    2.0460    0.7790 h1        1 445      0.064700
     41 HO2         1.3290    2.8490   -0.9710 ho        1 445      0.421000
@<TRIPOS>BOND
     1    1    2 ar  
     2    1    6 ar  
     3    1   24 1   
     4    2    3 ar  
     5    2   25 1   
     6    3    4 ar  
     7    3   26 1   
     8    4    5 ar  
     9    4   27 1   
    10    5    6 ar  
    11    5   28 1   
    12    6    7 1   
    13    7    8 1   
    14    7   29 1   
    15    8    9 2   
    16    8   10 1   
    17   10   11 2   
    18   10   12 1   
    19   12   13 1   
    20   12   30 1   
    21   13   14 1   
    22   13   22 1   
    23   13   31 1   
    24   14   15 1   
    25   15   16 1   
    26   15   18 1   
    27   15   32 1   
    28   16   17 1   
    29   16   33 1   
    30   16   34 1   
    31   17   35 1   
    32   18   19 1   
    33   18   20 1   
    34   18   36 1   
    35   19   37 1   
    36   20   21 1   
    37   20   22 1   
    38   20   38 1   
    39   21   39 1   
    40   22   23 1   
    41   22   40 1   
    42   23   41 1   
@<TRIPOS>SUBSTRUCTURE
     1 445         1 TEMP              0 ****  ****    0 ROOT
