@<TRIPOS>MOLECULE
446
   59    62     1     0     0
SMALL
bcc


@<TRIPOS>ATOM
      1 C4         -0.1180   -0.1700    0.0440 ca        1 446     -0.141600
      2 C5          1.2800   -0.2920    0.1000 ca        1 446     -0.065000
      3 C6          1.9320   -0.2930    1.3230 ca        1 446     -0.133000
      4 C10        -2.3060    0.0850    1.1310 cc        1 446     -0.080400
      5 N12        -2.1800    0.0230   -1.3020 n         1 446     -0.330000
      6 C13        -0.7810   -0.1590   -1.2740 c         1 446      0.709100
      7 C15        -3.1000    0.1550    2.3590 ca        1 446     -0.059800
      8 C28        -3.7990    1.3240    2.6920 ca        1 446     -0.108000
      9 C1          1.1880   -0.1690    2.5080 ca        1 446      0.004100
     10 C2         -0.1940   -0.0450    2.4660 ca        1 446     -0.113000
     11 C3         -0.8690   -0.0460    1.2270 ca        1 446      0.022200
     12 C11        -2.8910    0.1370   -0.1160 cd        1 446      0.069400
     13 BR14        2.0770   -0.1720    4.1600 br        1 446     -0.095100
     14 C16        -2.8370    0.1960   -2.5970 c3        1 446      0.141300
     15 O18        -5.0120   -0.8760   -0.5350 os        1 446     -0.428900
     16 C19        -6.4380   -0.8170   -0.6320 c3        1 446      0.121700
     17 O23        -5.0550    1.2970   -0.0090 o         1 446     -0.500000
     18 O24        -0.1570   -0.3270   -2.3400 o         1 446     -0.625500
     19 C25        -2.8520    1.5960   -3.1190 ca        1 446     -0.204300
     20 C29        -4.5320    1.3870    3.8760 ca        1 446     -0.136000
     21 C30        -4.5780    0.2890    4.7340 ca        1 446     -0.126000
     22 C31        -3.8890   -0.8780    4.4050 ca        1 446     -0.136000
     23 C32        -3.1510   -0.9470    3.2250 ca        1 446     -0.108000
     24 C38        -1.7600    2.0870   -3.8410 ca        1 446     -0.081000
     25 C39        -1.7810    3.3600   -4.3950 ca        1 446     -0.194000
     26 C40        -2.9140    4.1940   -4.2380 ca        1 446      0.123600
     27 C41        -4.0130    3.6890   -3.4860 ca        1 446     -0.194000
     28 C42        -3.9700    2.4180   -2.9390 ca        1 446     -0.081000
     29 N47        -3.0160    5.4740   -4.7690 n         1 446     -0.472100
     30 C48        -2.0860    6.1480   -5.5470 c         1 446      0.668100
     31 C49        -2.4850    7.5440   -5.9990 c3        1 446     -0.127400
     32 C50        -3.7950    7.5870   -6.7510 c3        1 446     -0.206400
     33 C53        -4.9850    7.9850   -5.8610 c         1 446      0.907600
     34 O56        -0.9720    5.6720   -5.8550 o         1 446     -0.646100
     35 O57        -5.1920    7.3360   -4.7870 o         1 446     -0.839800
     36 O58        -5.7180    8.9340   -6.2460 o         1 446     -0.839800
     37 H5          1.8440   -0.3820   -0.8440 ha        1 446      0.165000
     38 H6          3.0280   -0.3880    1.3600 ha        1 446      0.149000
     39 H28        -3.7840    2.1840    2.0030 ha        1 446      0.149000
     40 H2         -0.7820    0.0610    3.3920 ha        1 446      0.161000
     41 H16        -2.2800   -0.4630   -3.3290 h1        1 446      0.072200
     42 H16A       -3.8920   -0.1940   -2.5110 h1        1 446      0.072200
     43 H19        -6.8740   -0.5300    0.3550 h1        1 446      0.054700
     44 H19A       -6.7230   -1.8580   -0.9200 h1        1 446      0.054700
     45 H19B       -6.7340   -0.0770   -1.4140 h1        1 446      0.054700
     46 H29        -5.0780    2.3080    4.1290 ha        1 446      0.132500
     47 H30        -5.1570    0.3420    5.6670 ha        1 446      0.128000
     48 H31        -3.9270   -1.7480    5.0770 ha        1 446      0.132500
     49 H32        -2.6070   -1.8670    2.9670 ha        1 446      0.149000
     50 H38        -0.8690    1.4510   -3.9690 ha        1 446      0.131000
     51 H39        -0.9050    3.7170   -4.9620 ha        1 446      0.164500
     52 H41        -4.9070    4.3170   -3.3360 ha        1 446      0.164500
     53 H42        -4.8280    2.0550   -2.3490 ha        1 446      0.131000
     54 HN47       -3.8950    5.9690   -4.6060 hn        1 446      0.394500
     55 H49        -1.6510    7.9240   -6.6470 hc        1 446      0.062200
     56 H49A       -2.5490    8.2030   -5.0910 hc        1 446      0.062200
     57 H50        -4.0220    6.5940   -7.2140 hc        1 446      0.039700
     58 H50A       -3.7150    8.3370   -7.5790 hc        1 446      0.039700
     59 C17        -4.3780    0.2910   -0.2040 c         1 446      0.639300
@<TRIPOS>BOND
     1    1    2 ar  
     2    1    6 1   
     3    1   11 ar  
     4    2    3 ar  
     5    2   37 1   
     6    3    9 ar  
     7    3   38 1   
     8    4    7 1   
     9    4   11 1   
    10    4   12 2   
    11    5    6 1   
    12    5   12 1   
    13    5   14 1   
    14    6   18 2   
    15    7    8 ar  
    16    7   23 ar  
    17    8   20 ar  
    18    8   39 1   
    19    9   10 ar  
    20    9   13 1   
    21   10   11 ar  
    22   10   40 1   
    23   12   59 1   
    24   14   19 1   
    25   14   41 1   
    26   14   42 1   
    27   15   16 1   
    28   15   59 1   
    29   16   43 1   
    30   16   44 1   
    31   16   45 1   
    32   17   59 2   
    33   19   24 ar  
    34   19   28 ar  
    35   20   21 ar  
    36   20   46 1   
    37   21   22 ar  
    38   21   47 1   
    39   22   23 ar  
    40   22   48 1   
    41   23   49 1   
    42   24   25 ar  
    43   24   50 1   
    44   25   26 ar  
    45   25   51 1   
    46   26   27 ar  
    47   26   29 1   
    48   27   28 ar  
    49   27   52 1   
    50   28   53 1   
    51   29   30 1   
    52   29   54 1   
    53   30   31 1   
    54   30   34 2   
    55   31   32 1   
    56   31   55 1   
    57   31   56 1   
    58   32   33 1   
    59   32   57 1   
    60   32   58 1   
    61   33   35 1   
    62   33   36 1   
@<TRIPOS>SUBSTRUCTURE
     1 446         1 TEMP              0 ****  ****    0 ROOT
