@<TRIPOS>MOLECULE
446
   59    53     1     0     0
SMALL
bcc


@<TRIPOS>ATOM
      1 C4          2.7070    0.1000    2.3730 c1        1 446     -0.121000
      2 C5          4.1120    0.1700    2.3460 c1        1 446     -0.065000
      3 C6          4.8320    0.1190    3.5300 c1        1 446     -0.133000
      4 C10         0.5440   -0.1170    3.6040 c1        1 446     -0.104000
      5 N12         0.4580    0.0450    1.0690 n3        1 446     -0.223000
      6 C13         1.9020    0.1290    1.0440 c1        1 446      0.346000
      7 C15        -0.1970   -0.0850    4.9450 c1        1 446     -0.048000
      8 C17        -1.7460   -0.2600    2.3430 c1        1 446      0.341000
      9 C28        -0.7160   -1.2560    5.4800 c2        1 446     -0.116000
     10 C1          4.1670   -0.0020    4.7440 c1        1 446     -0.136000
     11 C2          2.7770   -0.0720    4.7720 c1        1 446     -0.113000
     12 C3          2.0480   -0.0200    3.5750 c2        1 446      0.034000
     13 C11        -0.2320   -0.0820    2.3210 c2        1 446      0.086000
     14 BR14        5.4550   -0.0920    6.1550 br        1 446      0.045000
     15 C16        -0.2950    0.1970   -0.1570 c3        1 446      0.018000
     16 O18        -2.3080   -1.5340    2.1290 o         1 446     -0.267000
     17 C19        -3.7140   -1.5400    2.1080 c3        1 446     -0.068000
     18 O23        -2.4680    0.6970    2.5530 o         1 446     -0.311000
     19 O24         2.4880    0.2020   -0.0220 o         1 446     -0.350000
     20 C25         0.6810    0.2560   -1.3580 c2        1 446     -0.197000
     21 C29        -1.4330   -1.2190    6.6770 c1        1 446     -0.141000
     22 C30        -1.6270   -0.0150    7.3290 c1        1 446     -0.128500
     23 C31        -1.1060    1.1610    6.7910 c1        1 446     -0.128500
     24 C32        -0.3930    1.1250    5.6010 c1        1 446     -0.100000
     25 C38         0.1490    1.4850   -1.7230 c2        1 446     -0.084000
     26 C39        -0.3400    1.6770   -3.0090 c1        1 446     -0.193000
     27 C40        -0.2980    0.6380   -3.9320 c1        1 446      0.131000
     28 C41         0.2350   -0.5940   -3.5670 c1        1 446     -0.195000
     29 C42         0.7240   -0.7850   -2.2810 c1        1 446     -0.078000
     30 N47        -0.9660    0.7730   -5.1690 n         1 446     -0.326000
     31 C48        -0.3800    0.2430   -6.3600 c2        1 446      0.312000
     32 C49        -1.1090    0.4050   -7.7200 c3        1 446     -0.156000
     33 C50        -0.2850   -0.2310   -8.8150 c3        1 446     -0.235000
     34 C53        -1.0470   -0.1590  -10.1320 c2        1 446      0.327000
     35 O56         0.7000   -0.3270   -6.3090 o         1 446     -0.407000
     36 O57        -1.0040    0.8940  -10.8280 o         1 446     -0.574500
     37 O58        -1.6720   -1.1710  -10.5550 o         1 446     -0.574500
     38 H5          4.5790    0.2550    1.4950 ha        1 446      0.165000
     39 H6          5.8050    0.1690    3.5110 ha        1 446      0.149000
     40 H28        -0.5780   -2.1080    5.0170 ha        1 446      0.137000
     41 H2          2.3120   -0.1570    5.6220 ha        1 446      0.161000
     42 H16        -0.8170    1.0270   -0.1180 h1        1 446      0.111500
     43 H16A       -0.9020   -0.5650   -0.2650 h1        1 446      0.111500
     44 H19        -4.0300   -1.0320    1.3380 h1        1 446      0.094000
     45 H19A       -4.0360   -2.4660    2.0440 h1        1 446      0.094000
     46 H19B       -4.0580   -1.1290    2.9370 h1        1 446      0.094000
     47 H29        -1.7670   -2.0610    7.0810 ha        1 446      0.128000
     48 H30        -2.1310    0.0120    8.1710 ha        1 446      0.132500
     49 H31        -1.2190    2.0030    7.2630 ha        1 446      0.132500
     50 H32        -0.0320    1.9550    5.2190 ha        1 446      0.161000
     51 H38         0.1180    2.2190   -1.0730 ha        1 446      0.124000
     52 H39        -0.7160    2.5460   -3.2660 ha        1 446      0.157000
     53 H41         0.2000   -1.3480   -4.1940 ha        1 446      0.172000
     54 H42         1.1860   -1.6170   -2.0550 ha        1 446      0.139000
     55 HN47       -1.7910    1.1420   -5.1980 hn        1 446      0.308000
     56 H49        -1.2280    1.3570   -7.9140 hc        1 446      0.101500
     57 H49A       -1.9890   -0.0330   -7.6750 hc        1 446      0.101500
     58 H50        -0.1110   -1.1650   -8.5900 hc        1 446      0.079000
     59 H50A        0.5600    0.2440   -8.9020 hc        1 446      0.079000
@<TRIPOS>BOND
     1    1    2 1   
     2    1   12 1   
     3    2   38 1   
     4    3   10 1   
     5    3   39 1   
     6    4   12 1   
     7    4   13 1   
     8    5    6 1   
     9    5   13 1   
    10    5   15 1   
    11    6   19 1   
    12    7    9 1   
    13    7   24 1   
    14    8   13 1   
    15    8   18 1   
    16    9   21 1   
    17    9   40 1   
    18   10   14 1   
    19   11   12 1   
    20   11   41 1   
    21   15   20 1   
    22   15   42 1   
    23   15   43 1   
    24   16   17 1   
    25   17   44 1   
    26   17   45 1   
    27   17   46 1   
    28   20   25 1   
    29   20   29 1   
    30   21   47 1   
    31   22   23 1   
    32   22   48 1   
    33   23   49 1   
    34   24   50 1   
    35   25   26 1   
    36   25   51 1   
    37   26   52 1   
    38   27   28 1   
    39   27   30 1   
    40   28   53 1   
    41   29   54 1   
    42   30   31 1   
    43   30   55 1   
    44   31   32 1   
    45   31   35 1   
    46   32   33 1   
    47   32   56 1   
    48   32   57 1   
    49   33   34 1   
    50   33   58 1   
    51   33   59 1   
    52   34   36 1   
    53   34   37 1   
@<TRIPOS>SUBSTRUCTURE
     1 446         1 TEMP              0 ****  ****    0 ROOT
