@<TRIPOS>MOLECULE
446
   59    62     1     0     0
SMALL
bcc


@<TRIPOS>ATOM
      1 C4         -2.2860   -1.0860   -1.3970 ca        1 446     -0.141600
      2 C5         -2.7700   -2.3700   -1.6960 ca        1 446     -0.065000
      3 C6         -3.8870   -2.8650   -1.0410 ca        1 446     -0.133000
      4 C10        -2.3970    1.0230   -0.1440 cc        1 446     -0.080400
      5 N12        -0.5890    0.6750   -1.7420 n         1 446     -0.330000
      6 C13        -1.0870   -0.5940   -2.1040 c         1 446      0.709100
      7 C15        -3.0920    1.8800    0.8180 ca        1 446     -0.059800
      8 C28        -2.4870    2.2270    2.0340 ca        1 446     -0.108000
      9 C1         -4.5330   -2.0760   -0.0740 ca        1 446      0.004100
     10 C2         -4.0610   -0.8070    0.2320 ca        1 446     -0.113000
     11 C3         -2.9280   -0.2920   -0.4300 ca        1 446      0.022200
     12 C11        -1.2500    1.4360   -0.7870 cd        1 446      0.069400
     13 BR14       -6.0430   -2.7510    0.8090 br        1 446     -0.095100
     14 C16         0.6840    1.1150   -2.3110 c3        1 446      0.141300
     15 O18        -0.9510    3.7090   -1.4540 os        1 446     -0.428900
     16 C19        -0.4650    5.0340   -1.2240 c3        1 446      0.121700
     17 O23        -0.0870    3.1520    0.5330 o         1 446     -0.500000
     18 O24        -0.5270   -1.2440   -3.0090 o         1 446     -0.625500
     19 C25         1.9000    0.6560   -1.5740 ca        1 446     -0.204300
     20 C29        -3.1700    3.0230    2.9530 ca        1 446     -0.136000
     21 C30        -4.4550    3.4820    2.6670 ca        1 446     -0.126000
     22 C31        -5.0590    3.1450    1.4560 ca        1 446     -0.136000
     23 C32        -4.3850    2.3460    0.5350 ca        1 446     -0.108000
     24 C38         2.4520   -0.5990   -1.8440 ca        1 446     -0.081000
     25 C39         3.6210   -1.0180   -1.2240 ca        1 446     -0.194000
     26 C40         4.2830   -0.1780   -0.2950 ca        1 446      0.123600
     27 C41         3.7020    1.0910   -0.0150 ca        1 446     -0.194000
     28 C42         2.5330    1.4880   -0.6430 ca        1 446     -0.081000
     29 N47         5.4600   -0.5200    0.3590 n         1 446     -0.472100
     30 C48         6.2030   -1.6830    0.2200 c         1 446      0.668100
     31 C49         7.4650   -1.7700    1.0650 c3        1 446     -0.127400
     32 C50         8.4170   -0.6150    0.8530 c3        1 446     -0.206400
     33 C53         8.2760    0.4830    1.9210 c         1 446      0.907600
     34 O56         5.8700   -2.6270   -0.5280 o         1 446     -0.646100
     35 O57         7.1260    0.9830    2.1390 o         1 446     -0.839800
     36 O58         9.3150    0.8540    2.5270 o         1 446     -0.839800
     37 H5         -2.2440   -2.9740   -2.4550 ha        1 446      0.165000
     38 H6         -4.2610   -3.8720   -1.2780 ha        1 446      0.149000
     39 H28        -1.4620    1.8840    2.2510 ha        1 446      0.149000
     40 H2         -4.5580   -0.1860    0.9950 ha        1 446      0.161000
     41 H16         0.7200    0.7110   -3.3670 h1        1 446      0.072200
     42 H16A        0.6720    2.2410   -2.3700 h1        1 446      0.072200
     43 H19         0.6460    5.0150   -1.1030 h1        1 446      0.054700
     44 H19A       -0.7700    5.5880   -2.1450 h1        1 446      0.054700
     45 H19B       -0.9430    5.4620   -0.3100 h1        1 446      0.054700
     46 H29        -2.6860    3.2910    3.9040 ha        1 446      0.132500
     47 H30        -4.9900    4.1110    3.3930 ha        1 446      0.128000
     48 H31        -6.0700    3.5100    1.2250 ha        1 446      0.132500
     49 H32        -4.8620    2.0790   -0.4200 ha        1 446      0.149000
     50 H38         1.9460   -1.2670   -2.5620 ha        1 446      0.131500
     51 H39         4.0320   -2.0130   -1.4610 ha        1 446      0.164500
     52 H41         4.1860    1.7660    0.7100 ha        1 446      0.164500
     53 H42         2.0960    2.4700   -0.3990 ha        1 446      0.131500
     54 HN47        5.8530    0.1820    0.9900 hn        1 446      0.394500
     55 H49         7.1620   -1.8160    2.1450 hc        1 446      0.062200
     56 H49A        7.9630   -2.7390    0.8000 hc        1 446      0.062200
     57 H50         9.4690   -0.9990    0.8880 hc        1 446      0.039700
     58 H50A        8.2600   -0.1470   -0.1510 hc        1 446      0.039700
     59 C17        -0.6990    2.7920   -0.4700 c         1 446      0.639300
@<TRIPOS>BOND
     1    1    2 ar  
     2    1    6 1   
     3    1   11 ar  
     4    2    3 ar  
     5    2   37 1   
     6    3    9 ar  
     7    3   38 1   
     8    4    7 1   
     9    4   11 1   
    10    4   12 2   
    11    5    6 1   
    12    5   12 1   
    13    5   14 1   
    14    6   18 2   
    15    7    8 ar  
    16    7   23 ar  
    17    8   20 ar  
    18    8   39 1   
    19    9   10 ar  
    20    9   13 1   
    21   10   11 ar  
    22   10   40 1   
    23   12   59 1   
    24   14   19 1   
    25   14   41 1   
    26   14   42 1   
    27   15   16 1   
    28   15   59 1   
    29   16   43 1   
    30   16   44 1   
    31   16   45 1   
    32   17   59 2   
    33   19   24 ar  
    34   19   28 ar  
    35   20   21 ar  
    36   20   46 1   
    37   21   22 ar  
    38   21   47 1   
    39   22   23 ar  
    40   22   48 1   
    41   23   49 1   
    42   24   25 ar  
    43   24   50 1   
    44   25   26 ar  
    45   25   51 1   
    46   26   27 ar  
    47   26   29 1   
    48   27   28 ar  
    49   27   52 1   
    50   28   53 1   
    51   29   30 1   
    52   29   54 1   
    53   30   31 1   
    54   30   34 2   
    55   31   32 1   
    56   31   55 1   
    57   31   56 1   
    58   32   33 1   
    59   32   57 1   
    60   32   58 1   
    61   33   35 1   
    62   33   36 1   
@<TRIPOS>SUBSTRUCTURE
     1 446         1 TEMP              0 ****  ****    0 ROOT
