@<TRIPOS>MOLECULE
447
   71    75     1     0     0
SMALL
bcc


@<TRIPOS>ATOM
      1 CAT        -0.0960    0.9920    1.3520 c3        1 447      0.127800
      2 CAQ         0.2250    0.5210   -0.0750 c3        1 447      0.092900
      3 OBA         0.1170   -0.8910   -0.2310 os        1 447     -0.417600
      4 CAR         0.7390   -1.6090    0.8290 c3        1 447      0.092900
      5 CAU         0.1550   -1.2450    2.2050 c3        1 447      0.127800
      6 NBL        -0.6210   -0.0140    2.2630 n3        1 447     -0.707600
      7 CAS        -2.0570   -0.2010    2.2000 c3        1 447      0.171800
      8 CAO        -2.6330   -0.8430    0.9380 c3        1 447     -0.128400
      9 CAP        -4.1370   -0.9890    1.0250 c3        1 447      0.130400
     10 OBB        -4.3760   -2.0870    1.9380 os        1 447     -0.321900
     11 CBH        -5.6750   -2.4190    2.1870 ca        1 447      0.146100
     12 CAM        -6.7600   -1.7880    1.6180 ca        1 447     -0.241300
     13 CBG        -5.8710   -3.5150    3.1150 ca        1 447      0.218100
     14 OAZ        -4.8970   -4.2210    3.7510 os        1 447     -0.309900
     15 CAA        -3.5180   -3.9490    3.4730 c3        1 447      0.117700
     16 CAN        -7.1620   -3.9220    3.4280 ca        1 447     -0.237000
     17 C5         -8.2830   -3.2830    2.8620 ca        1 447     -0.213600
     18 C4         -8.0950   -2.1940    1.9290 ca        1 447      0.450600
     19 N3         -9.1620   -1.5590    1.3480 nb        1 447     -0.604000
     20 C2        -10.3870   -1.9900    1.6770 ca        1 447      0.645900
     21 N1        -10.6990   -3.0050    2.5500 nb        1 447     -0.689000
     22 C6         -9.6510   -3.6190    3.1220 ca        1 447      0.480200
     23 NAY        -9.9220   -4.7350    4.0750 n4        1 447     -0.629100
     24 CBE       -11.2890   -4.7720    4.6080 ca        1 447      0.027600
     25 CAK       -12.3350   -5.2740    3.8140 ca        1 447     -0.066500
     26 CAI       -13.6300   -5.3210    4.3280 ca        1 447     -0.079000
     27 CAJ       -11.5430   -4.2990    5.9070 ca        1 447     -0.066500
     28 CAH       -12.8370   -4.3480    6.4200 ca        1 447     -0.079000
     29 CBD       -13.8840   -4.8590    5.6310 ca        1 447      0.013600
     30 NAX       -15.2420   -4.9130    6.1710 n4        1 447     -0.569200
     31 CBC       -15.6210   -6.2740    6.8070 c         1 447      0.584700
     32 OAB       -14.8320   -7.1780    6.5940 o         1 447     -0.414100
     33 CBF       -16.8570   -6.2750    7.5750 ca        1 447     -0.221600
     34 CAF       -17.0840   -7.4100    8.3800 ca        1 447     -0.062000
     35 CAD       -18.2490   -7.5000    9.1400 ca        1 447     -0.119000
     36 CAC       -19.1930   -6.4750    9.1010 ca        1 447     -0.030000
     37 CAE       -18.9740   -5.3500    8.2940 ca        1 447     -0.119000
     38 CAG       -17.8160   -5.2450    7.5340 ca        1 447     -0.062000
     39 HAT1        0.8550    1.3690    1.8270 h1        1 447      0.059950
     40 HAT2       -0.8140    1.8560    1.2990 h1        1 447      0.059950
     41 HAQ1        1.2620    0.8400   -0.3600 h1        1 447      0.057700
     42 HAQ2       -0.5090    0.9300   -0.8190 h1        1 447      0.057700
     43 HAR1        1.8430   -1.4150    0.8120 h1        1 447      0.057700
     44 HAR2        0.5410   -2.6840    0.5800 h1        1 447      0.057700
     45 HAU1       -0.4690   -2.1030    2.5770 h1        1 447      0.059950
     46 HAU2        1.0100   -1.1080    2.9280 h1        1 447      0.059950
     47 HAS1       -2.5340    0.8100    2.3430 h1        1 447      0.049200
     48 HAS2       -2.3460   -0.8430    3.0820 h1        1 447      0.049200
     49 HAO1       -2.1560   -1.8450    0.7680 hc        1 447      0.081700
     50 HAO2       -2.3950   -0.2110    0.0400 hc        1 447      0.081700
     51 HAP1       -4.6230   -0.0660    1.4370 h1        1 447      0.057700
     52 HAP2       -4.5760   -1.2530    0.0270 h1        1 447      0.057700
     53 HAM        -6.6260   -0.9540    0.9050 ha        1 447      0.193000
     54 HAN        -7.2600   -4.7680    4.1240 ha        1 447      0.141000
     55 HAA1       -3.3010   -4.1090    2.3900 h1        1 447      0.074367
     56 HAA2       -2.9930   -4.7070    4.1100 h1        1 447      0.074367
     57 HAA3       -3.2590   -2.9080    3.7860 h1        1 447      0.074367
     58 H2        -11.2580   -1.4830    1.2020 h5        1 447      0.093100
     59 HAY        -9.2540   -4.6380    4.8550 hn        1 447      0.476300
     60 HAK       -12.1580   -5.6230    2.7800 ha        1 447      0.188000
     61 HAJ       -10.7380   -3.8830    6.5410 ha        1 447      0.188000
     62 HAI       -14.4360   -5.7290    3.6910 ha        1 447      0.183500
     63 HAH       -13.0130   -3.9790    7.4470 ha        1 447      0.183500
     64 HAX       -15.3520   -4.1870    6.8910 hn        1 447      0.468800
     65 HAF       -16.3400   -8.2260    8.4050 ha        1 447      0.148000
     66 HAG       -17.6920   -4.3560    6.8990 ha        1 447      0.148000
     67 HAD       -18.4210   -8.3900    9.7700 ha        1 447      0.178500
     68 HAC       -20.1170   -6.5480    9.7020 ha        1 447      0.180000
     69 HAE       -19.7280   -4.5460    8.2600 ha        1 447      0.178500
     70 HAY2       -9.7300   -5.6180    3.5770 hn        1 447      0.476300
     71 HAX2      -15.9120   -4.7230    5.4140 hn        1 447      0.468800
@<TRIPOS>BOND
     1    1    2 1   
     2    1    6 1   
     3    1   39 1   
     4    1   40 1   
     5    2    3 1   
     6    2   41 1   
     7    2   42 1   
     8    3    4 1   
     9    4    5 1   
    10    4   43 1   
    11    4   44 1   
    12    5    6 1   
    13    5   45 1   
    14    5   46 1   
    15    6    7 1   
    16    7    8 1   
    17    7   47 1   
    18    7   48 1   
    19    8    9 1   
    20    8   49 1   
    21    8   50 1   
    22    9   10 1   
    23    9   51 1   
    24    9   52 1   
    25   10   11 1   
    26   11   12 ar  
    27   11   13 ar  
    28   12   18 ar  
    29   12   53 1   
    30   13   14 1   
    31   13   16 ar  
    32   14   15 1   
    33   15   55 1   
    34   15   56 1   
    35   15   57 1   
    36   16   17 ar  
    37   16   54 1   
    38   17   18 ar  
    39   17   22 ar  
    40   18   19 ar  
    41   19   20 ar  
    42   20   21 ar  
    43   20   58 1   
    44   21   22 ar  
    45   22   23 1   
    46   23   24 1   
    47   23   59 1   
    48   23   70 1   
    49   24   25 ar  
    50   24   27 ar  
    51   25   26 ar  
    52   25   60 1   
    53   26   29 ar  
    54   26   62 1   
    55   27   28 ar  
    56   27   61 1   
    57   28   29 ar  
    58   28   63 1   
    59   29   30 1   
    60   30   31 1   
    61   30   64 1   
    62   30   71 1   
    63   31   32 2   
    64   31   33 1   
    65   33   34 ar  
    66   33   38 ar  
    67   34   35 ar  
    68   34   65 1   
    69   35   36 ar  
    70   35   67 1   
    71   36   37 ar  
    72   36   68 1   
    73   37   38 ar  
    74   37   69 1   
    75   38   66 1   
@<TRIPOS>SUBSTRUCTURE
     1 447         1 TEMP              0 ****  ****    0 ROOT
