@<TRIPOS>MOLECULE
447
   69    73     1     0     0
SMALL
bcc


@<TRIPOS>ATOM
      1 CAT        16.8390   -5.2150    3.3500 c3        1 447      0.136300
      2 CAQ        17.2350   -5.1470    1.8730 c3        1 447      0.109900
      3 OBA        16.4510   -5.9750    1.0200 os        1 447     -0.422600
      4 CAR        15.3740   -6.6400    1.6650 c3        1 447      0.109900
      5 CAU        14.5910   -5.7130    2.5970 c3        1 447      0.136300
      6 NBL        15.4190   -5.0990    3.6280 n3        1 447     -0.730600
      7 CAS        14.9710   -3.7840    4.0370 c3        1 447      0.168800
      8 CAO        15.2120   -2.6180    3.0770 c3        1 447     -0.121400
      9 CAP        14.6100   -1.3380    3.6240 c3        1 447      0.128400
     10 OBB        13.1940   -1.4320    3.3910 os        1 447     -0.325900
     11 CBH        12.4310   -0.3960    3.8780 ca        1 447      0.140100
     12 CAM        12.9370    0.7440    4.4680 ca        1 447     -0.266300
     13 CBG        11.0160   -0.5620    3.7240 ca        1 447      0.068100
     14 OAZ        10.4720   -1.7450    3.2530 os        1 447     -0.328900
     15 CAA        10.7490   -2.0120    1.8780 c3        1 447      0.114700
     16 CAN        10.1510    0.4220    4.1610 ca        1 447     -0.085000
     17 C5         10.6440    1.5980    4.7690 ca        1 447     -0.308600
     18 C4         12.0550    1.7650    4.9330 ca        1 447      0.464600
     19 N3         12.5870    2.8930    5.5340 nb        1 447     -0.726000
     20 C2         11.7060    3.8040    5.9470 ca        1 447      0.675900
     21 N1         10.3370    3.7790    5.8460 nb        1 447     -0.774000
     22 C6          9.7920    2.6840    5.2630 ca        1 447      0.707200
     23 NAY         8.4070    2.5460    5.1660 nh        1 447     -0.720300
     24 CBE         7.4980    3.5820    5.4840 ca        1 447      0.101600
     25 CAK         6.5070    3.9590    4.5540 ca        1 447     -0.110000
     26 CAI         5.5520    4.9170    4.8690 ca        1 447     -0.156000
     27 CAJ         7.5010    4.2040    6.7490 ca        1 447     -0.110000
     28 CAH         6.5540    5.1670    7.0630 ca        1 447     -0.156000
     29 CBD         5.5580    5.5460    6.1310 ca        1 447      0.062600
     30 NAX         4.6360    6.5380    6.5020 n         1 447     -0.467100
     31 CBC         3.4870    6.9180    5.8210 c         1 447      0.680700
     32 OAB         3.1270    6.3960    4.7500 o         1 447     -0.584100
     33 CBF         2.6800    7.9990    6.4640 ca        1 447     -0.148600
     34 CAF         1.2870    7.8680    6.4640 ca        1 447     -0.091000
     35 CAD         0.4970    8.8620    7.0400 ca        1 447     -0.136500
     36 CAC         1.0940    9.9890    7.6060 ca        1 447     -0.107000
     37 CAE         2.4820   10.1260    7.5930 ca        1 447     -0.136500
     38 CAG         3.2790    9.1320    7.0230 ca        1 447     -0.091000
     39 HAT1       17.1570   -6.2190    3.7550 h1        1 447      0.053200
     40 HAT2       17.4090   -4.4220    3.9070 h1        1 447      0.053200
     41 HAQ1       17.1250   -4.1000    1.4780 h1        1 447      0.049700
     42 HAQ2       18.2980   -5.4840    1.7450 h1        1 447      0.049700
     43 HAR1       14.7190   -6.9850    0.8220 h1        1 447      0.049700
     44 HAR2       15.7710   -7.5270    2.2260 h1        1 447      0.049700
     45 HAU1       14.0690   -4.9380    1.9660 h1        1 447      0.053200
     46 HAU2       13.8000   -6.3120    3.1290 h1        1 447      0.053200
     47 HAS1       13.8630   -3.8490    4.2400 h1        1 447      0.061700
     48 HAS2       15.4880   -3.5540    5.0130 h1        1 447      0.061700
     49 HAO1       16.3120   -2.4540    2.9340 hc        1 447      0.059200
     50 HAO2       14.7630   -2.8410    2.0740 hc        1 447      0.059200
     51 HAP1       14.8020   -1.2280    4.7230 h1        1 447      0.048200
     52 HAP2       15.0090   -0.4440    3.0760 h1        1 447      0.048200
     53 HAM        14.0200    0.8890    4.6000 ha        1 447      0.161000
     54 HAN         9.0720    0.2370    4.0420 ha        1 447      0.147000
     55 HAA1       10.2190   -2.9790    1.6890 h1        1 447      0.045033
     56 HAA2       10.3350   -1.2000    1.2330 h1        1 447      0.045033
     57 HAA3       11.8480   -2.1220    1.7120 h1        1 447      0.045033
     58 H2         12.1150    4.7160    6.4340 h5        1 447      0.052100
     59 HAY         8.0950    1.9400    4.4360 hn        1 447      0.431800
     60 HAK         6.4710    3.4940    3.5570 ha        1 447      0.143500
     61 HAJ         8.2570    3.9340    7.5040 ha        1 447      0.143500
     62 HAI         4.7920    5.1790    4.1140 ha        1 447      0.153500
     63 HAH         6.5910    5.6330    8.0600 ha        1 447      0.153500
     64 HAX         4.8010    6.9670    7.3870 hn        1 447      0.319500
     65 HAF         0.8250    6.9840    5.9970 ha        1 447      0.146000
     66 HAG         4.3720    9.2590    7.0020 ha        1 447      0.146000
     67 HAD        -0.5980    8.7580    7.0430 ha        1 447      0.139000
     68 HAC         0.4690   10.7740    8.0590 ha        1 447      0.137000
     69 HAE         2.9520   11.0200    8.0290 ha        1 447      0.139000
@<TRIPOS>BOND
     1    1    2 1   
     2    1    6 1   
     3    1   39 1   
     4    1   40 1   
     5    2    3 1   
     6    2   41 1   
     7    2   42 1   
     8    3    4 1   
     9    4    5 1   
    10    4   43 1   
    11    4   44 1   
    12    5    6 1   
    13    5   45 1   
    14    5   46 1   
    15    6    7 1   
    16    7    8 1   
    17    7   47 1   
    18    7   48 1   
    19    8    9 1   
    20    8   49 1   
    21    8   50 1   
    22    9   10 1   
    23    9   51 1   
    24    9   52 1   
    25   10   11 1   
    26   11   12 ar  
    27   11   13 ar  
    28   12   18 ar  
    29   12   53 1   
    30   13   14 1   
    31   13   16 ar  
    32   14   15 1   
    33   15   55 1   
    34   15   56 1   
    35   15   57 1   
    36   16   17 ar  
    37   16   54 1   
    38   17   18 ar  
    39   17   22 ar  
    40   18   19 ar  
    41   19   20 ar  
    42   20   21 ar  
    43   20   58 1   
    44   21   22 ar  
    45   22   23 1   
    46   23   24 1   
    47   23   59 1   
    48   24   25 ar  
    49   24   27 ar  
    50   25   26 ar  
    51   25   60 1   
    52   26   29 ar  
    53   26   62 1   
    54   27   28 ar  
    55   27   61 1   
    56   28   29 ar  
    57   28   63 1   
    58   29   30 1   
    59   30   31 1   
    60   30   64 1   
    61   31   32 2   
    62   31   33 1   
    63   33   34 ar  
    64   33   38 ar  
    65   34   35 ar  
    66   34   65 1   
    67   35   36 ar  
    68   35   67 1   
    69   36   37 ar  
    70   36   68 1   
    71   37   38 ar  
    72   37   69 1   
    73   38   66 1   
@<TRIPOS>SUBSTRUCTURE
     1 447         1 TEMP              0 ****  ****    0 ROOT
