@<TRIPOS>MOLECULE
447
   69    65     1     0     0
SMALL
bcc


@<TRIPOS>ATOM
      1 CAT         7.9270    2.2540   -5.4410 c3        1 447     -0.103000
      2 CAQ         9.3210    1.8720   -5.8850 c3        1 447     -0.024000
      3 OBA         9.7310    0.6000   -5.3570 os        1 447     -0.272000
      4 CAR         8.7850   -0.4210   -5.6010 c3        1 447     -0.024000
      5 CAU         7.3980   -0.0340   -5.1580 c3        1 447     -0.103000
      6 NBL         6.9880    1.2340   -5.6850 n3        1 447     -0.255000
      7 CAS         5.6720    1.6090   -5.1220 c3        1 447     -0.061000
      8 CAO         5.5210    1.0140   -3.7020 c3        1 447     -0.204000
      9 CAP         3.9560    1.1280   -3.2460 c3        1 447     -0.023000
     10 OBB         3.8030    0.7050   -1.8860 os        1 447     -0.187000
     11 CBH         2.4160    0.4390   -1.5070 c2        1 447      0.104000
     12 CAM         1.2930    1.0590   -2.0400 c2        1 447     -0.192000
     13 CBG         2.3310   -0.2370   -0.2730 c1        1 447      0.059000
     14 OAZ         3.3600   -0.7630    0.5810 o         1 447     -0.184000
     15 CAA         3.5090   -2.1470    0.5060 c3        1 447     -0.082000
     16 CAN         1.1230   -0.2850    0.4120 c2        1 447     -0.163000
     17 C5         -0.0270    0.3480   -0.1310 c1        1 447     -0.152000
     18 C4          0.0600    1.0120   -1.3440 c1        1 447      0.054000
     19 N3         -1.0720    1.4600   -1.9590 n1        1 447     -0.191000
     20 C2         -2.2840    1.2570   -1.3850 c1        1 447      0.002000
     21 N1         -2.3770    0.5830   -0.1540 n1        1 447     -0.238000
     22 C6         -1.2630    0.1390    0.4550 c1        1 447      0.169000
     23 NAY        -1.7810   -0.8060    1.5950 n3        1 447     -0.235000
     24 CBE        -3.0580   -0.5740    2.1870 c2        1 447      0.017000
     25 CAK        -4.1460   -1.4190    1.8610 c2        1 447     -0.142000
     26 CAI        -5.3190   -1.3500    2.5910 c1        1 447     -0.140000
     27 CAJ        -3.1720    0.3260    3.2440 c1        1 447     -0.080000
     28 CAH        -4.3520    0.3940    3.9760 c1        1 447     -0.173000
     29 CBD        -5.4310   -0.4450    3.6510 c1        1 447      0.069000
     30 NAX        -6.6950   -0.2830    4.3320 n         1 447     -0.321000
     31 CBC        -7.1990   -1.3500    5.1940 c2        1 447      0.354000
     32 OAB        -6.5420   -2.3960    5.3370 o         1 447     -0.345000
     33 CBF        -8.5480   -1.2020    5.8780 c2        1 447     -0.128000
     34 CAF        -9.6060   -1.9530    5.4570 c2        1 447     -0.077000
     35 CAD       -10.8180   -1.8730    6.1130 c1        1 447     -0.136000
     36 CAC       -10.9630   -1.0250    7.2020 c1        1 447     -0.121500
     37 CAE        -9.9150   -0.2780    7.6220 c1        1 447     -0.121500
     38 CAG        -8.6870   -0.3620    6.9560 c1        1 447     -0.106000
     39 HAT1        7.6400    3.0990   -5.9350 h1        1 447      0.080500
     40 HAT2        7.9440    2.4420   -4.4560 h1        1 447      0.080500
     41 HAQ1        9.9640    2.5740   -5.5730 h1        1 447      0.093500
     42 HAQ2        9.3450    1.8350   -6.8260 h1        1 447      0.093500
     43 HAR1        8.7680   -0.6260   -6.5910 h1        1 447      0.093500
     44 HAR2        9.0520   -1.2100   -5.1270 h1        1 447      0.093500
     45 HAU1        7.3820    0.0130   -4.1660 h1        1 447      0.080500
     46 HAU2        6.7520   -0.7350   -5.4630 h1        1 447      0.080500
     47 HAS1        5.6020    2.5490   -5.0820 h1        1 447      0.092000
     48 HAS2        4.9700    1.2590   -5.6890 h1        1 447      0.092000
     49 HAO1        5.7930    0.0770   -3.7120 hc        1 447      0.103000
     50 HAO2        6.0580    1.4890   -3.1030 hc        1 447      0.103000
     51 HAP1        3.6620    2.0620   -3.3330 h1        1 447      0.084000
     52 HAP2        3.4090    0.5580   -3.8250 h1        1 447      0.084000
     53 HAM         1.3660    1.5690   -2.8600 ha        1 447      0.163000
     54 HAN         1.0620   -0.7710    1.3000 ha        1 447      0.140000
     55 HAA1        2.8140   -2.5200   -0.0730 h1        1 447      0.085667
     56 HAA2        3.4290   -2.5200    1.3800 h1        1 447      0.085667
     57 HAA3        4.4500   -2.3770    0.1150 h1        1 447      0.085667
     58 H2         -3.0780    1.5720   -1.8190 ha        1 447      0.189000
     59 HAY        -1.2110   -1.5240    1.9330 hn        1 447      0.219000
     60 HAK        -4.0620   -2.1080    1.0560 ha        1 447      0.132000
     61 HAJ        -2.4390    0.8980    3.4660 ha        1 447      0.153000
     62 HAI        -6.0450   -1.9150    2.3720 ha        1 447      0.176000
     63 HAH        -4.4340    1.0480    4.7450 ha        1 447      0.132000
     64 HAX        -7.2190    0.5010    4.1880 hn        1 447      0.233000
     65 HAF        -9.5100   -2.5150    4.7370 ha        1 447      0.155000
     66 HAG        -7.9560    0.1580    7.2470 ha        1 447      0.137000
     67 HAD       -11.5960   -2.4280    5.8010 ha        1 447      0.140000
     68 HAC       -11.8430   -0.9680    7.6760 ha        1 447      0.137500
     69 HAE       -10.0100    0.2840    8.3450 ha        1 447      0.137500
@<TRIPOS>BOND
     1    1    2 1   
     2    1    6 1   
     3    1   39 1   
     4    1   40 1   
     5    2    3 1   
     6    2   41 1   
     7    2   42 1   
     8    3    4 1   
     9    4    5 1   
    10    4   43 1   
    11    4   44 1   
    12    5    6 1   
    13    5   45 1   
    14    5   46 1   
    15    6    7 1   
    16    7    8 1   
    17    7   47 1   
    18    7   48 1   
    19    8    9 1   
    20    8   49 1   
    21    8   50 1   
    22    9   10 1   
    23    9   51 1   
    24    9   52 1   
    25   10   11 1   
    26   11   12 1   
    27   11   13 1   
    28   12   18 1   
    29   12   53 1   
    30   13   16 1   
    31   14   15 1   
    32   15   55 1   
    33   15   56 1   
    34   15   57 1   
    35   16   17 1   
    36   16   54 1   
    37   17   22 1   
    38   18   19 1   
    39   20   21 1   
    40   20   58 1   
    41   22   23 1   
    42   23   24 1   
    43   23   59 1   
    44   24   25 1   
    45   24   27 1   
    46   25   26 1   
    47   25   60 1   
    48   26   62 1   
    49   27   61 1   
    50   28   29 1   
    51   28   63 1   
    52   29   30 1   
    53   30   31 1   
    54   30   64 1   
    55   31   32 1   
    56   31   33 1   
    57   33   34 1   
    58   33   38 1   
    59   34   35 1   
    60   34   65 1   
    61   35   67 1   
    62   36   37 1   
    63   36   68 1   
    64   37   69 1   
    65   38   66 1   
@<TRIPOS>SUBSTRUCTURE
     1 447         1 TEMP              0 ****  ****    0 ROOT
