@<TRIPOS>MOLECULE
447
   69    73     1     0     0
SMALL
bcc


@<TRIPOS>ATOM
      1 CAT         0.1040    0.5950    0.8380 c3        1 447      0.136300
      2 CAQ         0.5210   -0.1860   -0.4100 c3        1 447      0.109900
      3 OBA         1.2810   -1.3590   -0.1380 os        1 447     -0.422600
      4 CAR         1.4300   -1.6610    1.2430 c3        1 447      0.109900
      5 CAU         0.1170   -1.5210    2.0160 c3        1 447      0.136300
      6 NBL        -0.4740   -0.1930    1.9120 n3        1 447     -0.730600
      7 CAS        -1.9200   -0.1850    1.9800 c3        1 447      0.168800
      8 CAO        -2.6940   -0.6820    0.7580 c3        1 447     -0.121400
      9 CAP        -4.1860   -0.6840    1.0290 c3        1 447      0.128400
     10 OBB        -4.4410   -1.8380    1.8470 os        1 447     -0.325900
     11 CBH        -5.7370   -1.9990    2.2800 ca        1 447      0.140100
     12 CAM        -6.7960   -1.2000    1.9020 ca        1 447     -0.266300
     13 CBG        -5.9440   -3.0960    3.1780 ca        1 447      0.068100
     14 OAZ        -4.8840   -3.8360    3.6750 os        1 447     -0.328900
     15 CAA        -4.2190   -4.6370    2.6980 c3        1 447      0.114700
     16 CAN        -7.2080   -3.3640    3.6650 ca        1 447     -0.085000
     17 C5         -8.3100   -2.5610    3.2950 ca        1 447     -0.308600
     18 C4         -8.1080   -1.4590    2.4050 ca        1 447      0.464600
     19 N3         -9.1520   -0.6350    2.0220 nb        1 447     -0.726000
     20 C2        -10.3470   -0.9320    2.5320 ca        1 447      0.675900
     21 N1        -10.6840   -1.9560    3.3810 nb        1 447     -0.774000
     22 C6         -9.6790   -2.7760    3.7720 ca        1 447      0.707200
     23 NAY        -9.9170   -3.8110    4.6780 nh        1 447     -0.720300
     24 CBE       -11.2130   -4.1920    5.1010 ca        1 447      0.101600
     25 CAK       -11.6130   -5.5410    5.0120 ca        1 447     -0.110000
     26 CAI       -12.8480   -5.9580    5.4920 ca        1 447     -0.156000
     27 CAJ       -12.0980   -3.2670    5.6880 ca        1 447     -0.110000
     28 CAH       -13.3360   -3.6790    6.1600 ca        1 447     -0.156000
     29 CBD       -13.7390   -5.0330    6.0740 ca        1 447      0.062600
     30 NAX       -15.0090   -5.3860    6.5560 n         1 447     -0.467100
     31 CBC       -15.5180   -6.6660    6.7320 c         1 447      0.680700
     32 OAB       -14.8730   -7.6970    6.4710 o         1 447     -0.584100
     33 CBF       -16.9060   -6.7420    7.2820 ca        1 447     -0.148600
     34 CAF       -17.1770   -7.7120    8.2540 ca        1 447     -0.091000
     35 CAD       -18.4620   -7.8250    8.7810 ca        1 447     -0.136500
     36 CAC       -19.4790   -6.9810    8.3330 ca        1 447     -0.107000
     37 CAE       -19.2110   -6.0240    7.3540 ca        1 447     -0.136500
     38 CAG       -17.9260   -5.9010    6.8270 ca        1 447     -0.091000
     39 HAT1        1.0220    1.0870    1.2700 h1        1 447      0.053200
     40 HAT2       -0.6090    1.4070    0.5270 h1        1 447      0.053200
     41 HAQ1        1.1640    0.4570   -1.0680 h1        1 447      0.049700
     42 HAQ2       -0.3820   -0.5260   -0.9870 h1        1 447      0.049700
     43 HAR1        2.2240   -1.0000    1.6810 h1        1 447      0.049700
     44 HAR2        1.7750   -2.7290    1.2550 h1        1 447      0.049700
     45 HAU1       -0.5910   -2.3220    1.6560 h1        1 447      0.053200
     46 HAU2        0.3160   -1.7040    3.1100 h1        1 447      0.053200
     47 HAS1       -2.2300    0.8790    2.1890 h1        1 447      0.061700
     48 HAS2       -2.2230   -0.8130    2.8660 h1        1 447      0.061700
     49 HAO1       -2.4990   -0.0150   -0.1220 hc        1 447      0.059200
     50 HAO2       -2.3650   -1.7190    0.4840 hc        1 447      0.059200
     51 HAP1       -4.7650   -0.7810    0.0730 h1        1 447      0.048200
     52 HAP2       -4.5060    0.2410    1.5770 h1        1 447      0.048200
     53 HAM        -6.6590   -0.3500    1.2170 ha        1 447      0.161000
     54 HAN        -7.3110   -4.2020    4.3710 ha        1 447      0.147000
     55 HAA1       -4.9290   -5.3720    2.2490 h1        1 447      0.045033
     56 HAA2       -3.4250   -5.1600    3.2880 h1        1 447      0.045033
     57 HAA3       -3.7660   -3.9950    1.9040 h1        1 447      0.045033
     58 H2        -11.1970   -0.2810    2.2360 h5        1 447      0.052100
     59 HAY        -9.2640   -4.5640    4.6360 hn        1 447      0.431800
     60 HAK       -10.9460   -6.2930    4.5610 ha        1 447      0.143500
     61 HAJ       -11.8210   -2.2040    5.7780 ha        1 447      0.143500
     62 HAI       -13.1190   -7.0240    5.4070 ha        1 447      0.153500
     63 HAH       -14.0030   -2.9260    6.6090 ha        1 447      0.153500
     64 HAX       -15.5780   -4.6270    6.8610 hn        1 447      0.319500
     65 HAF       -16.3710   -8.3860    8.5860 ha        1 447      0.146000
     66 HAG       -17.7310   -5.1550    6.0410 ha        1 447      0.146000
     67 HAD       -18.6740   -8.5860    9.5470 ha        1 447      0.139000
     68 HAC       -20.4930   -7.0740    8.7490 ha        1 447      0.137000
     69 HAE       -20.0150   -5.3660    6.9930 ha        1 447      0.139000
@<TRIPOS>BOND
     1    1    2 1   
     2    1    6 1   
     3    1   39 1   
     4    1   40 1   
     5    2    3 1   
     6    2   41 1   
     7    2   42 1   
     8    3    4 1   
     9    4    5 1   
    10    4   43 1   
    11    4   44 1   
    12    5    6 1   
    13    5   45 1   
    14    5   46 1   
    15    6    7 1   
    16    7    8 1   
    17    7   47 1   
    18    7   48 1   
    19    8    9 1   
    20    8   49 1   
    21    8   50 1   
    22    9   10 1   
    23    9   51 1   
    24    9   52 1   
    25   10   11 1   
    26   11   12 ar  
    27   11   13 ar  
    28   12   18 ar  
    29   12   53 1   
    30   13   14 1   
    31   13   16 ar  
    32   14   15 1   
    33   15   55 1   
    34   15   56 1   
    35   15   57 1   
    36   16   17 ar  
    37   16   54 1   
    38   17   18 ar  
    39   17   22 ar  
    40   18   19 ar  
    41   19   20 ar  
    42   20   21 ar  
    43   20   58 1   
    44   21   22 ar  
    45   22   23 1   
    46   23   24 1   
    47   23   59 1   
    48   24   25 ar  
    49   24   27 ar  
    50   25   26 ar  
    51   25   60 1   
    52   26   29 ar  
    53   26   62 1   
    54   27   28 ar  
    55   27   61 1   
    56   28   29 ar  
    57   28   63 1   
    58   29   30 1   
    59   30   31 1   
    60   30   64 1   
    61   31   32 2   
    62   31   33 1   
    63   33   34 ar  
    64   33   38 ar  
    65   34   35 ar  
    66   34   65 1   
    67   35   36 ar  
    68   35   67 1   
    69   36   37 ar  
    70   36   68 1   
    71   37   38 ar  
    72   37   69 1   
    73   38   66 1   
@<TRIPOS>SUBSTRUCTURE
     1 447         1 TEMP              0 ****  ****    0 ROOT
