@<TRIPOS>MOLECULE
447
   69    73     1     0     0
SMALL
bcc


@<TRIPOS>ATOM
      1 CAT         0.1100    0.5790    0.8310 c3        1 447      0.136300
      2 CAQ         0.5120   -0.1910   -0.4300 c3        1 447      0.109900
      3 OBA         1.2630   -1.3740   -0.1760 os        1 447     -0.422600
      4 CAR         1.4230   -1.6910    1.2000 c3        1 447      0.109900
      5 CAU         0.1180   -1.5490    1.9860 c3        1 447      0.136300
      6 NBL        -0.4650   -0.2160    1.9000 n3        1 447     -0.730600
      7 CAS        -1.9110   -0.1990    1.9790 c3        1 447      0.168800
      8 CAO        -2.6960   -0.6780    0.7570 c3        1 447     -0.121400
      9 CAP        -4.1870   -0.6730    1.0400 c3        1 447      0.128400
     10 OBB        -4.4430   -1.8340    1.8480 os        1 447     -0.325900
     11 CBH        -5.7370   -1.9920    2.2870 ca        1 447      0.140100
     12 CAM        -6.7950   -1.1830    1.9240 ca        1 447     -0.266300
     13 CBG        -5.9460   -3.0980    3.1730 ca        1 447      0.068100
     14 OAZ        -4.8870   -3.8500    3.6550 os        1 447     -0.328900
     15 CAA        -4.2320   -4.6440    2.6650 c3        1 447      0.114700
     16 CAN        -7.2080   -3.3640    3.6640 ca        1 447     -0.085000
     17 C5         -8.3080   -2.5510    3.3090 ca        1 447     -0.308600
     18 C4         -8.1040   -1.4400    2.4320 ca        1 447      0.464600
     19 N3         -9.1460   -0.6060    2.0640 nb        1 447     -0.726000
     20 C2        -10.3390   -0.9020    2.5770 ca        1 447      0.675900
     21 N1        -10.6780   -1.9340    3.4160 nb        1 447     -0.774000
     22 C6         -9.6750   -2.7640    3.7920 ca        1 447      0.707200
     23 NAY        -9.9150   -3.8080    4.6870 nu        1 447     -0.720300
     24 CBE       -11.2100   -4.1880    5.1100 ca        1 447      0.101600
     25 CAK       -11.6170   -5.5350    5.0080 ca        1 447     -0.110000
     26 CAI       -12.8520   -5.9510    5.4870 ca        1 447     -0.156000
     27 CAJ       -12.0890   -3.2660    5.7130 ca        1 447     -0.110000
     28 CAH       -13.3270   -3.6780    6.1850 ca        1 447     -0.156000
     29 CBD       -13.7370   -5.0290    6.0830 ca        1 447      0.062600
     30 NAX       -15.0070   -5.3820    6.5660 ns        1 447     -0.467100
     31 CBC       -15.5210   -6.6620    6.7300 c         1 447      0.680700
     32 OAB       -14.8800   -7.6930    6.4550 o         1 447     -0.584100
     33 CBF       -16.9060   -6.7380    7.2840 ca        1 447     -0.148600
     34 CAF       -17.1780   -7.7170    8.2470 ca        1 447     -0.091000
     35 CAD       -18.4620   -7.8310    8.7770 ca        1 447     -0.136500
     36 CAC       -19.4760   -6.9780    8.3420 ca        1 447     -0.107000
     37 CAE       -19.2080   -6.0120    7.3720 ca        1 447     -0.136500
     38 CAG       -17.9240   -5.8880    6.8410 ca        1 447     -0.091000
     39 HAT1        1.0360    1.0600    1.2610 h1        1 447      0.053200
     40 HAT2       -0.5990    1.4000    0.5340 h1        1 447      0.053200
     41 HAQ1        1.1560    0.4540   -1.0840 h1        1 447      0.049700
     42 HAQ2       -0.3980   -0.5160   -1.0040 h1        1 447      0.049700
     43 HAR1        1.7600   -2.7620    1.1970 h1        1 447      0.049700
     44 HAR2        2.2250   -1.0410    1.6380 h1        1 447      0.049700
     45 HAU1        0.3250   -1.7450    3.0760 h1        1 447      0.053200
     46 HAU2       -0.5990   -2.3420    1.6250 h1        1 447      0.053200
     47 HAS1       -2.2110   -0.8350    2.8610 h1        1 447      0.061700
     48 HAS2       -2.2110    0.8650    2.2010 h1        1 447      0.061700
     49 HAO1       -2.3770   -1.7140    0.4700 hc        1 447      0.059200
     50 HAO2       -2.5040   -0.0030   -0.1170 hc        1 447      0.059200
     51 HAP1       -4.7740   -0.7570    0.0870 h1        1 447      0.048200
     52 HAP2       -4.4970    0.2480    1.5990 h1        1 447      0.048200
     53 HAM        -6.6560   -0.3260    1.2480 ha        1 447      0.161000
     54 HAN        -7.3130   -4.2100    4.3610 ha        1 447      0.147000
     55 HAA1       -3.4380   -5.1780    3.2450 h1        1 447      0.045033
     56 HAA2       -4.9490   -5.3700    2.2120 h1        1 447      0.045033
     57 HAA3       -3.7800   -3.9950    1.8760 h1        1 447      0.045033
     58 H2        -11.1880   -0.2420    2.2940 h5        1 447      0.052100
     59 HAY        -9.2650   -4.5640    4.6330 hn        1 447      0.431800
     60 HAK       -10.9550   -6.2840    4.5450 ha        1 447      0.143500
     61 HAJ       -11.8060   -2.2060    5.8140 ha        1 447      0.143500
     62 HAI       -13.1280   -7.0150    5.3910 ha        1 447      0.153500
     63 HAH       -13.9880   -2.9280    6.6450 ha        1 447      0.153500
     64 HAX       -15.5710   -4.6240    6.8820 hn        1 447      0.319500
     65 HAF       -16.3740   -8.3980    8.5690 ha        1 447      0.146000
     66 HAG       -17.7290   -5.1350    6.0630 ha        1 447      0.146000
     67 HAD       -18.6740   -8.5980    9.5360 ha        1 447      0.139000
     68 HAC       -20.4900   -7.0700    8.7600 ha        1 447      0.137000
     69 HAE       -20.0110   -5.3470    7.0200 ha        1 447      0.139000
@<TRIPOS>BOND
     1    1    2 1   
     2    1    6 1   
     3    1   39 1   
     4    1   40 1   
     5    2    3 1   
     6    2   41 1   
     7    2   42 1   
     8    3    4 1   
     9    4    5 1   
    10    4   43 1   
    11    4   44 1   
    12    5    6 1   
    13    5   45 1   
    14    5   46 1   
    15    6    7 1   
    16    7    8 1   
    17    7   47 1   
    18    7   48 1   
    19    8    9 1   
    20    8   49 1   
    21    8   50 1   
    22    9   10 1   
    23    9   51 1   
    24    9   52 1   
    25   10   11 1   
    26   11   12 ar  
    27   11   13 ar  
    28   12   18 ar  
    29   12   53 1   
    30   13   14 1   
    31   13   16 ar  
    32   14   15 1   
    33   15   55 1   
    34   15   56 1   
    35   15   57 1   
    36   16   17 ar  
    37   16   54 1   
    38   17   18 ar  
    39   17   22 ar  
    40   18   19 ar  
    41   19   20 ar  
    42   20   21 ar  
    43   20   58 1   
    44   21   22 ar  
    45   22   23 1   
    46   23   24 1   
    47   23   59 1   
    48   24   25 ar  
    49   24   27 ar  
    50   25   26 ar  
    51   25   60 1   
    52   26   29 ar  
    53   26   62 1   
    54   27   28 ar  
    55   27   61 1   
    56   28   29 ar  
    57   28   63 1   
    58   29   30 1   
    59   30   31 1   
    60   30   64 1   
    61   31   32 2   
    62   31   33 1   
    63   33   34 ar  
    64   33   38 ar  
    65   34   35 ar  
    66   34   65 1   
    67   35   36 ar  
    68   35   67 1   
    69   36   37 ar  
    70   36   68 1   
    71   37   38 ar  
    72   37   69 1   
    73   38   66 1   
@<TRIPOS>SUBSTRUCTURE
     1 447         1 TEMP              0 ****  ****    0 ROOT
