@<TRIPOS>MOLECULE
448
   47    49     1     0     0
SMALL
bcc


@<TRIPOS>ATOM
      1 F9          0.2150    0.4900    0.8920 f         1 448     -0.085900
      2 C6          1.5270    0.3110    0.6560 ca        1 448      0.161900
      3 C1          2.4000    0.0030    1.7090 ca        1 448     -0.172000
      4 C2          3.7680   -0.1790    1.4470 ca        1 448      0.150900
      5 F10         4.6040   -0.4760    2.4690 f         1 448     -0.123900
      6 C5          2.0360    0.4350   -0.6700 ca        1 448      0.097900
      7 F8          1.2030    0.7300   -1.6890 f         1 448     -0.095900
      8 C4          3.4050    0.2530   -0.9090 ca        1 448     -0.134000
      9 C3          4.2790   -0.0600    0.1350 ca        1 448     -0.193300
     10 C11         5.7390   -0.1770   -0.1210 c3        1 448     -0.053100
     11 C12         6.2380   -1.6230    0.0170 c3        1 448      0.134500
     12 N20         5.4640   -2.5490   -0.8770 n4        1 448     -0.843600
     13 C15         7.7460   -1.6750   -0.2430 c3        1 448     -0.191400
     14 C16         8.3270   -3.0610    0.0370 c         1 448      0.667100
     15 O22         7.5280   -4.0240    0.1100 o         1 448     -0.643100
     16 N19         9.6940   -3.2240    0.1050 n         1 448     -0.429800
     17 C25        10.5990   -2.0890    0.1140 c3        1 448      0.050000
     18 C26        11.0730   -1.6610    1.5260 c3        1 448      0.029300
     19 C29        10.3300   -4.4400    0.6420 c3        1 448      0.089400
     20 C34         9.4700   -5.6910    0.7360 c3        1 448     -0.092100
     21 C28        10.9530   -4.1380    1.9900 cc        1 448      0.368800
     22 N27        11.3440   -2.8180    2.3560 na        1 448     -0.050400
     23 N39        11.8970   -2.8150    3.5710 nc        1 448     -0.425800
     24 N41        11.2810   -4.9820    2.9920 nd        1 448     -0.600000
     25 C40        11.8660   -4.1300    3.9540 cd        1 448      0.429300
     26 C41        12.3920   -4.6740    5.2810 c3        1 448      0.650600
     27 F29        13.3490   -5.6400    5.1210 f         1 448     -0.212633
     28 F27        12.9650   -3.7310    6.0910 f         1 448     -0.212633
     29 F28        11.4110   -5.2520    6.0430 f         1 448     -0.212633
     30 H1          2.0160   -0.0820    2.7390 ha        1 448      0.196000
     31 H4          3.7850    0.3970   -1.9330 ha        1 448      0.162000
     32 H111        6.2950    0.4380    0.6420 hc        1 448      0.095200
     33 H112        5.9980    0.2280   -1.1350 hc        1 448      0.095200
     34 H12         6.0380   -1.9820    1.0770 hx        1 448      0.133700
     35 H201        4.4610   -2.4000   -0.7280 hn        1 448      0.468467
     36 H202        5.7190   -3.5270   -0.6460 hn        1 448      0.468467
     37 H151        8.2110   -0.9160    0.4460 hc        1 448      0.103200
     38 H152        7.9840   -1.3790   -1.2990 hc        1 448      0.103200
     39 H251       10.1410   -1.1930   -0.3840 h1        1 448      0.083200
     40 H252       11.5040   -2.3860   -0.4960 h1        1 448      0.083200
     41 H261       10.2850   -1.0290    2.0260 h1        1 448      0.085700
     42 H262       12.0100   -1.0410    1.4200 h1        1 448      0.085700
     43 H29        11.1890   -4.6620   -0.0700 h1        1 448      0.096700
     44 H341        8.6660   -5.5810    1.5030 hc        1 448      0.071700
     45 H342        8.9980   -5.9150   -0.2510 hc        1 448      0.071700
     46 H343       10.1270   -6.5490    1.0260 hc        1 448      0.071700
     47 H203        5.6870   -2.3690   -1.8580 hn        1 448      0.468467
@<TRIPOS>BOND
     1    1    2 1   
     2    2    3 ar  
     3    2    6 ar  
     4    3    4 ar  
     5    3   30 1   
     6    4    5 1   
     7    4    9 ar  
     8    6    7 1   
     9    6    8 ar  
    10    8    9 ar  
    11    8   31 1   
    12    9   10 1   
    13   10   11 1   
    14   10   32 1   
    15   10   33 1   
    16   11   12 1   
    17   11   13 1   
    18   11   34 1   
    19   12   35 1   
    20   12   36 1   
    21   12   47 1   
    22   13   14 1   
    23   13   37 1   
    24   13   38 1   
    25   14   15 2   
    26   14   16 1   
    27   16   17 1   
    28   16   19 1   
    29   17   18 1   
    30   17   39 1   
    31   17   40 1   
    32   18   22 1   
    33   18   41 1   
    34   18   42 1   
    35   19   20 1   
    36   19   21 1   
    37   19   43 1   
    38   20   44 1   
    39   20   45 1   
    40   20   46 1   
    41   21   22 1   
    42   21   24 2   
    43   22   23 1   
    44   23   25 2   
    45   24   25 1   
    46   25   26 1   
    47   26   27 1   
    48   26   28 1   
    49   26   29 1   
@<TRIPOS>SUBSTRUCTURE
     1 448         1 TEMP              0 ****  ****    0 ROOT
