@<TRIPOS>MOLECULE
448
   46    45     1     0     0
SMALL
bcc


@<TRIPOS>ATOM
      1 F9         -6.7480   -2.3090   -4.1130 f         1 448     -0.083000
      2 C6         -5.8200   -1.9310   -3.1910 c2        1 448      0.086000
      3 C1         -4.5050   -2.3770   -3.3040 c2        1 448     -0.183000
      4 C2         -3.5740   -2.0530   -2.3190 c1        1 448      0.105000
      5 F10        -2.3420   -2.4890   -2.4160 f         1 448     -0.095000
      6 C5         -6.2030   -1.1560   -2.0890 c1        1 448      0.046000
      7 F8         -7.4520   -0.7010   -1.9990 f         1 448     -0.086000
      8 C4         -5.2590   -0.8290   -1.0950 c2        1 448     -0.121000
      9 C3         -3.9610   -1.2700   -1.2050 c1        1 448     -0.099000
     10 C11        -2.9360   -0.9860   -0.0510 c3        1 448     -0.126000
     11 C12        -2.0480    0.1720   -0.4500 c3        1 448     -0.012000
     12 N20        -2.6430    1.3890   -0.0460 n3        1 448     -0.353000
     13 C15        -0.6550    0.0270    0.2300 c3        1 448     -0.176000
     14 C16         0.3710    0.8850   -0.5260 c2        1 448      0.316000
     15 O22         0.0070    1.6350   -1.3590 o         1 448     -0.368000
     16 N19         1.7820    0.6780   -0.3070 n         1 448     -0.352000
     17 C25         2.7180    1.3450   -1.0590 c3        1 448     -0.035000
     18 C26         3.7460    2.0650   -0.3260 c3        1 448     -0.018000
     19 C29         2.2110   -0.1660    0.6290 c3        1 448      0.113000
     20 C34         1.0400   -0.3340    1.7120 c3        1 448     -0.235000
     21 C28         3.5550    0.2540    1.4100 c2        1 448     -0.054000
     22 N27         4.2410    1.4130    0.9510 n3        1 448     -0.132000
     23 N39         5.2870    1.6260    1.7610 n2        1 448     -0.003000
     24 N41         4.2010   -0.2060    2.4820 n2        1 448     -0.094000
     25 C40         5.2910    0.6370    2.7230 c1        1 448     -0.206000
     26 C41         6.2930    0.5010    3.8650 c2        1 448      0.530000
     27 F29         6.3360   -0.7550    4.2630 f         1 448     -0.150333
     28 F27         7.5160    0.8810    3.4430 f         1 448     -0.150333
     29 F28         5.9170    1.2680    4.8730 f         1 448     -0.150333
     30 H1         -4.2510   -3.0110   -4.0490 ha        1 448      0.172000
     31 H4         -5.5220   -0.2980   -0.3390 ha        1 448      0.169000
     32 H111       -3.4330   -0.7550    0.7920 hc        1 448      0.105500
     33 H112       -2.3930   -1.7720    0.0990 hc        1 448      0.105500
     34 H12        -1.9330    0.1720   -1.4410 h1        1 448      0.081000
     35 H201       -3.5580    1.3630   -0.2240 hn        1 448      0.159500
     36 H202       -2.2560    2.0940   -0.5120 hn        1 448      0.159500
     37 H151       -0.3690   -0.9330    0.2080 hc        1 448      0.117500
     38 H152       -0.7120    0.3320    1.1630 hc        1 448      0.117500
     39 H251        2.2300    2.0140   -1.5950 h1        1 448      0.113500
     40 H252        3.1930    0.6470   -1.6240 h1        1 448      0.113500
     41 H261        4.5120    2.1430   -0.9150 h1        1 448      0.125000
     42 H262        3.3550    2.9390   -0.0720 h1        1 448      0.125000
     43 H29         2.3610   -1.0360    0.2050 h1        1 448      0.130000
     44 H341        0.4220   -1.0370    1.4200 hc        1 448      0.096667
     45 H342        1.4340   -0.5850    2.5970 hc        1 448      0.096667
     46 H343        0.5540    0.5090    1.7990 hc        1 448      0.096667
@<TRIPOS>BOND
     1    1    2 1   
     2    2    3 1   
     3    2    6 1   
     4    3    4 1   
     5    3   30 1   
     6    4    5 1   
     7    6    8 1   
     8    8    9 1   
     9    8   31 1   
    10    9   10 1   
    11   10   11 1   
    12   10   32 1   
    13   10   33 1   
    14   11   12 1   
    15   11   13 1   
    16   11   34 1   
    17   12   35 1   
    18   12   36 1   
    19   13   14 1   
    20   13   37 1   
    21   13   38 1   
    22   14   15 1   
    23   14   16 1   
    24   16   17 1   
    25   16   19 1   
    26   17   18 1   
    27   17   39 1   
    28   17   40 1   
    29   18   22 1   
    30   18   41 1   
    31   18   42 1   
    32   19   20 1   
    33   19   21 1   
    34   19   43 1   
    35   20   44 1   
    36   20   45 1   
    37   20   46 1   
    38   21   22 1   
    39   21   24 1   
    40   22   23 1   
    41   23   25 1   
    42   24   25 1   
    43   26   27 1   
    44   26   28 1   
    45   26   29 1   
@<TRIPOS>SUBSTRUCTURE
     1 448         1 TEMP              0 ****  ****    0 ROOT
