@<TRIPOS>MOLECULE
448
   46    48     1     0     0
SMALL
bcc


@<TRIPOS>ATOM
      1 F9         -8.3930   -1.1170   -0.9960 f         1 448     -0.114900
      2 C6         -7.2030   -0.7930   -0.4480 ca        1 448      0.123900
      3 C1         -6.3710   -1.7920    0.0730 ca        1 448     -0.179000
      4 C2         -5.1350   -1.4440    0.6410 ca        1 448      0.144900
      5 F10        -4.3480   -2.4250    1.1440 f         1 448     -0.126900
      6 C5         -6.7900    0.5660   -0.3950 ca        1 448      0.084900
      7 F8         -7.5880    1.5370   -0.8920 f         1 448     -0.119900
      8 C4         -5.5510    0.8930    0.1770 ca        1 448     -0.132000
      9 C3         -4.7140   -0.0960    0.6950 ca        1 448     -0.106300
     10 C11        -3.4090    0.2750    1.3010 c3        1 448     -0.081100
     11 C12        -2.2880    0.3660    0.2420 c3        1 448      0.175500
     12 N20        -2.5230    1.3150   -0.8240 n3        1 448     -0.901800
     13 C15        -0.9750    0.6730    0.9850 c3        1 448     -0.143400
     14 C16         0.2100    0.4140    0.0680 c         1 448      0.668100
     15 O22         0.1880   -0.5300   -0.7360 o         1 448     -0.554100
     16 N19         1.2960    1.3150    0.1390 n         1 448     -0.464800
     17 C25         1.7620    1.7370    1.4420 c3        1 448      0.066000
     18 C26         2.9000    0.8670    2.0410 c3        1 448      0.019300
     19 C29         2.3530    1.3250   -0.8710 c3        1 448      0.084400
     20 C34         1.9900    0.7590   -2.2380 c3        1 448     -0.092100
     21 C28         3.6240    0.6690   -0.3640 cc        1 448      0.390800
     22 N27         3.8760    0.5160    1.0280 na        1 448     -0.042400
     23 N39         5.0680   -0.0480    1.2300 nc        1 448     -0.445800
     24 N41         4.6910    0.2050   -1.0530 nd        1 448     -0.622000
     25 C40         5.5650   -0.2300   -0.0350 cd        1 448      0.416300
     26 C41         6.9240   -0.8350   -0.3620 c3        1 448      0.649600
     27 F29         7.7530    0.0270   -1.0320 f         1 448     -0.222967
     28 F27         7.6500   -1.2370    0.7290 f         1 448     -0.222967
     29 F28         6.8470   -1.9480   -1.1580 f         1 448     -0.222967
     30 H1         -6.6860   -2.8460    0.0360 ha        1 448      0.175000
     31 H4         -5.2470    1.9510    0.2190 ha        1 448      0.156000
     32 H111       -3.5040    1.2570    1.8360 hc        1 448      0.062700
     33 H112       -3.1170   -0.4990    2.0620 hc        1 448      0.062700
     34 H12        -2.1800   -0.6540   -0.2400 h1        1 448      0.096700
     35 H201       -3.2840    1.0110   -1.4000 hn        1 448      0.353800
     36 H202       -2.7260    2.2250   -0.4620 hn        1 448      0.353800
     37 H151       -0.9940    1.7270    1.3630 hc        1 448      0.066700
     38 H152       -0.8820   -0.0200    1.8620 hc        1 448      0.066700
     39 H251        2.1360    2.7970    1.3440 h1        1 448      0.071700
     40 H252        0.9210    1.7300    2.1880 h1        1 448      0.071700
     41 H261        3.4010    1.4440    2.8680 h1        1 448      0.078200
     42 H262        2.4740   -0.0820    2.4760 h1        1 448      0.078200
     43 H29         2.6130    2.4250   -1.0100 h1        1 448      0.076700
     44 H341        0.9940    1.1430   -2.5660 hc        1 448      0.066700
     45 H342        2.7690    1.0810   -2.9720 hc        1 448      0.066700
     46 H343        1.9510   -0.3570   -2.2180 hc        1 448      0.066700
@<TRIPOS>BOND
     1    1    2 1   
     2    2    3 ar  
     3    2    6 ar  
     4    3    4 ar  
     5    3   30 1   
     6    4    5 1   
     7    4    9 ar  
     8    6    7 1   
     9    6    8 ar  
    10    8    9 ar  
    11    8   31 1   
    12    9   10 1   
    13   10   11 1   
    14   10   32 1   
    15   10   33 1   
    16   11   12 1   
    17   11   13 1   
    18   11   34 1   
    19   12   35 1   
    20   12   36 1   
    21   13   14 1   
    22   13   37 1   
    23   13   38 1   
    24   14   15 2   
    25   14   16 1   
    26   16   17 1   
    27   16   19 1   
    28   17   18 1   
    29   17   39 1   
    30   17   40 1   
    31   18   22 1   
    32   18   41 1   
    33   18   42 1   
    34   19   20 1   
    35   19   21 1   
    36   19   43 1   
    37   20   44 1   
    38   20   45 1   
    39   20   46 1   
    40   21   22 1   
    41   21   24 2   
    42   22   23 1   
    43   23   25 2   
    44   24   25 1   
    45   25   26 1   
    46   26   27 1   
    47   26   28 1   
    48   26   29 1   
@<TRIPOS>SUBSTRUCTURE
     1 448         1 TEMP              0 ****  ****    0 ROOT
