@<TRIPOS>MOLECULE
448
   47    49     1     0     0
SMALL
bcc


@<TRIPOS>ATOM
      1 F9          0.2190    0.4960    0.8920 f         1 448     -0.085900
      2 C6          1.5310    0.3170    0.6560 ca        1 448      0.161900
      3 C1          2.4040    0.0080    1.7080 ca        1 448     -0.172000
      4 C2          3.7710   -0.1750    1.4460 ca        1 448      0.150900
      5 F10         4.6070   -0.4730    2.4690 f         1 448     -0.123900
      6 C5          2.0400    0.4410   -0.6710 ca        1 448      0.097900
      7 F8          1.2070    0.7370   -1.6890 f         1 448     -0.095900
      8 C4          3.4090    0.2590   -0.9090 ca        1 448     -0.134000
      9 C3          4.2830   -0.0560    0.1340 ca        1 448     -0.193300
     10 C11         5.7420   -0.1740   -0.1210 c3        1 448     -0.053100
     11 C12         6.2400   -1.6210    0.0160 c3        1 448      0.134500
     12 N20         5.4650   -2.5440   -0.8800 n4        1 448     -0.843600
     13 C15         7.7480   -1.6740   -0.2440 c3        1 448     -0.191400
     14 C16         8.3270   -3.0600    0.0360 c         1 448      0.667100
     15 O22         7.5280   -4.0230    0.1070 o         1 448     -0.643100
     16 N19         9.6940   -3.2250    0.1040 n         1 448     -0.429800
     17 C25        10.6000   -2.0910    0.1160 c3        1 448      0.050000
     18 C26        11.0740   -1.6640    1.5280 c3        1 448      0.029300
     19 C29        10.3280   -4.4420    0.6420 c3        1 448      0.089400
     20 C34         9.4670   -5.6920    0.7330 c3        1 448     -0.092100
     21 C28        10.9500   -4.1410    1.9910 cc        1 448      0.368800
     22 N27        11.3420   -2.8220    2.3580 na        1 448     -0.050400
     23 N39        11.8930   -2.8200    3.5740 nc        1 448     -0.425800
     24 N41        11.2750   -4.9870    2.9930 nd        1 448     -0.600000
     25 C40        11.8590   -4.1360    3.9560 cd        1 448      0.429300
     26 C41        12.3830   -4.6810    5.2840 c3        1 448      0.650600
     27 F29        13.3400   -5.6470    5.1250 f         1 448     -0.212633
     28 F27        12.9550   -3.7390    6.0960 f         1 448     -0.212633
     29 F28        11.4000   -5.2580    6.0430 f         1 448     -0.212633
     30 H1          2.0190   -0.0780    2.7390 ha        1 448      0.196000
     31 H4          3.7890    0.4030   -1.9340 ha        1 448      0.162000
     32 H111        6.0020    0.2320   -1.1350 hc        1 448      0.095200
     33 H112        6.2990    0.4410    0.6410 hc        1 448      0.095200
     34 H12         6.0390   -1.9800    1.0750 hx        1 448      0.133700
     35 H201        5.7190   -3.5230   -0.6490 hn        1 448      0.468467
     36 H202        4.4620   -2.3940   -0.7310 hn        1 448      0.468467
     37 H151        7.9870   -1.3780   -1.3000 hc        1 448      0.103200
     38 H152        8.2130   -0.9160    0.4460 hc        1 448      0.103200
     39 H251       10.1440   -1.1940   -0.3820 h1        1 448      0.083200
     40 H252       11.5050   -2.3880   -0.4940 h1        1 448      0.083200
     41 H261       12.0110   -1.0460    1.4230 h1        1 448      0.085700
     42 H262       10.2860   -1.0310    2.0280 h1        1 448      0.085700
     43 H29        11.1880   -4.6640   -0.0700 h1        1 448      0.096700
     44 H341        8.6630   -5.5820    1.5000 hc        1 448      0.071700
     45 H342       10.1230   -6.5510    1.0240 hc        1 448      0.071700
     46 H343        8.9960   -5.9140   -0.2540 hc        1 448      0.071700
     47 H203        5.6900   -2.3640   -1.8600 hn        1 448      0.468467
@<TRIPOS>BOND
     1    1    2 1   
     2    2    3 ar  
     3    2    6 ar  
     4    3    4 ar  
     5    3   30 1   
     6    4    5 1   
     7    4    9 ar  
     8    6    7 1   
     9    6    8 ar  
    10    8    9 ar  
    11    8   31 1   
    12    9   10 1   
    13   10   11 1   
    14   10   32 1   
    15   10   33 1   
    16   11   12 1   
    17   11   13 1   
    18   11   34 1   
    19   12   35 1   
    20   12   36 1   
    21   12   47 1   
    22   13   14 1   
    23   13   37 1   
    24   13   38 1   
    25   14   15 2   
    26   14   16 1   
    27   16   17 1   
    28   16   19 1   
    29   17   18 1   
    30   17   39 1   
    31   17   40 1   
    32   18   22 1   
    33   18   41 1   
    34   18   42 1   
    35   19   20 1   
    36   19   21 1   
    37   19   43 1   
    38   20   44 1   
    39   20   45 1   
    40   20   46 1   
    41   21   22 1   
    42   21   24 2   
    43   22   23 1   
    44   23   25 2   
    45   24   25 1   
    46   25   26 1   
    47   26   27 1   
    48   26   28 1   
    49   26   29 1   
@<TRIPOS>SUBSTRUCTURE
     1 448         1 TEMP              0 ****  ****    0 ROOT
