@<TRIPOS>MOLECULE
448
   47    49     1     0     0
SMALL
bcc


@<TRIPOS>ATOM
      1 F9          0.2150    0.4900    0.8680 f         1 448     -0.085900
      2 C6          1.5280    0.3100    0.6350 ca        1 448      0.161900
      3 C1          2.3990    0.0080    1.6910 ca        1 448     -0.172000
      4 C2          3.7670   -0.1760    1.4320 ca        1 448      0.150900
      5 F10         4.6010   -0.4690    2.4570 f         1 448     -0.123900
      6 C5          2.0390    0.4280   -0.6910 ca        1 448      0.097900
      7 F8          1.2070    0.7180   -1.7120 f         1 448     -0.095900
      8 C4          3.4080    0.2460   -0.9260 ca        1 448     -0.134000
      9 C3          4.2800   -0.0630    0.1200 ca        1 448     -0.193300
     10 C11         5.7400   -0.1810   -0.1320 c3        1 448     -0.053100
     11 C12         6.2390   -1.6270    0.0130 c3        1 448      0.134500
     12 N20         5.4670   -2.5560   -0.8790 nz        1 448     -0.843600
     13 C15         7.7480   -1.6800   -0.2450 c3        1 448     -0.191400
     14 C16         8.3280   -3.0640    0.0420 c         1 448      0.667100
     15 O22         7.5290   -4.0270    0.1180 o         1 448     -0.643100
     16 N19         9.6950   -3.2280    0.1120 n         1 448     -0.429800
     17 C25        10.6000   -2.0930    0.1190 c3        1 448      0.050000
     18 C26        11.0720   -1.6590    1.5300 c3        1 448      0.029300
     19 C29        10.3300   -4.4410    0.6550 c3        1 448      0.089400
     20 C34         9.4700   -5.6920    0.7520 c3        1 448     -0.092100
     21 C28        10.9520   -4.1340    2.0030 cc        1 448      0.368800
     22 N27        11.3420   -2.8130    2.3640 na        1 448     -0.050400
     23 N39        11.8940   -2.8050    3.5800 nc        1 448     -0.425800
     24 N41        11.2790   -4.9750    3.0080 nd        1 448     -0.600000
     25 C40        11.8620   -4.1190    3.9670 cd        1 448      0.429300
     26 C41        12.3870   -4.6590    5.2970 c3        1 448      0.650600
     27 F29        13.3440   -5.6250    5.1420 f         1 448     -0.212633
     28 F27        12.9580   -3.7130    6.1050 f         1 448     -0.212633
     29 F28        11.4050   -5.2340    6.0590 f         1 448     -0.212633
     30 H1          2.0120   -0.0730    2.7210 ha        1 448      0.196000
     31 H4          3.7900    0.3840   -1.9510 ha        1 448      0.162000
     32 H111        6.0010    0.2200   -1.1480 hc        1 448      0.095200
     33 H112        6.2950    0.4380    0.6290 hc        1 448      0.095200
     34 H12         6.0380   -1.9810    1.0740 hx        1 448      0.133700
     35 H201        5.7210   -3.5330   -0.6430 hn        1 448      0.468467
     36 H202        4.4630   -2.4060   -0.7310 hn        1 448      0.468467
     37 H151        7.9880   -1.3880   -1.3020 hc        1 448      0.103200
     38 H152        8.2110   -0.9180    0.4420 hc        1 448      0.103200
     39 H251       10.1430   -1.1980   -0.3830 h1        1 448      0.083200
     40 H252       11.5060   -2.3910   -0.4890 h1        1 448      0.083200
     41 H261       12.0090   -1.0400    1.4220 h1        1 448      0.085700
     42 H262       10.2830   -1.0250    2.0270 h1        1 448      0.085700
     43 H29        11.1910   -4.6660   -0.0560 h1        1 448      0.096700
     44 H341       10.1270   -6.5490    1.0460 hc        1 448      0.071700
     45 H342        8.9990   -5.9190   -0.2350 hc        1 448      0.071700
     46 H343        8.6660   -5.5800    1.5180 hc        1 448      0.071700
     47 H203        5.6920   -2.3800   -1.8600 hn        1 448      0.468467
@<TRIPOS>BOND
     1    1    2 1   
     2    2    3 ar  
     3    2    6 ar  
     4    3    4 ar  
     5    3   30 1   
     6    4    5 1   
     7    4    9 ar  
     8    6    7 1   
     9    6    8 ar  
    10    8    9 ar  
    11    8   31 1   
    12    9   10 1   
    13   10   11 1   
    14   10   32 1   
    15   10   33 1   
    16   11   12 1   
    17   11   13 1   
    18   11   34 1   
    19   12   35 1   
    20   12   36 1   
    21   12   47 1   
    22   13   14 1   
    23   13   37 1   
    24   13   38 1   
    25   14   15 2   
    26   14   16 1   
    27   16   17 1   
    28   16   19 1   
    29   17   18 1   
    30   17   39 1   
    31   17   40 1   
    32   18   22 1   
    33   18   41 1   
    34   18   42 1   
    35   19   20 1   
    36   19   21 1   
    37   19   43 1   
    38   20   44 1   
    39   20   45 1   
    40   20   46 1   
    41   21   22 1   
    42   21   24 2   
    43   22   23 1   
    44   23   25 2   
    45   24   25 1   
    46   25   26 1   
    47   26   27 1   
    48   26   28 1   
    49   26   29 1   
@<TRIPOS>SUBSTRUCTURE
     1 448         1 TEMP              0 ****  ****    0 ROOT
