@<TRIPOS>MOLECULE
449
   26    22     1     0     0
SMALL
bcc


@<TRIPOS>ATOM
      1 CAA        -0.2960    0.7520   -1.0180 c2        1 449     -0.255100
      2 CAB         3.2490    1.3840   -0.7190 c2        1 449      0.415100
      3 CAC        -0.1130   -3.6780    3.4980 c3        1 449     -0.112800
      4 CAD        -0.2050   -0.2680    1.3730 c2        1 449     -0.184300
      5 CAE        -0.2450    0.2450    0.1760 c1        1 449     -0.041800
      6 CAH        -4.1380   -2.2370    2.3440 c1        1 449      0.882000
      7 OAI        -2.9940   -1.9720    2.5350 o         1 449     -0.440500
      8 OAJ        -5.2810   -2.5030    2.1530 o         1 449     -0.440500
      9 NAK         4.1250    1.2280    0.1940 n2        1 449     -0.599900
     10 HAA         3.4180    1.8050   -1.7290 h4        1 449     -0.015200
     11 HAAA        2.2070    1.0740   -0.5000 h4        1 449     -0.015200
     12 HAB        -0.6000    1.7930   -1.2020 ha        1 449      0.126500
     13 HABA       -0.0450    0.1690   -1.9150 ha        1 449      0.126500
     14 HAC        -0.2950   -4.6190    2.9330 hc        1 449      0.028450
     15 HACA        0.9640   -3.4120    3.4340 hc        1 449      0.028450
     16 HAD        -0.3960   -3.8250    4.5630 hc        1 449      0.028450
     17 HADA       -0.7260   -2.8580    3.0600 hc        1 449      0.028450
     18 HAE        -1.1010   -0.7640    1.7950 ha        1 449      0.145000
     19 HAF         6.1250    0.6830    0.1590 h1        1 449      0.043367
     20 HAFA        5.7340    2.0330   -1.0030 h1        1 449      0.043367
     21 HAFB        5.7620    2.3510    0.7930 h1        1 449      0.043367
     22 HAG         1.8910    0.1340    1.7220 hc        1 449      0.049700
     23 HAGA        0.7860    0.4150    3.1340 hc        1 449      0.049700
     24 HAGB        1.1920   -1.2790    2.6290 hc        1 449      0.049700
     25 CAF         5.4920    1.5970    0.0050 c3        1 449      0.083100
     26 CAG         0.9830   -0.2450    2.2520 c3        1 449     -0.063900
@<TRIPOS>BOND
     1    1    5 2   
     2    1   12 1   
     3    1   13 1   
     4    2    9 2   
     5    2   10 1   
     6    2   11 1   
     7    3   14 1   
     8    3   15 1   
     9    3   16 1   
    10    3   17 1   
    11    4    5 2   
    12    4   18 1   
    13    4   26 1   
    14    6    7 2   
    15    6    8 2   
    16    9   25 1   
    17   19   25 1   
    18   20   25 1   
    19   21   25 1   
    20   22   26 1   
    21   23   26 1   
    22   24   26 1   
@<TRIPOS>SUBSTRUCTURE
     1 449         1 TEMP              0 ****  ****    0 ROOT
