@<TRIPOS>MOLECULE
449
   26    22     1     0     0
SMALL
bcc


@<TRIPOS>ATOM
      1 CAA         0.8220   -0.8750   -1.4310 ce        1 449     -0.160700
      2 CAB         2.0470   -0.4060   -1.0810 c2        1 449      0.083000
      3 CAC         3.6120   -2.0910    3.3310 c3        1 449     -0.118300
      4 CAD        -1.3510   -0.5580   -0.0450 c1        1 449     -0.184500
      5 CAE        -0.3430   -0.6970   -0.6790 cg        1 449     -0.151300
      6 CAH        -5.6100    0.1880    0.7300 c1        1 449      0.884000
      7 OAI        -6.7110    0.4170    0.3440 o         1 449     -0.441500
      8 OAJ        -4.5090   -0.0420    1.1190 o         1 449     -0.441500
      9 NAK         2.3230    0.4120    0.0010 nh        1 449     -0.748000
     10 HAA         2.9190   -0.6180   -1.7320 h4        1 449      0.138000
     11 HAAA       -0.0370    0.2000    3.9490 hc        1 449      0.029575
     12 HAB         0.7100   -1.4320   -2.3770 ha        1 449      0.146000
     13 HABA       -0.1610   -0.0090    2.1480 hc        1 449      0.029575
     14 HAC         2.7300   -2.2880    2.6830 hc        1 449      0.029575
     15 HACA        4.5450   -2.2570    2.7500 hc        1 449      0.029575
     16 HAD         3.5810   -1.0380    3.6900 hc        1 449      0.029575
     17 HADA        3.5920   -2.7800    4.2040 hc        1 449      0.029575
     18 HAE        -2.2470   -0.4370    0.5120 ha        1 449      0.171500
     19 HAF         3.7970   -0.4790    1.2640 h1        1 449      0.036700
     20 HAFA        4.4120    0.3540   -0.2400 h1        1 449      0.036700
     21 HAFB        3.7790    1.3410    1.1580 h1        1 449      0.036700
     22 HAG         0.7950    1.3730    2.8430 hc        1 449      0.029575
     23 HAGA        1.5840    0.5030    0.6700 hn        1 449      0.413800
     24 HAGB        1.4170   -0.3280    2.9980 hc        1 449      0.029575
     25 CAF         3.6370    0.3950    0.5700 c3        1 449      0.179100
     26 CAG         0.5040    0.3100    2.9840 c3        1 449     -0.118300
@<TRIPOS>BOND
     1    1    2 2   
     2    1    5 1   
     3    1   12 1   
     4    2    9 1   
     5    2   10 1   
     6    3   14 1   
     7    3   15 1   
     8    3   16 1   
     9    3   17 1   
    10    4    5 3   
    11    4   18 1   
    12    6    7 2   
    13    6    8 2   
    14    9   23 1   
    15    9   25 1   
    16   11   26 1   
    17   13   26 1   
    18   19   25 1   
    19   20   25 1   
    20   21   25 1   
    21   22   26 1   
    22   24   26 1   
@<TRIPOS>SUBSTRUCTURE
     1 449         1 TEMP              0 ****  ****    0 ROOT
