@<TRIPOS>MOLECULE
449
   26    21     1     0     0
SMALL
bcc


@<TRIPOS>ATOM
      1 CAA        -0.2030   -1.5430    0.5550 c1        1 449     -0.058000
      2 CAB         2.7410   -0.8810    0.3030 c1        1 449     -0.222000
      3 CAC         2.5560   -3.1640    2.9710 c3        1 449     -0.277000
      4 CAD        -2.7460   -1.7940    0.6950 c1        1 449     -0.058000
      5 CAE        -1.4050   -1.7370    0.6270 c1        1 449     -0.259000
      6 CAH        -4.1030    0.0710    0.5290 c1        1 449      0.467000
      7 OAI        -4.3090   -0.0260   -0.6450 o         1 449     -0.268000
      8 OAJ        -4.0690    0.3840    1.6830 o         1 449     -0.268000
      9 NAK         3.1360    0.3290    0.5480 n7        1 449     -0.168000
     10 HAA         3.4880   -1.6130   -0.0610 ha        1 449      0.068000
     11 HAAA        0.1800    0.9070    1.3480 hc        1 449      0.069375
     12 HAB        -0.6620    2.3380    2.0790 hc        1 449      0.069375
     13 HABA        0.8710   -1.3610    0.4870 ha        1 449      0.203500
     14 HAC         3.6090   -3.5180    2.9280 hc        1 449      0.069375
     15 HACA        2.3460   -2.5080    2.0960 hc        1 449      0.069375
     16 HAD         1.8710   -4.0400    2.9490 hc        1 449      0.069375
     17 HADA        2.3950   -2.5930    3.9120 hc        1 449      0.069375
     18 HAE        -3.2990   -2.7300    0.8110 ha        1 449      0.203500
     19 HAF         4.8360    1.2500    1.3950 h1        1 449      0.095000
     20 HAFA        5.1710    0.0810    0.0340 h1        1 449      0.095000
     21 HAFB        4.4590    1.7220   -0.3260 h1        1 449      0.095000
     22 HAG         0.6720    2.5960    0.8780 hc        1 449      0.069375
     23 HAGA        2.4540    0.9880    0.8770 hn        1 449      0.242000
     24 HAGB        1.0520    1.9690    2.5420 hc        1 449      0.069375
     25 CAF         4.4670    0.8710    0.4050 c3        1 449     -0.172000
     26 CAG         0.3140    1.9520    1.7110 c3        1 449     -0.277000
@<TRIPOS>BOND
     1    1    5 1   
     2    1   13 1   
     3    2    9 1   
     4    2   10 1   
     5    3   14 1   
     6    3   15 1   
     7    3   16 1   
     8    3   17 1   
     9    4    5 1   
    10    4   18 1   
    11    6    7 1   
    12    6    8 1   
    13    9   23 1   
    14    9   25 1   
    15   11   26 1   
    16   12   26 1   
    17   19   25 1   
    18   20   25 1   
    19   21   25 1   
    20   22   26 1   
    21   24   26 1   
@<TRIPOS>SUBSTRUCTURE
     1 449         1 TEMP              0 ****  ****    0 ROOT
