@<TRIPOS>MOLECULE
44A
   31    33     1     0     0
SMALL
bcc


@<TRIPOS>ATOM
      1 N1         -0.5090   -0.3170    0.1980 n1        1 44A     -1.066500
      2 C2         -0.4910   -0.1160   -0.9690 c1        1 44A      0.435800
      3 N3          2.4960    0.3290    0.8190 n2        1 44A     -0.798100
      4 C4          1.9330    0.4200    1.9720 cc        1 44A      0.543100
      5 C5          0.5230    0.0060    2.4080 cc        1 44A     -0.048700
      6 C6         -0.4680   -0.5140    1.5500 cf        1 44A      0.218700
      7 N6         -1.5790   -1.2610    2.1500 n4        1 44A     -0.652400
      8 N7          0.4250    0.2270    3.7320 na        1 44A     -0.282300
      9 C8          1.5820    1.0030    4.2280 cc        1 44A      0.259100
     10 N9          2.5480    1.0180    3.1380 na        1 44A     -0.296300
     11 OAL         1.9330    0.6470    5.5220 os        1 44A     -0.484700
     12 OAN         6.1890    0.9710    5.8990 oh        1 44A     -0.588800
     13 OAO         5.7940    2.3670    3.8000 oh        1 44A     -0.569800
     14 OBV         4.2290   -0.4870    3.9270 os        1 44A     -0.415600
     15 CCC         2.7780   -0.3980    5.8430 c         1 44A      0.669600
     16 CCK         4.8010    1.0560    5.6470 c3        1 44A      0.083100
     17 CCL         4.6020    1.8530    4.3310 c3        1 44A      0.144100
     18 CCM         4.2080   -0.3440    5.3430 c3        1 44A      0.018100
     19 CCN         3.9650    0.8150    3.3430 c3        1 44A      0.164800
     20 H2          1.9350   -0.0020    0.0680 hn        1 44A      0.410400
     21 HN6        -2.0310   -1.8610    1.4570 hn        1 44A      0.430467
     22 HN6A       -2.2780   -0.6180    2.5340 hn        1 44A      0.430467
     23 H8         -0.3930    0.1450    4.2820 hn        1 44A      0.273700
     24 HOAN        6.2910    0.6020    6.7840 ho        1 44A      0.413000
     25 HOAO        6.4570    1.6620    3.8090 ho        1 44A      0.420000
     26 O5          2.3150   -1.2310    6.6190 o         1 44A     -0.582500
     27 HCK         4.2660    1.5500    6.4990 h1        1 44A      0.076700
     28 HCL         3.9400    2.7460    4.4930 h1        1 44A      0.121700
     29 HCM         4.8180   -1.1880    5.7550 h1        1 44A      0.108700
     30 HCN         4.5130    0.8100    2.3570 h2        1 44A      0.133700
     31 H63        -1.2090   -1.8440    2.9060 hn        1 44A      0.430467
@<TRIPOS>BOND
     1    1    2 3   
     2    1    6 1   
     3    3    4 2   
     4    3   20 1   
     5    4    5 1   
     6    4   10 1   
     7    5    6 2   
     8    5    8 1   
     9    6    7 1   
    10    7   21 1   
    11    7   22 1   
    12    7   31 1   
    13    8    9 2   
    14    8   23 1   
    15    9   10 1   
    16    9   11 1   
    17   10   19 1   
    18   11   15 1   
    19   12   16 1   
    20   12   24 1   
    21   13   17 1   
    22   13   25 1   
    23   14   18 1   
    24   14   19 1   
    25   15   18 1   
    26   15   26 2   
    27   16   17 1   
    28   16   18 1   
    29   16   27 1   
    30   17   19 1   
    31   17   28 1   
    32   18   29 1   
    33   19   30 1   
@<TRIPOS>SUBSTRUCTURE
     1 44A         1 TEMP              0 ****  ****    0 ROOT
