@<TRIPOS>MOLECULE
44A
   30    24     1     0     0
SMALL
bcc


@<TRIPOS>ATOM
      1 N1         -2.4960    0.1150   -3.3890 n1        1 44A     -0.273000
      2 C2         -1.1470    0.2480   -3.3860 c1        1 44A     -0.010000
      3 N3         -0.4690    0.2990   -2.2050 n1        1 44A     -0.195000
      4 C4         -1.1420    0.2170   -1.0350 c1        1 44A     -0.081500
      5 C5         -2.4880    0.0850   -1.0380 c1        1 44A     -0.081500
      6 C6         -3.1680    0.0340   -2.2270 c1        1 44A      0.190000
      7 N6         -4.5330   -0.0150   -2.4250 n3        1 44A     -0.336000
      8 N7         -2.9070    0.0260    0.2560 n1        1 44A     -0.171500
      9 C8         -1.8210    0.1220    1.0530 c1        1 44A     -0.001000
     10 N9         -0.7250    0.2410    0.2560 n1        1 44A     -0.171500
     11 OAL         2.8880   -1.4570   -1.4080 o         1 44A     -0.555500
     12 OAN         3.0010    1.1030    2.5030 oh        1 44A     -0.329000
     13 OAO         0.4080    0.3250    3.1060 oh        1 44A     -0.329000
     14 OBV         1.6460    0.7650   -0.1490 os        1 44A     -0.271000
     15 CCC         3.1320   -1.3280   -0.1700 c1        1 44A      0.335000
     16 CCK         2.5330   -0.0620    1.7670 c3        1 44A     -0.022000
     17 CCL         0.9200   -0.0960    1.7780 c3        1 44A     -0.022000
     18 CCM         2.9060    0.0240    0.5190 c2        1 44A      0.020500
     19 CCN         0.5300    0.7240    0.8800 c2        1 44A      0.020500
     20 H2         -0.8270    0.2430   -4.3000 ha        1 44A      0.171000
     21 HN6        -4.8700    0.0520   -3.2630 hn        1 44A      0.213500
     22 HN6A       -5.1050   -0.0600   -1.6970 hn        1 44A      0.213500
     23 H8         -1.8130    0.0200    2.0050 DU        1 44A      0.282000
     24 HOAN        3.6900    0.8940    2.9630 ho        1 44A      0.200500
     25 HOAO        0.4840   -0.3310    3.6660 ho        1 44A      0.200500
     26 O5          3.6650   -2.3120    0.4930 o         1 44A     -0.555500
     27 HCK         2.9050   -0.9150    2.1850 h1        1 44A      0.158000
     28 HCL         0.5900   -1.0370    1.5580 h1        1 44A      0.158000
     29 HCM         3.8200    0.4510    0.4320 h4        1 44A      0.122000
     30 HCN         0.3940    1.6230    1.2730 h4        1 44A      0.122000
@<TRIPOS>BOND
     1    1    6 1   
     2    2    3 1   
     3    2   20 1   
     4    4    5 1   
     5    6    7 1   
     6    7   21 1   
     7    7   22 1   
     8    8    9 1   
     9    9   10 1   
    10   11   15 1   
    11   12   16 1   
    12   12   24 1   
    13   13   17 1   
    14   13   25 1   
    15   14   18 1   
    16   14   19 1   
    17   15   26 1   
    18   16   17 1   
    19   16   18 1   
    20   16   27 1   
    21   17   19 1   
    22   17   28 1   
    23   18   29 1   
    24   19   30 1   
@<TRIPOS>SUBSTRUCTURE
     1 44A         1 TEMP              0 ****  ****    0 ROOT
