@<TRIPOS>MOLECULE
44A
   30    31     1     0     0
SMALL
bcc


@<TRIPOS>ATOM
      1 N1         -0.1580   -1.1690    0.4710 n1        1 44A     -1.111500
      2 C2          0.0410   -1.6100   -0.6070 c1        1 44A      0.403800
      3 N3          2.6110    0.1650    0.9090 n2        1 44A     -0.788100
      4 C4          1.9680    0.4000    1.9970 ce        1 44A      0.536100
      5 C5          0.5280    0.0790    2.4170 ce        1 44A     -0.078700
      6 C6         -0.4170   -0.6510    1.7400 cf        1 44A      0.570700
      7 N6         -1.6920   -0.8840    2.3430 nh        1 44A     -0.779600
      8 N7          0.3500    0.6930    3.6760 nh        1 44A     -0.282600
      9 C8          1.5470    1.2280    4.1400 c1        1 44A      0.152000
     10 N9          2.5000    1.1380    3.1260 nh        1 44A     -0.287500
     11 OAL         2.1160   -0.9170    5.1700 o         1 44A     -0.827300
     12 OAN         5.7790    1.4010    6.3510 oh        1 44A     -0.624800
     13 OAO         5.4040    2.8840    4.2930 oh        1 44A     -0.597800
     14 OBV         4.4390   -0.1210    3.7200 os        1 44A     -0.413600
     15 CCC         3.2590   -1.1020    5.6780 c         1 44A      0.915600
     16 CCK         4.5130    1.1070    5.7750 c3        1 44A      0.090100
     17 CCL         4.2790    2.0990    4.6130 c3        1 44A      0.133100
     18 CCM         4.4700   -0.2980    5.1440 c3        1 44A     -0.024900
     19 CCN         3.9240    1.1750    3.3970 c3        1 44A      0.230800
     20 H2          2.1200   -0.3320    0.2020 hn        1 44A      0.400400
     21 HN6        -1.7250   -1.8040    2.7410 hn        1 44A      0.362800
     22 HN6A       -2.4420   -0.7690    1.6900 hn        1 44A      0.362800
     23 H8         -0.3580    0.3960    4.3020 hn        1 44A      0.315700
     24 HOAN        5.9830    0.6620    6.9360 ho        1 44A      0.413000
     25 HOAO        6.1860    2.3260    4.3890 ho        1 44A      0.414000
     26 O5          3.4980   -1.8920    6.6310 o         1 44A     -0.827300
     27 HCK         3.7140    1.2170    6.5550 h1        1 44A      0.080700
     28 HCL         3.4630    2.8300    4.8520 h1        1 44A      0.104700
     29 HCM         5.4160   -0.8720    5.3390 h1        1 44A      0.064700
     30 HCN         4.4650    1.4890    2.4590 h2        1 44A      0.095700
@<TRIPOS>BOND
     1    1    2 3   
     2    1    6 1   
     3    3    4 2   
     4    3   20 1   
     5    4    5 1   
     6    4   10 1   
     7    5    6 2   
     8    5    8 1   
     9    6    7 1   
    10    7   21 1   
    11    7   22 1   
    12    8    9 2   
    13    8   23 1   
    14    9   10 2   
    15   10   19 1   
    16   11   15 1   
    17   12   16 1   
    18   12   24 1   
    19   13   17 1   
    20   13   25 1   
    21   14   18 1   
    22   14   19 1   
    23   15   18 1   
    24   15   26 1   
    25   16   17 1   
    26   16   18 1   
    27   16   27 1   
    28   17   19 1   
    29   17   28 1   
    30   18   29 1   
    31   19   30 1   
@<TRIPOS>SUBSTRUCTURE
     1 44A         1 TEMP              0 ****  ****    0 ROOT
