@<TRIPOS>MOLECULE
44A
   30    32     1     0     0
SMALL
bcc


@<TRIPOS>ATOM
      1 N1         -4.6690   -0.4350    0.0390 nb        1 44A     -0.798000
      2 C2         -3.8650   -1.4760    0.3930 ca        1 44A      0.650900
      3 N3         -2.5220   -1.5380    0.5240 nb        1 44A     -0.715000
      4 C4         -1.9090   -0.3450    0.2540 ca        1 44A      0.432800
      5 C5         -2.6380    0.8610   -0.1380 ca        1 44A     -0.205200
      6 C6         -4.0590    0.7580   -0.2550 ca        1 44A      0.709200
      7 N6         -4.7960    1.8400   -0.7210 nh        1 44A     -0.936500
      8 N7         -1.7400    1.9250   -0.3160 nc        1 44A     -0.592100
      9 C8         -0.5270    1.4120   -0.0560 cd        1 44A      0.452700
     10 N9         -0.5600    0.0340    0.2770 na        1 44A     -0.277000
     11 OAL         2.3870    2.3820   -0.0270 o         1 44A     -0.819800
     12 OAN         3.5000   -1.8650   -1.0150 oh        1 44A     -0.619800
     13 OAO         1.3530   -2.9820   -0.0400 oh        1 44A     -0.585800
     14 OBV         1.5920    0.0010    1.2270 os        1 44A     -0.393600
     15 CCC         3.1730    1.4040   -0.1240 c         1 44A      0.918600
     16 CCK         2.4620   -0.9170   -0.8290 c3        1 44A      0.095100
     17 CCL         1.1590   -1.6590   -0.4830 c3        1 44A      0.114100
     18 CCM         2.7470    0.0000    0.3730 c3        1 44A     -0.038900
     19 CCN         0.5480   -0.8060    0.6840 c3        1 44A      0.222800
     20 H2         -4.4050   -2.4210    0.6110 h5        1 44A      0.036100
     21 HN6        -5.7720    1.8390   -0.5380 hn        1 44A      0.417800
     22 HN6A       -4.3390    2.7210   -0.6590 hn        1 44A      0.417800
     23 H8          0.4500    1.9580   -0.0660 h5        1 44A      0.161800
     24 HOAN        4.3120   -1.3420   -1.0880 ho        1 44A      0.434000
     25 HOAO        2.2150   -3.0210    0.3960 ho        1 44A      0.416000
     26 O5          4.3240    1.4380   -0.6400 o         1 44A     -0.819800
     27 HCK         2.3360   -0.3130   -1.7680 h1        1 44A      0.074700
     28 HCL         0.4690   -1.7410   -1.3620 h1        1 44A      0.091700
     29 HCM         3.5760   -0.4220    1.0060 h1        1 44A      0.060700
     30 HCN         0.1910   -1.4800    1.5180 h2        1 44A      0.095700
@<TRIPOS>BOND
     1    1    2 ar  
     2    1    6 ar  
     3    2    3 ar  
     4    2   20 1   
     5    3    4 ar  
     6    4    5 ar  
     7    4   10 1   
     8    5    6 ar  
     9    5    8 1   
    10    6    7 1   
    11    7   21 1   
    12    7   22 1   
    13    8    9 2   
    14    9   10 1   
    15    9   23 1   
    16   10   19 1   
    17   11   15 1   
    18   12   16 1   
    19   12   24 1   
    20   13   17 1   
    21   13   25 1   
    22   14   18 1   
    23   14   19 1   
    24   15   18 1   
    25   15   26 1   
    26   16   17 1   
    27   16   18 1   
    28   16   27 1   
    29   17   19 1   
    30   17   28 1   
    31   18   29 1   
    32   19   30 1   
@<TRIPOS>SUBSTRUCTURE
     1 44A         1 TEMP              0 ****  ****    0 ROOT
