@<TRIPOS>MOLECULE
44A
   30    31     1     0     0
SMALL
bcc


@<TRIPOS>ATOM
      1 N1         -0.1640   -1.4000    0.5460 n1        1 44A     -1.111500
      2 C2          0.0340   -1.9870   -0.4610 c1        1 44A      0.403800
      3 N3          2.6860   -0.2310    0.9310 n2        1 44A     -0.788100
      4 C4          2.0300    0.1860    1.9530 ce        1 44A      0.535100
      5 C5          0.5560    0.0280    2.3500 ce        1 44A     -0.078700
      6 C6         -0.4210   -0.7090    1.7290 cf        1 44A      0.570700
      7 N6         -1.7300   -0.7690    2.3030 nv        1 44A     -0.779600
      8 N7          0.3870    0.8070    3.5150 nu        1 44A     -0.282600
      9 C8          1.6080    1.3050    3.9600 c1        1 44A      0.152000
     10 N9          2.5820    1.0190    3.0050 nh        1 44A     -0.287500
     11 OAL         1.9730   -0.7290    5.2680 o         1 44A     -0.827300
     12 OAN         5.7680    1.4400    6.3050 oh        1 44A     -0.624800
     13 OAO         5.5760    2.6770    4.0670 oh        1 44A     -0.597800
     14 OBV         4.3960   -0.2960    3.8280 os        1 44A     -0.413600
     15 CCC         3.0810   -0.9330    5.8410 c         1 44A      0.915600
     16 CCK         4.5020    1.1710    5.7180 c3        1 44A      0.090100
     17 CCL         4.3830    2.0230    4.4340 c3        1 44A      0.133100
     18 CCM         4.3680   -0.2950    5.2630 c3        1 44A     -0.024900
     19 CCN         3.9950    0.9830    3.3280 c3        1 44A      0.230800
     20 H2          2.1810   -0.7760    0.2700 hn        1 44A      0.400400
     21 HN6        -2.4470   -0.6820    1.6110 hn        1 44A      0.362800
     22 HN6A       -1.8470   -1.6270    2.8100 hn        1 44A      0.362800
     23 H8         -0.3620    0.6440    4.1430 hn        1 44A      0.315700
     24 HOAN        5.8940    0.7670    6.9850 ho        1 44A      0.413000
     25 HOAO        6.3090    2.0780    4.2630 ho        1 44A      0.414000
     26 O5          3.2250   -1.6130    6.8930 o         1 44A     -0.827300
     27 HCK         3.6890    1.4370    6.4450 h1        1 44A      0.080700
     28 HCL         3.6200    2.8380    4.5480 h1        1 44A      0.104700
     29 HCM         5.2580   -0.9080    5.5660 h1        1 44A      0.064700
     30 HCN         4.5900    1.1350    2.3810 h2        1 44A      0.095700
@<TRIPOS>BOND
     1    1    2 3   
     2    1    6 1   
     3    3    4 2   
     4    3   20 1   
     5    4    5 1   
     6    4   10 1   
     7    5    6 2   
     8    5    8 1   
     9    6    7 1   
    10    7   21 1   
    11    7   22 1   
    12    8    9 2   
    13    8   23 1   
    14    9   10 2   
    15   10   19 1   
    16   11   15 1   
    17   12   16 1   
    18   12   24 1   
    19   13   17 1   
    20   13   25 1   
    21   14   18 1   
    22   14   19 1   
    23   15   18 1   
    24   15   26 1   
    25   16   17 1   
    26   16   18 1   
    27   16   27 1   
    28   17   19 1   
    29   17   28 1   
    30   18   29 1   
    31   19   30 1   
@<TRIPOS>SUBSTRUCTURE
     1 44A         1 TEMP              0 ****  ****    0 ROOT
