@<TRIPOS>MOLECULE
44B
   30    30     1     0     0
SMALL
bcc


@<TRIPOS>ATOM
      1 F35        -0.0130    0.1540   -0.1000 f         1 44B     -0.221300
      2 C34         1.3500    0.0490    0.0260 c3        1 44B      0.599400
      3 F37         1.5940    0.0960    1.3700 f         1 44B     -0.221300
      4 F36         1.8360    1.2240   -0.4750 f         1 44B     -0.221300
      5 C33         1.9110   -1.2450   -0.7170 c3        1 44B      0.175100
      6 O42         1.3470   -1.2720   -2.0070 oh        1 44B     -0.552800
      7 C38         1.4050   -2.5420    0.0580 c3        1 44B      0.599400
      8 F39         1.6550   -2.5470    1.4020 f         1 44B     -0.221300
      9 F40         0.0470   -2.7050   -0.0590 f         1 44B     -0.221300
     10 F41         1.9370   -3.7080   -0.4180 f         1 44B     -0.221300
     11 C26         3.4010   -1.2140   -0.8230 ca        1 44B     -0.170300
     12 C27         4.1910   -1.1800    0.3330 ca        1 44B     -0.043500
     13 C28         5.5760   -1.1470    0.2470 ca        1 44B     -0.193000
     14 C25         4.0260   -1.2150   -2.0770 ca        1 44B     -0.043500
     15 C24         5.4090   -1.1810   -2.1790 ca        1 44B     -0.193000
     16 C23         6.2160   -1.1550   -1.0140 ca        1 44B      0.182600
     17 N15         7.6090   -1.2120   -1.1440 nu        1 44B     -0.737600
     18 C16         8.4250   -0.8430   -0.0220 c3        1 44B      0.159800
     19 C19         9.9500   -0.8210   -0.3940 c3        1 44B      0.619900
     20 F22        10.7240   -0.3640    0.6410 f         1 44B     -0.231633
     21 F21        10.4720   -2.0430   -0.7220 f         1 44B     -0.231633
     22 F20        10.2530   -0.0070   -1.4560 f         1 44B     -0.231633
     23 H42         0.3810   -1.2960   -1.9090 ho        1 44B      0.440000
     24 H27         3.7090   -1.1780    1.3250 ha        1 44B      0.156500
     25 H28         6.1630   -1.1220    1.1770 ha        1 44B      0.143000
     26 H25         3.4130   -1.2410   -2.9940 ha        1 44B      0.156500
     27 H24         5.8730   -1.1850   -3.1770 ha        1 44B      0.143000
     28 H15         7.9570   -0.9030   -2.0290 hn        1 44B      0.422800
     29 H161        8.1780    0.1780    0.3880 h1        1 44B      0.080700
     30 H162        8.2990   -1.6080    0.7950 h1        1 44B      0.080700
@<TRIPOS>BOND
     1    1    2 1   
     2    2    3 1   
     3    2    4 1   
     4    2    5 1   
     5    5    6 1   
     6    5    7 1   
     7    5   11 1   
     8    6   23 1   
     9    7    8 1   
    10    7    9 1   
    11    7   10 1   
    12   11   12 ar  
    13   11   14 ar  
    14   12   13 ar  
    15   12   24 1   
    16   13   16 ar  
    17   13   25 1   
    18   14   15 ar  
    19   14   26 1   
    20   15   16 ar  
    21   15   27 1   
    22   16   17 1   
    23   17   18 1   
    24   17   28 1   
    25   18   19 1   
    26   18   29 1   
    27   18   30 1   
    28   19   20 1   
    29   19   21 1   
    30   19   22 1   
@<TRIPOS>SUBSTRUCTURE
     1 44B         1 TEMP              0 ****  ****    0 ROOT
