@<TRIPOS>MOLECULE
44B
   30    28     1     0     0
SMALL
bcc


@<TRIPOS>ATOM
      1 F35         2.5270   -2.4990   -0.4220 f         1 44B     -0.148167
      2 C34         1.9960   -2.5540   -1.6500 c3        1 44B      0.412000
      3 F37         2.4990   -1.5630   -2.3980 f         1 44B     -0.148167
      4 F36         2.2940   -3.7320   -2.2120 f         1 44B     -0.148167
      5 C33         0.4940   -2.4040   -1.5580 c3        1 44B      0.081000
      6 O42        -0.0520   -3.5330   -0.9190 oh        1 44B     -0.282000
      7 C38        -0.0870   -2.2820   -2.9490 c3        1 44B      0.412000
      8 F39         0.1650   -1.0590   -3.4330 f         1 44B     -0.148167
      9 F40         0.4710   -3.2010   -3.7480 f         1 44B     -0.148167
     10 F41        -1.4100   -2.4790   -2.9000 f         1 44B     -0.148167
     11 C26         0.1590   -1.1630   -0.7620 c2        1 44B     -0.197000
     12 C27         0.5330    0.0850   -1.2350 c2        1 44B     -0.053000
     13 C28         0.1760    1.2270   -0.5360 c1        1 44B     -0.184000
     14 C25        -0.5730   -1.2690    0.4100 c1        1 44B     -0.048000
     15 C24        -0.9310   -0.1270    1.1090 c1        1 44B     -0.197000
     16 C23        -0.5560    1.1210    0.6370 c1        1 44B      0.104000
     17 N15        -0.9790    2.2920    1.3160 n3        1 44B     -0.295000
     18 C16        -0.3240    2.6970    2.5120 c3        1 44B     -0.076000
     19 C19        -1.0250    3.9090    3.0860 c3        1 44B      0.406000
     20 F22        -1.1240    4.8560    2.1440 f         1 44B     -0.159333
     21 F21        -0.3220    4.3820    4.1230 f         1 44B     -0.159333
     22 F20        -2.2510    3.5610    3.5000 f         1 44B     -0.159333
     23 H42         0.5340   -3.8520   -0.3310 ho        1 44B      0.234000
     24 H27         1.0490    0.1600   -2.0600 ha        1 44B      0.158000
     25 H28         0.4390    2.1060   -0.8690 ha        1 44B      0.147000
     26 H25        -0.8360   -2.1480    0.7430 ha        1 44B      0.146000
     27 H24        -1.4460   -0.2020    1.9350 ha        1 44B      0.141000
     28 H15        -1.6760    2.7820    0.9900 hn        1 44B      0.221000
     29 H161       -0.3510    1.9650    3.1620 h1        1 44B      0.119500
     30 H162        0.6080    2.9230    2.3130 h1        1 44B      0.119500
@<TRIPOS>BOND
     1    1    2 1   
     2    2    3 1   
     3    2    4 1   
     4    2    5 1   
     5    5    6 1   
     6    5    7 1   
     7    5   11 1   
     8    6   23 1   
     9    7    8 1   
    10    7    9 1   
    11    7   10 1   
    12   11   12 1   
    13   11   14 1   
    14   12   13 1   
    15   12   24 1   
    16   13   25 1   
    17   14   26 1   
    18   15   16 1   
    19   15   27 1   
    20   16   17 1   
    21   17   18 1   
    22   17   28 1   
    23   18   19 1   
    24   18   29 1   
    25   18   30 1   
    26   19   20 1   
    27   19   21 1   
    28   19   22 1   
@<TRIPOS>SUBSTRUCTURE
     1 44B         1 TEMP              0 ****  ****    0 ROOT
