@<TRIPOS>MOLECULE
44B
   30    30     1     0     0
SMALL
bcc


@<TRIPOS>ATOM
      1 F35         1.3540   -0.1730    4.5290 f         1 44B     -0.219633
      2 C34         1.3090   -0.2180    3.1610 c3        1 44B      0.625900
      3 F37         1.4990   -1.5330    2.8420 f         1 44B     -0.219633
      4 F36         2.4480    0.4310    2.7580 f         1 44B     -0.219633
      5 C33        -0.0050    0.4560    2.5630 c3        1 44B      0.160100
      6 O42        -0.0960    1.7390    3.1440 oh        1 44B     -0.555800
      7 C38        -1.2900   -0.2960    3.1180 c3        1 44B      0.625900
      8 F39        -1.3320   -1.6240    2.7890 f         1 44B     -0.219633
      9 F40        -1.3900   -0.2620    4.4820 f         1 44B     -0.219633
     10 F41        -2.4650    0.2300    2.6580 f         1 44B     -0.219633
     11 C26         0.0100    0.4820    1.0680 ca        1 44B     -0.204300
     12 C27         0.1940   -0.6900    0.3250 ca        1 44B     -0.050500
     13 C28         0.2020   -0.6640   -1.0640 ca        1 44B     -0.190000
     14 C25        -0.1940    1.6890    0.3840 ca        1 44B     -0.050500
     15 C24        -0.1900    1.7340   -1.0010 ca        1 44B     -0.190000
     16 C23         0.0240    0.5540   -1.7590 ca        1 44B      0.184600
     17 N15         0.1190    0.6420   -3.1520 nh        1 44B     -0.738600
     18 C16         0.0020   -0.5550   -3.9340 c3        1 44B      0.159800
     19 C19         0.0190   -0.2460   -5.4740 c3        1 44B      0.619900
     20 F22        -0.2040   -1.3710   -6.2250 f         1 44B     -0.231300
     21 F21        -0.9420    0.6480   -5.8730 f         1 44B     -0.231300
     22 F20         1.1990    0.2680   -5.9360 f         1 44B     -0.231300
     23 H42         0.6830    2.2410    2.8590 ho        1 44B      0.437000
     24 H27         0.3250   -1.6550    0.8450 ha        1 44B      0.152000
     25 H28         0.3520   -1.6080   -1.6090 ha        1 44B      0.143500
     26 H25        -0.3810    2.6180    0.9480 ha        1 44B      0.152000
     27 H24        -0.3500    2.6980   -1.5080 ha        1 44B      0.143500
     28 H15        -0.3250    1.4440   -3.5510 hn        1 44B      0.423800
     29 H161       -0.9490   -1.1270   -3.7300 h1        1 44B      0.081200
     30 H162        0.8850   -1.2230   -3.7260 h1        1 44B      0.081200
@<TRIPOS>BOND
     1    1    2 1   
     2    2    3 1   
     3    2    4 1   
     4    2    5 1   
     5    5    6 1   
     6    5    7 1   
     7    5   11 1   
     8    6   23 1   
     9    7    8 1   
    10    7    9 1   
    11    7   10 1   
    12   11   12 ar  
    13   11   14 ar  
    14   12   13 ar  
    15   12   24 1   
    16   13   16 ar  
    17   13   25 1   
    18   14   15 ar  
    19   14   26 1   
    20   15   16 ar  
    21   15   27 1   
    22   16   17 1   
    23   17   18 1   
    24   17   28 1   
    25   18   19 1   
    26   18   29 1   
    27   18   30 1   
    28   19   20 1   
    29   19   21 1   
    30   19   22 1   
@<TRIPOS>SUBSTRUCTURE
     1 44B         1 TEMP              0 ****  ****    0 ROOT
