@<TRIPOS>MOLECULE
44B
   30    30     1     0     0
SMALL
bcc


@<TRIPOS>ATOM
      1 F35        -0.0120    0.1540   -0.0870 f         1 44B     -0.221300
      2 C34         1.3510    0.0460    0.0370 c3        1 44B      0.599400
      3 F37         1.5950    0.0830    1.3820 f         1 44B     -0.221300
      4 F36         1.8380    1.2250   -0.4560 f         1 44B     -0.221300
      5 C33         1.9110   -1.2420   -0.7160 c3        1 44B      0.175100
      6 O42         1.3460   -1.2590   -2.0060 oh        1 44B     -0.552800
      7 C38         1.4050   -2.5440    0.0500 c3        1 44B      0.599400
      8 F39         1.6560   -2.5590    1.3940 f         1 44B     -0.221300
      9 F40         0.0460   -2.7050   -0.0670 f         1 44B     -0.221300
     10 F41         1.9350   -3.7070   -0.4350 f         1 44B     -0.221300
     11 C26         3.4010   -1.2110   -0.8230 ca        1 44B     -0.170300
     12 C27         4.1920   -1.1860    0.3320 ca        1 44B     -0.043500
     13 C28         5.5760   -1.1530    0.2460 ca        1 44B     -0.193000
     14 C25         4.0240   -1.2040   -2.0770 ca        1 44B     -0.043500
     15 C24         5.4070   -1.1710   -2.1790 ca        1 44B     -0.193000
     16 C23         6.2160   -1.1530   -1.0160 ca        1 44B      0.182600
     17 N15         7.6080   -1.2100   -1.1470 nh        1 44B     -0.737600
     18 C16         8.4250   -0.8480   -0.0230 c3        1 44B      0.159800
     19 C19         9.9510   -0.8250   -0.3960 c3        1 44B      0.619900
     20 F22        10.7250   -0.3730    0.6400 f         1 44B     -0.231633
     21 F21        10.4710   -2.0450   -0.7310 f         1 44B     -0.231633
     22 F20        10.2530   -0.0050   -1.4540 f         1 44B     -0.231633
     23 H42         0.3790   -1.2840   -1.9070 ho        1 44B      0.440000
     24 H27         3.7100   -1.1900    1.3260 ha        1 44B      0.156500
     25 H28         6.1640   -1.1350    1.1760 ha        1 44B      0.143000
     26 H25         3.4110   -1.2240   -2.9940 ha        1 44B      0.156500
     27 H24         5.8710   -1.1680   -3.1780 ha        1 44B      0.143000
     28 H15         7.9560   -0.8960   -2.0300 hn        1 44B      0.422800
     29 H161        8.3000   -1.6180    0.7900 h1        1 44B      0.080700
     30 H162        8.1790    0.1710    0.3930 h1        1 44B      0.080700
@<TRIPOS>BOND
     1    1    2 1   
     2    2    3 1   
     3    2    4 1   
     4    2    5 1   
     5    5    6 1   
     6    5    7 1   
     7    5   11 1   
     8    6   23 1   
     9    7    8 1   
    10    7    9 1   
    11    7   10 1   
    12   11   12 ar  
    13   11   14 ar  
    14   12   13 ar  
    15   12   24 1   
    16   13   16 ar  
    17   13   25 1   
    18   14   15 ar  
    19   14   26 1   
    20   15   16 ar  
    21   15   27 1   
    22   16   17 1   
    23   17   18 1   
    24   17   28 1   
    25   18   19 1   
    26   18   29 1   
    27   18   30 1   
    28   19   20 1   
    29   19   21 1   
    30   19   22 1   
@<TRIPOS>SUBSTRUCTURE
     1 44B         1 TEMP              0 ****  ****    0 ROOT
