@<TRIPOS>MOLECULE
44B
   31    31     1     0     0
SMALL
bcc


@<TRIPOS>ATOM
      1 F35         0.1600    0.2610    0.3240 f         1 44B     -0.207967
      2 C34         1.4850   -0.0590    0.4400 c3        1 44B      0.611400
      3 F37         1.6660   -0.4820    1.7260 f         1 44B     -0.207967
      4 F36         2.1580    1.1270    0.3430 f         1 44B     -0.207967
      5 C33         1.9280   -1.1180   -0.6680 c3        1 44B      0.124100
      6 O42         1.4590   -0.6660   -1.9150 oh        1 44B     -0.556800
      7 C38         1.2490   -2.5300   -0.3660 c3        1 44B      0.611400
      8 F39         1.4320   -2.9790    0.9110 f         1 44B     -0.207967
      9 F40        -0.1030   -2.4870   -0.5670 f         1 44B     -0.207967
     10 F41         1.7100   -3.5270   -1.1790 f         1 44B     -0.207967
     11 C26         3.4250   -1.2390   -0.7320 ca        1 44B     -0.047300
     12 C27         4.1420   -1.6710    0.3920 ca        1 44B     -0.062500
     13 C28         5.5290   -1.7850    0.3460 ca        1 44B     -0.102000
     14 C25         4.1060   -0.9200   -1.9140 ca        1 44B     -0.062500
     15 C24         5.4940   -1.0280   -1.9800 ca        1 44B     -0.102000
     16 C23         6.2010   -1.4620   -0.8460 ca        1 44B     -0.047400
     17 N15         7.6620   -1.5960   -0.9100 n4        1 44B     -0.623400
     18 C16         8.3480   -0.3420   -0.4980 c3        1 44B      0.032800
     19 C19         9.9150   -0.5000   -0.5740 c3        1 44B      0.629900
     20 F22        10.5550    0.6410   -0.2000 f         1 44B     -0.198967
     21 F21        10.3740   -1.5060    0.2340 f         1 44B     -0.198967
     22 F20        10.3440   -0.8100   -1.8360 f         1 44B     -0.198967
     23 H42         0.4880   -0.5940   -1.8660 ho        1 44B      0.463000
     24 H27         3.6060   -1.9270    1.3270 ha        1 44B      0.198000
     25 H28         6.0690   -2.1310    1.2430 ha        1 44B      0.167500
     26 H25         3.5420   -0.5820   -2.8050 ha        1 44B      0.198000
     27 H24         6.0080   -0.7750   -2.9220 ha        1 44B      0.167500
     28 H15         7.9390   -1.8330   -1.8750 hn        1 44B      0.471800
     29 H161        8.0630   -0.0850    0.5620 hx        1 44B      0.150700
     30 H162        8.0380    0.5010   -1.1800 hx        1 44B      0.150700
     31 H152        7.9610   -2.3650   -0.2900 hn        1 44B      0.471800
@<TRIPOS>BOND
     1    1    2 1   
     2    2    3 1   
     3    2    4 1   
     4    2    5 1   
     5    5    6 1   
     6    5    7 1   
     7    5   11 1   
     8    6   23 1   
     9    7    8 1   
    10    7    9 1   
    11    7   10 1   
    12   11   12 ar  
    13   11   14 ar  
    14   12   13 ar  
    15   12   24 1   
    16   13   16 ar  
    17   13   25 1   
    18   14   15 ar  
    19   14   26 1   
    20   15   16 ar  
    21   15   27 1   
    22   16   17 1   
    23   17   18 1   
    24   17   28 1   
    25   17   31 1   
    26   18   19 1   
    27   18   29 1   
    28   18   30 1   
    29   19   20 1   
    30   19   21 1   
    31   19   22 1   
@<TRIPOS>SUBSTRUCTURE
     1 44B         1 TEMP              0 ****  ****    0 ROOT
