@<TRIPOS>MOLECULE
44C
   62    65     1     0     0
SMALL
bcc


@<TRIPOS>ATOM
      1 C1         22.8720   41.5130   26.1090 ca        1 44C     -0.114000
      2 C2         22.6540   41.4440   24.7360 ca        1 44C     -0.142500
      3 C3         21.4510   41.9080   24.1840 cp        1 44C     -0.084000
      4 C4         20.4730   42.4390   25.0390 ca        1 44C     -0.142500
      5 C5         20.6960   42.5020   26.4120 ca        1 44C     -0.114000
      6 C6         21.8970   42.0410   26.9610 ca        1 44C     -0.112600
      7 C7         21.2180   41.8400   22.7440 cp        1 44C     -0.010000
      8 C8         21.6560   40.7340   21.9990 ca        1 44C     -0.118000
      9 C9         21.4400   40.6640   20.6260 ca        1 44C     -0.155000
     10 C10        20.7650   41.7100   19.9830 ca        1 44C      0.081100
     11 C11        20.3190   42.8220   20.7080 ca        1 44C     -0.155000
     12 C12        20.5500   42.8810   22.0790 ca        1 44C     -0.118000
     13 C13        22.1370   42.1130   28.4620 c         1 44C      0.906200
     14 O14        23.2350   41.6750   28.9080 o         1 44C     -0.831800
     15 O15        21.2260   42.6070   29.1850 o         1 44C     -0.831800
     16 O16        20.4640   41.5490   18.6350 os        1 44C     -0.352900
     17 C17        21.0060   42.5790   17.7930 c3        1 44C      0.131400
     18 C18        20.3430   42.4330   16.4350 c3        1 44C     -0.081400
     19 C19        22.2060   41.6480   14.9250 c3        1 44C      0.128400
     20 C20        20.9040   41.2880   15.6200 c3        1 44C     -0.107400
     21 O21        22.0150   42.6700   13.9480 os        1 44C     -0.342900
     22 C22        21.7760   42.2510   12.6450 ca        1 44C      0.050100
     23 C23        21.2900   40.9910   12.2840 ca        1 44C     -0.141000
     24 C24        21.0390   40.7020   10.9490 ca        1 44C     -0.172500
     25 C25        21.2500   41.6710    9.9330 ca        1 44C      0.166600
     26 C26        21.7710   42.9280   10.3250 ca        1 44C     -0.172500
     27 C27        22.0260   43.2160   11.6570 ca        1 44C     -0.141000
     28 N28        20.8890   41.3500    8.6230 nh        1 44C     -0.626000
     29 C29        21.0400   42.2480    7.5480 ca        1 44C      0.155600
     30 C30        20.4890   43.5500    7.6300 ca        1 44C     -0.187000
     31 C31        20.5480   44.4170    6.5460 ca        1 44C     -0.136000
     32 C32        21.1500   44.0150    5.3560 ca        1 44C     -0.185000
     33 C33        21.6880   42.7340    5.2610 ca        1 44C     -0.089000
     34 C34        21.6440   41.8370    6.3320 ca        1 44C     -0.160600
     35 C35        22.2560   40.4620    6.1020 c         1 44C      0.911200
     36 O36        23.1140   40.3540    5.1820 o         1 44C     -0.830800
     37 O37        21.8790   39.4820    6.8120 o         1 44C     -0.830800
     38 H1         23.8150   41.1550   26.5550 ha        1 44C      0.151000
     39 H2         23.4320   41.0330   24.0760 ha        1 44C      0.109500
     40 H4         19.5220   42.7970   24.6200 ha        1 44C      0.109500
     41 H5         19.9350   42.9130   27.0940 ha        1 44C      0.151000
     42 H8         22.1740   39.9090   22.5120 ha        1 44C      0.136500
     43 H9         21.7750   39.7940   20.0450 ha        1 44C      0.133000
     44 H11        19.7850   43.6360   20.1990 ha        1 44C      0.133000
     45 H12        20.2060   43.7550   22.6530 ha        1 44C      0.136500
     46 H171       22.1170   42.4400   17.7280 h1        1 44C      0.032700
     47 H172       20.7850   43.5870   18.2300 h1        1 44C      0.032700
     48 H181       20.4810   43.3930   15.8700 hc        1 44C      0.058700
     49 H182       19.2430   42.2720   16.5870 hc        1 44C      0.058700
     50 H191       22.6800   40.7380   14.4750 h1        1 44C      0.048700
     51 H192       22.9230   42.1180   15.6540 h1        1 44C      0.048700
     52 H201       20.1480   40.9900   14.8470 hc        1 44C      0.055200
     53 H202       21.0830   40.4050   16.2880 hc        1 44C      0.055200
     54 H23        21.1040   40.2210   13.0450 ha        1 44C      0.128500
     55 H24        20.6720   39.6990   10.6800 ha        1 44C      0.141500
     56 H26        22.0000   43.6900    9.5630 ha        1 44C      0.141500
     57 H27        22.4260   44.1970   11.9500 ha        1 44C      0.128500
     58 H28        21.0520   40.3830    8.3620 hn        1 44C      0.480800
     59 H30        19.9940   43.8780    8.5560 ha        1 44C      0.123000
     60 H31        20.1130   45.4230    6.6330 ha        1 44C      0.104000
     61 H32        21.2000   44.7020    4.5020 ha        1 44C      0.106000
     62 H33        22.1830   42.3980    4.3340 ha        1 44C      0.152000
@<TRIPOS>BOND
     1    1    2 ar  
     2    1    6 ar  
     3    1   38 1   
     4    2    3 ar  
     5    2   39 1   
     6    3    4 ar  
     7    3    7 1   
     8    4    5 ar  
     9    4   40 1   
    10    5    6 ar  
    11    5   41 1   
    12    6   13 1   
    13    7    8 ar  
    14    7   12 ar  
    15    8    9 ar  
    16    8   42 1   
    17    9   10 ar  
    18    9   43 1   
    19   10   11 ar  
    20   10   16 1   
    21   11   12 ar  
    22   11   44 1   
    23   12   45 1   
    24   13   14 1   
    25   13   15 1   
    26   16   17 1   
    27   17   18 1   
    28   17   46 1   
    29   17   47 1   
    30   18   20 1   
    31   18   48 1   
    32   18   49 1   
    33   19   20 1   
    34   19   21 1   
    35   19   50 1   
    36   19   51 1   
    37   20   52 1   
    38   20   53 1   
    39   21   22 1   
    40   22   23 ar  
    41   22   27 ar  
    42   23   24 ar  
    43   23   54 1   
    44   24   25 ar  
    45   24   55 1   
    46   25   26 ar  
    47   25   28 1   
    48   26   27 ar  
    49   26   56 1   
    50   27   57 1   
    51   28   29 1   
    52   28   58 1   
    53   29   30 ar  
    54   29   34 ar  
    55   30   31 ar  
    56   30   59 1   
    57   31   32 ar  
    58   31   60 1   
    59   32   33 ar  
    60   32   61 1   
    61   33   34 ar  
    62   33   62 1   
    63   34   35 1   
    64   35   36 1   
    65   35   37 1   
@<TRIPOS>SUBSTRUCTURE
     1 44C         1 TEMP              0 ****  ****    0 ROOT
