@<TRIPOS>MOLECULE
44C
   62    65     1     0     0
SMALL
bcc


@<TRIPOS>ATOM
      1 C1          0.7630   -0.4790   -0.2110 ca        1 44C     -0.114000
      2 C2          2.1380   -0.3880   -0.0140 ca        1 44C     -0.142500
      3 C3          2.6580   -0.1530    1.2680 cp        1 44C     -0.084000
      4 C4          1.7690   -0.0100    2.3440 ca        1 44C     -0.142500
      5 C5          0.3950   -0.0980    2.1400 ca        1 44C     -0.114000
      6 C6         -0.1230   -0.3350    0.8620 ca        1 44C     -0.112600
      7 C7          4.1000   -0.0580    1.4800 cp        1 44C     -0.010000
      8 C8          4.9210    0.5810    0.5380 ca        1 44C     -0.118000
      9 C9          6.2960    0.6720    0.7330 ca        1 44C     -0.155000
     10 C10         6.8640    0.1270    1.8920 ca        1 44C      0.081100
     11 C11         6.0610   -0.5130    2.8450 ca        1 44C     -0.155000
     12 C12         4.6890   -0.6040    2.6320 ca        1 44C     -0.118000
     13 C13        -1.6250   -0.4330    0.6430 c         1 44C      0.906200
     14 O14        -2.0410   -0.6390   -0.5320 o         1 44C     -0.831800
     15 O15        -2.3800   -0.3040    1.6490 o         1 44C     -0.831800
     16 O16         8.2200    0.3420    2.1070 os        1 44C     -0.352900
     17 C17         8.9840   -0.8670    2.2470 c3        1 44C      0.131400
     18 C18        10.3520   -0.4670    2.7710 c3        1 44C     -0.081400
     19 C19        11.9060   -0.9260    0.8360 c3        1 44C      0.128400
     20 C20        11.2440    0.1310    1.7050 c3        1 44C     -0.108400
     21 O21        12.8110   -1.7340    1.5870 os        1 44C     -0.342900
     22 C22        14.1380   -1.3230    1.6190 ca        1 44C      0.051100
     23 C23        14.5860   -0.0290    1.3390 ca        1 44C     -0.141500
     24 C24        15.9360    0.2770    1.4500 ca        1 44C     -0.172500
     25 C25        16.8800   -0.7000    1.8630 ca        1 44C      0.166600
     26 C26        16.4020   -2.0100    2.1110 ca        1 44C     -0.172500
     27 C27        15.0550   -2.3170    1.9960 ca        1 44C     -0.141500
     28 N28        18.2060   -0.3050    2.0480 nu        1 44C     -0.626000
     29 C29        19.2140   -1.1940    2.4740 ca        1 44C      0.155600
     30 C30        19.0320   -1.9580    3.6510 ca        1 44C     -0.187000
     31 C31        20.0500   -2.7690    4.1380 ca        1 44C     -0.136000
     32 C32        21.2710   -2.8390    3.4720 ca        1 44C     -0.185000
     33 C33        21.4650   -2.0860    2.3170 ca        1 44C     -0.089000
     34 C34        20.4630   -1.2590    1.8030 ca        1 44C     -0.160600
     35 C35        20.7980   -0.4760    0.5400 c         1 44C      0.911200
     36 O36        21.7300   -0.9180   -0.1870 o         1 44C     -0.830800
     37 O37        20.1580    0.5860    0.2730 o         1 44C     -0.830800
     38 H1          0.3420   -0.6670   -1.2120 ha        1 44C      0.151000
     39 H2          2.8240   -0.5100   -0.8640 ha        1 44C      0.109500
     40 H4          2.1630    0.1840    3.3520 ha        1 44C      0.109500
     41 H5         -0.3140    0.0160    2.9760 ha        1 44C      0.151000
     42 H8          4.4680    1.0190   -0.3640 ha        1 44C      0.136500
     43 H9          6.9380    1.1800   -0.0000 ha        1 44C      0.133000
     44 H11         6.5110   -0.9340    3.7540 ha        1 44C      0.133000
     45 H12         4.0530   -1.1100    3.3740 ha        1 44C      0.136500
     46 H171        8.4760   -1.5600    2.9680 h1        1 44C      0.032700
     47 H172        9.0540   -1.3640    1.2440 h1        1 44C      0.032700
     48 H181       10.2160    0.2790    3.5980 hc        1 44C      0.058700
     49 H182       10.8470   -1.3780    3.2000 hc        1 44C      0.058700
     50 H191       12.4160   -0.4540   -0.0430 h1        1 44C      0.048700
     51 H192       11.1430   -1.6670    0.4690 h1        1 44C      0.048700
     52 H201       12.0410    0.7450    2.2020 hc        1 44C      0.055200
     53 H202       10.6410    0.8110    1.0490 hc        1 44C      0.055200
     54 H23        13.8810    0.7550    1.0280 ha        1 44C      0.128500
     55 H24        16.2740    1.2970    1.2110 ha        1 44C      0.141500
     56 H26        17.1090   -2.8110    2.3810 ha        1 44C      0.141500
     57 H27        14.6950   -3.3360    2.1950 ha        1 44C      0.128500
     58 H28        18.5390    0.3880    1.3860 hn        1 44C      0.480800
     59 H30        18.0800   -1.9010    4.2000 ha        1 44C      0.123000
     60 H31        19.8860   -3.3540    5.0540 ha        1 44C      0.104000
     61 H32        22.0740   -3.4840    3.8540 ha        1 44C      0.106000
     62 H33        22.4190   -2.1360    1.7640 ha        1 44C      0.152000
@<TRIPOS>BOND
     1    1    2 ar  
     2    1    6 ar  
     3    1   38 1   
     4    2    3 ar  
     5    2   39 1   
     6    3    4 ar  
     7    3    7 1   
     8    4    5 ar  
     9    4   40 1   
    10    5    6 ar  
    11    5   41 1   
    12    6   13 1   
    13    7    8 ar  
    14    7   12 ar  
    15    8    9 ar  
    16    8   42 1   
    17    9   10 ar  
    18    9   43 1   
    19   10   11 ar  
    20   10   16 1   
    21   11   12 ar  
    22   11   44 1   
    23   12   45 1   
    24   13   14 1   
    25   13   15 1   
    26   16   17 1   
    27   17   18 1   
    28   17   46 1   
    29   17   47 1   
    30   18   20 1   
    31   18   48 1   
    32   18   49 1   
    33   19   20 1   
    34   19   21 1   
    35   19   50 1   
    36   19   51 1   
    37   20   52 1   
    38   20   53 1   
    39   21   22 1   
    40   22   23 ar  
    41   22   27 ar  
    42   23   24 ar  
    43   23   54 1   
    44   24   25 ar  
    45   24   55 1   
    46   25   26 ar  
    47   25   28 1   
    48   26   27 ar  
    49   26   56 1   
    50   27   57 1   
    51   28   29 1   
    52   28   58 1   
    53   29   30 ar  
    54   29   34 ar  
    55   30   31 ar  
    56   30   59 1   
    57   31   32 ar  
    58   31   60 1   
    59   32   33 ar  
    60   32   61 1   
    61   33   34 ar  
    62   33   62 1   
    63   34   35 1   
    64   35   36 1   
    65   35   37 1   
@<TRIPOS>SUBSTRUCTURE
     1 44C         1 TEMP              0 ****  ****    0 ROOT
