@<TRIPOS>MOLECULE
44C
   62    54     1     0     0
SMALL
bcc


@<TRIPOS>ATOM
      1 C1        -10.2200    3.3530    1.3020 c1        1 44C     -0.113000
      2 C2         -8.8510    3.0790    1.4240 c1        1 44C     -0.121500
      3 C3         -8.2530    2.1220    0.6000 c1        1 44C     -0.054500
      4 C4         -9.0240    1.4340   -0.3490 c1        1 44C     -0.132000
      5 C5        -10.3910    1.7070   -0.4710 c1        1 44C     -0.132000
      6 C6        -10.9900    2.6670    0.3550 c1        1 44C     -0.094000
      7 C7         -6.8330    1.8970    0.6710 c1        1 44C     -0.054500
      8 C8         -5.9590    2.7260   -0.0320 c1        1 44C     -0.121500
      9 C9         -4.5760    2.5330    0.0670 c1        1 44C     -0.205000
     10 C10        -4.0690    1.5100    0.8710 c1        1 44C      0.062000
     11 C11        -4.9440    0.6780    1.5770 c1        1 44C     -0.132000
     12 C12        -6.3250    0.8710    1.4770 c1        1 44C     -0.132000
     13 C13       -12.4910    2.9180    0.2670 c2        1 44C      0.355000
     14 O14       -12.9240    3.9020   -0.3770 o         1 44C     -0.567000
     15 O15       -13.2900    2.1800    0.8970 o         1 44C     -0.567000
     16 O16        -2.6520    1.3320    0.9950 os        1 44C     -0.221000
     17 C17        -2.0860    0.4320    0.0170 c3        1 44C     -0.019000
     18 C18        -0.7460   -0.0590    0.5030 c3        1 44C     -0.163000
     19 C19         1.4730   -0.5320   -0.5870 c3        1 44C     -0.018000
     20 C20         0.3700    0.5340   -0.3710 c3        1 44C     -0.164000
     21 O21         2.5350   -0.2960    0.3050 os        1 44C     -0.227000
     22 C22         3.8000   -0.7140   -0.1850 c2        1 44C      0.049000
     23 C23         4.6230    0.1900   -0.8240 c2        1 44C     -0.165000
     24 C24         5.8800   -0.2020   -1.2550 c1        1 44C     -0.110000
     25 C25         6.3120   -1.5130   -1.0410 c1        1 44C      0.011000
     26 C26         5.4910   -2.4090   -0.4050 c1        1 44C     -0.118000
     27 C27         4.2290   -2.0110    0.0270 c1        1 44C     -0.195000
     28 N28         7.5810   -1.9640   -1.6080 n3        1 44C     -0.229000
     29 C29         8.7210   -2.1310   -0.7640 c2        1 44C      0.050000
     30 C30         9.2340   -1.0570   -0.0850 c2        1 44C     -0.169000
     31 C31        10.3340   -1.2220    0.7470 c1        1 44C     -0.141000
     32 C32        10.9150   -2.4780    0.8930 c1        1 44C     -0.132000
     33 C33        10.4000   -3.5590    0.2100 c1        1 44C     -0.132000
     34 C34         9.3070   -3.3960   -0.6180 c1        1 44C     -0.139000
     35 C35         8.8090   -4.5480   -1.4300 c2        1 44C      0.360000
     36 O36         8.1030   -5.4360   -0.8900 o         1 44C     -0.570000
     37 O37         9.2190   -4.7060   -2.5980 o         1 44C     -0.570000
     38 H1        -10.6430    4.0320    1.8860 ha        1 44C      0.151000
     39 H2         -8.3060    3.5650    2.0930 ha        1 44C      0.122500
     40 H4         -8.6010    0.7550   -0.9330 ha        1 44C      0.131167
     41 H5        -10.9380    1.2190   -1.1440 ha        1 44C      0.131167
     42 H8         -6.3150    3.4460   -0.5980 ha        1 44C      0.122500
     43 H9         -3.9540    3.1240   -0.4340 ha        1 44C      0.128000
     44 H11        -4.5800   -0.0280    2.1850 ha        1 44C      0.131167
     45 H12        -6.9400    0.2870    1.9720 ha        1 44C      0.131167
     46 H171       -2.6960   -0.3430   -0.1130 h1        1 44C      0.076000
     47 H172       -1.9710    0.9060   -0.8360 h1        1 44C      0.076000
     48 H181       -0.6160    0.2160    1.4250 hc        1 44C      0.096000
     49 H182       -0.7190   -1.0300    0.4480 hc        1 44C      0.096000
     50 H191        1.1020   -1.4200   -0.4240 h1        1 44C      0.078000
     51 H192        1.8000   -0.4800   -1.5030 h1        1 44C      0.078000
     52 H201       -0.0030    0.8040   -1.2440 hc        1 44C      0.093000
     53 H202        0.7610    1.3280    0.0830 hc        1 44C      0.093000
     54 H23         4.3590    1.1370   -0.8820 ha        1 44C      0.132000
     55 H24         6.4140    0.3990   -1.7840 ha        1 44C      0.133000
     56 H26         5.7820   -3.3180   -0.2700 ha        1 44C      0.187000
     57 H27         3.6640   -2.6330    0.5030 ha        1 44C      0.129000
     58 H28         7.6460   -2.1340   -2.5020 hn        1 44C      0.228000
     59 H30         8.8110   -0.1700   -0.1740 ha        1 44C      0.116000
     60 H31        10.6860   -0.4840    1.2150 ha        1 44C      0.102000
     61 H32        11.7460   -2.5760    1.4090 ha        1 44C      0.131167
     62 H33        10.8030   -4.4320    0.3110 ha        1 44C      0.131167
@<TRIPOS>BOND
     1    1    6 1   
     2    1   38 1   
     3    2    3 1   
     4    2   39 1   
     5    4    5 1   
     6    4   40 1   
     7    5   41 1   
     8    6   13 1   
     9    7    8 1   
    10    8   42 1   
    11    9   10 1   
    12    9   43 1   
    13   10   16 1   
    14   11   12 1   
    15   11   44 1   
    16   12   45 1   
    17   13   14 1   
    18   13   15 1   
    19   16   17 1   
    20   17   18 1   
    21   17   46 1   
    22   17   47 1   
    23   18   20 1   
    24   18   48 1   
    25   18   49 1   
    26   19   20 1   
    27   19   21 1   
    28   19   50 1   
    29   19   51 1   
    30   20   52 1   
    31   20   53 1   
    32   21   22 1   
    33   22   23 1   
    34   22   27 1   
    35   23   24 1   
    36   23   54 1   
    37   24   55 1   
    38   25   26 1   
    39   25   28 1   
    40   26   56 1   
    41   27   57 1   
    42   28   29 1   
    43   28   58 1   
    44   29   30 1   
    45   29   34 1   
    46   30   31 1   
    47   30   59 1   
    48   31   60 1   
    49   32   33 1   
    50   32   61 1   
    51   33   62 1   
    52   34   35 1   
    53   35   36 1   
    54   35   37 1   
@<TRIPOS>SUBSTRUCTURE
     1 44C         1 TEMP              0 ****  ****    0 ROOT
