@<TRIPOS>MOLECULE
44C
   62    65     1     0     0
SMALL
bcc


@<TRIPOS>ATOM
      1 C1          0.7610   -0.4410   -0.1870 ca        1 44C     -0.114000
      2 C2          2.1370   -0.3570    0.0030 ca        1 44C     -0.142500
      3 C3          2.6650   -0.1420    1.2850 cp        1 44C     -0.084000
      4 C4          1.7830   -0.0110    2.3680 ca        1 44C     -0.142500
      5 C5          0.4070   -0.0930    2.1710 ca        1 44C     -0.114000
      6 C6         -0.1180   -0.3090    0.8930 ca        1 44C     -0.112600
      7 C7          4.1090   -0.0560    1.4900 cp        1 44C     -0.010000
      8 C8          4.9270    0.5940    0.5530 ca        1 44C     -0.118000
      9 C9          6.3030    0.6780    0.7410 ca        1 44C     -0.155000
     10 C10         6.8760    0.1140    1.8890 ca        1 44C      0.081100
     11 C11         6.0760   -0.5370    2.8370 ca        1 44C     -0.155000
     12 C12         4.7020   -0.6190    2.6310 ca        1 44C     -0.118000
     13 C13        -1.6220   -0.4000    0.6820 c         1 44C      0.906200
     14 O14        -2.0460   -0.5880   -0.4940 o         1 44C     -0.831800
     15 O15        -2.3710   -0.2830    1.6930 o         1 44C     -0.831800
     16 O16         8.2340    0.3200    2.0990 os        1 44C     -0.352900
     17 C17         8.9940   -0.8930    2.2170 c3        1 44C      0.131400
     18 C18        10.3690   -0.5060    2.7310 c3        1 44C     -0.081400
     19 C19        11.8990   -0.9530    0.7740 c3        1 44C      0.128400
     20 C20        11.2530    0.0990    1.6620 c3        1 44C     -0.108400
     21 O21        12.8110   -1.7720    1.5020 os        1 44C     -0.342900
     22 C22        14.1340   -1.3490    1.5520 ca        1 44C      0.051100
     23 C23        14.5780   -0.0560    1.2610 ca        1 44C     -0.141500
     24 C24        15.9250    0.2590    1.3860 ca        1 44C     -0.172500
     25 C25        16.8700   -0.7070    1.8240 ca        1 44C      0.166600
     26 C26        16.3960   -2.0170    2.0820 ca        1 44C     -0.172500
     27 C27        15.0520   -2.3320    1.9540 ca        1 44C     -0.141500
     28 N28        18.1920   -0.3030    2.0190 nh        1 44C     -0.626000
     29 C29        19.1980   -1.1790    2.4720 ca        1 44C      0.155600
     30 C30        19.0030   -1.9270    3.6580 ca        1 44C     -0.187000
     31 C31        20.0190   -2.7260    4.1700 ca        1 44C     -0.136000
     32 C32        21.2500   -2.7990    3.5220 ca        1 44C     -0.185000
     33 C33        21.4550   -2.0610    2.3590 ca        1 44C     -0.089000
     34 C34        20.4560   -1.2480    1.8190 ca        1 44C     -0.160600
     35 C35        20.8040   -0.4820    0.5490 c         1 44C      0.911200
     36 O36        21.7500   -0.9290   -0.1580 o         1 44C     -0.830800
     37 O37        20.1620    0.5720    0.2570 o         1 44C     -0.830800
     38 H1          0.3340   -0.6140   -1.1880 ha        1 44C      0.151000
     39 H2          2.8180   -0.4690   -0.8530 ha        1 44C      0.109500
     40 H4          2.1830    0.1670    3.3770 ha        1 44C      0.109500
     41 H5         -0.2960    0.0120    3.0120 ha        1 44C      0.151000
     42 H8          4.4700    1.0470   -0.3400 ha        1 44C      0.136500
     43 H9          6.9430    1.1930    0.0110 ha        1 44C      0.133000
     44 H11         6.5300   -0.9720    3.7380 ha        1 44C      0.133000
     45 H12         4.0700   -1.1340    3.3700 ha        1 44C      0.136500
     46 H171        8.4900   -1.5910    2.9360 h1        1 44C      0.032700
     47 H172        9.0510   -1.3800    1.2080 h1        1 44C      0.032700
     48 H181       10.2460    0.2320    3.5670 hc        1 44C      0.058700
     49 H182       10.8630   -1.4240    3.1450 hc        1 44C      0.058700
     50 H191       12.3980   -0.4750   -0.1080 h1        1 44C      0.048700
     51 H192       11.1280   -1.6880    0.4120 h1        1 44C      0.048700
     52 H201       12.0590    0.7020    2.1570 hc        1 44C      0.055200
     53 H202       10.6470    0.7900    1.0200 hc        1 44C      0.055200
     54 H23        13.8740    0.7210    0.9310 ha        1 44C      0.128500
     55 H24        16.2610    1.2780    1.1380 ha        1 44C      0.141500
     56 H26        17.1030   -2.8090    2.3720 ha        1 44C      0.141500
     57 H27        14.6950   -3.3500    2.1620 ha        1 44C      0.128500
     58 H28        18.5290    0.3820    1.3510 hn        1 44C      0.480800
     59 H30        18.0430   -1.8680    4.1920 ha        1 44C      0.123000
     60 H31        19.8450   -3.2980    5.0920 ha        1 44C      0.104000
     61 H32        22.0500   -3.4340    3.9240 ha        1 44C      0.106000
     62 H33        22.4170   -2.1140    1.8200 ha        1 44C      0.152000
@<TRIPOS>BOND
     1    1    2 ar  
     2    1    6 ar  
     3    1   38 1   
     4    2    3 ar  
     5    2   39 1   
     6    3    4 ar  
     7    3    7 1   
     8    4    5 ar  
     9    4   40 1   
    10    5    6 ar  
    11    5   41 1   
    12    6   13 1   
    13    7    8 ar  
    14    7   12 ar  
    15    8    9 ar  
    16    8   42 1   
    17    9   10 ar  
    18    9   43 1   
    19   10   11 ar  
    20   10   16 1   
    21   11   12 ar  
    22   11   44 1   
    23   12   45 1   
    24   13   14 1   
    25   13   15 1   
    26   16   17 1   
    27   17   18 1   
    28   17   46 1   
    29   17   47 1   
    30   18   20 1   
    31   18   48 1   
    32   18   49 1   
    33   19   20 1   
    34   19   21 1   
    35   19   50 1   
    36   19   51 1   
    37   20   52 1   
    38   20   53 1   
    39   21   22 1   
    40   22   23 ar  
    41   22   27 ar  
    42   23   24 ar  
    43   23   54 1   
    44   24   25 ar  
    45   24   55 1   
    46   25   26 ar  
    47   25   28 1   
    48   26   27 ar  
    49   26   56 1   
    50   27   57 1   
    51   28   29 1   
    52   28   58 1   
    53   29   30 ar  
    54   29   34 ar  
    55   30   31 ar  
    56   30   59 1   
    57   31   32 ar  
    58   31   60 1   
    59   32   33 ar  
    60   32   61 1   
    61   33   34 ar  
    62   33   62 1   
    63   34   35 1   
    64   35   36 1   
    65   35   37 1   
@<TRIPOS>SUBSTRUCTURE
     1 44C         1 TEMP              0 ****  ****    0 ROOT
