@<TRIPOS>MOLECULE
44C
   63    66     1     0     0
SMALL
bcc


@<TRIPOS>ATOM
      1 C1          1.1570    1.1470    0.1900 ca        1 44C     -0.113000
      2 C2          2.5190    1.0600    0.4670 ca        1 44C     -0.142500
      3 C3          2.9890    0.1610    1.4370 cp        1 44C     -0.089000
      4 C4          2.0650   -0.6420    2.1230 ca        1 44C     -0.142500
      5 C5          0.7050   -0.5470    1.8430 ca        1 44C     -0.113000
      6 C6          0.2370    0.3470    0.8740 ca        1 44C     -0.110600
      7 C7          4.4160    0.0620    1.7260 cp        1 44C     -0.019000
      8 C8          5.2250    1.2110    1.7420 ca        1 44C     -0.101500
      9 C9          6.5850    1.1260    2.0110 ca        1 44C     -0.180500
     10 C10         7.1570   -0.1320    2.2720 ca        1 44C      0.095100
     11 C11         6.3700   -1.2870    2.2640 ca        1 44C     -0.180500
     12 C12         5.0070   -1.1810    1.9910 ca        1 44C     -0.101500
     13 C13        -1.2510    0.4450    0.5680 c         1 44C      0.906200
     14 O14        -1.6190    1.2740   -0.3110 o         1 44C     -0.828300
     15 O15        -2.0360   -0.3080    1.2100 o         1 44C     -0.828300
     16 O16         8.5190   -0.1060    2.5340 os        1 44C     -0.342900
     17 C17         9.1380   -1.3830    2.7060 c3        1 44C      0.128400
     18 C18        10.6230   -1.1220    2.9010 c3        1 44C     -0.080400
     19 C19        11.6000   -1.7180    0.6520 c3        1 44C      0.124400
     20 C20        11.2970   -0.6130    1.6460 c3        1 44C     -0.113400
     21 O21        12.6160   -2.6110    1.1180 os        1 44C     -0.328900
     22 C22        13.9220   -2.1750    1.0790 ca        1 44C      0.132100
     23 C23        14.3560   -0.9600    0.5370 ca        1 44C     -0.170500
     24 C24        15.7120   -0.6460    0.5420 ca        1 44C     -0.110500
     25 C25        16.6580   -1.5410    1.0790 ca        1 44C      0.065600
     26 C26        16.2050   -2.7670    1.6180 ca        1 44C     -0.110500
     27 C27        14.8550   -3.0790    1.6230 ca        1 44C     -0.170500
     28 N28        18.0460   -1.2620    1.0040 nh        1 44C     -0.625000
     29 C29        18.8070   -1.0560    2.1630 ca        1 44C      0.190600
     30 C30        18.3030   -1.3170    3.4600 ca        1 44C     -0.190000
     31 C31        19.1100   -1.1670    4.5790 ca        1 44C     -0.069000
     32 C32        20.4340   -0.7380    4.4530 ca        1 44C     -0.179000
     33 C33        20.9450   -0.4620    3.1920 ca        1 44C     -0.045000
     34 C34        20.1570   -0.6290    2.0470 ca        1 44C     -0.241600
     35 C35        20.7650   -0.3160    0.7420 c         1 44C      0.641700
     36 O36        20.7200   -1.2380   -0.2680 oh        1 44C     -0.588100
     37 O37        21.3520    0.7200    0.4250 o         1 44C     -0.491000
     38 H1          0.7740    1.8450   -0.5720 ha        1 44C      0.153000
     39 H2          3.2330    1.6890   -0.0830 ha        1 44C      0.108000
     40 H4          2.4200   -1.3430    2.8920 ha        1 44C      0.108000
     41 H5         -0.0320   -1.1690    2.3770 ha        1 44C      0.153000
     42 H8          4.7690    2.1930    1.5440 ha        1 44C      0.140000
     43 H9          7.2180    2.0230    2.0270 ha        1 44C      0.130500
     44 H11         6.8040   -2.2740    2.4700 ha        1 44C      0.130500
     45 H12         4.3850   -2.0890    1.9770 ha        1 44C      0.140000
     46 H171        8.7080   -1.8860    3.6120 h1        1 44C      0.037700
     47 H172        8.9520   -2.0200    1.8020 h1        1 44C      0.037700
     48 H181       10.7500   -0.3630    3.7170 hc        1 44C      0.057700
     49 H182       11.1070   -2.0780    3.2310 hc        1 44C      0.057700
     50 H191       10.7170   -2.4060    0.5320 h1        1 44C      0.061200
     51 H192       11.8800   -1.2970   -0.3480 h1        1 44C      0.061200
     52 H201       12.2550   -0.1000    1.9280 hc        1 44C      0.062700
     53 H202       10.6330    0.1440    1.1500 hc        1 44C      0.062700
     54 H23        13.6400   -0.2420    0.1110 ha        1 44C      0.150000
     55 H24        16.0350    0.3150    0.1110 ha        1 44C      0.140500
     56 H26        16.9280   -3.4850    2.0360 ha        1 44C      0.140500
     57 H27        14.4990   -4.0320    2.0410 ha        1 44C      0.150000
     58 H28        18.2860   -0.6510    0.2460 hn        1 44C      0.422800
     59 H30        17.2550   -1.6340    3.5870 ha        1 44C      0.152000
     60 H31        18.6960   -1.3780    5.5770 ha        1 44C      0.137000
     61 H32        21.0620   -0.6120    5.3460 ha        1 44C      0.140000
     62 H33        21.9800   -0.1010    3.0750 ha        1 44C      0.148000
     63 H282       20.3440   -2.0700    0.0540 ho        1 44C      0.438000
@<TRIPOS>BOND
     1    1    2 ar  
     2    1    6 ar  
     3    1   38 1   
     4    2    3 ar  
     5    2   39 1   
     6    3    4 ar  
     7    3    7 1   
     8    4    5 ar  
     9    4   40 1   
    10    5    6 ar  
    11    5   41 1   
    12    6   13 1   
    13    7    8 ar  
    14    7   12 ar  
    15    8    9 ar  
    16    8   42 1   
    17    9   10 ar  
    18    9   43 1   
    19   10   11 ar  
    20   10   16 1   
    21   11   12 ar  
    22   11   44 1   
    23   12   45 1   
    24   13   14 1   
    25   13   15 1   
    26   16   17 1   
    27   17   18 1   
    28   17   46 1   
    29   17   47 1   
    30   18   20 1   
    31   18   48 1   
    32   18   49 1   
    33   19   20 1   
    34   19   21 1   
    35   19   50 1   
    36   19   51 1   
    37   20   52 1   
    38   20   53 1   
    39   21   22 1   
    40   22   23 ar  
    41   22   27 ar  
    42   23   24 ar  
    43   23   54 1   
    44   24   25 ar  
    45   24   55 1   
    46   25   26 ar  
    47   25   28 1   
    48   26   27 ar  
    49   26   56 1   
    50   27   57 1   
    51   28   29 1   
    52   28   58 1   
    53   29   30 ar  
    54   29   34 ar  
    55   30   31 ar  
    56   30   59 1   
    57   31   32 ar  
    58   31   60 1   
    59   32   33 ar  
    60   32   61 1   
    61   33   34 ar  
    62   33   62 1   
    63   34   35 1   
    64   35   36 1   
    65   35   37 2   
    66   36   63 1   
@<TRIPOS>SUBSTRUCTURE
     1 44C         1 TEMP              0 ****  ****    0 ROOT
