@<TRIPOS>MOLECULE
44F
   46    47     1     0     0
SMALL
bcc


@<TRIPOS>ATOM
      1 CAA         1.3830    1.9810   -0.2230 c3        1 44F      0.102700
      2 OAQ         2.5880    1.5790    0.4410 os        1 44F     -0.313900
      3 CAW         2.5180    0.4660    1.2330 ca        1 44F      0.170100
      4 CAI         3.6880    0.1940    1.9700 ca        1 44F     -0.158000
      5 CAH         1.4010   -0.3800    1.3300 ca        1 44F     -0.141000
      6 CAT         1.4620   -1.5020    2.1620 ca        1 44F      0.059400
      7 CLC         0.1270   -2.5250    2.2890 cl        1 44F     -0.003400
      8 CAG         2.6210   -1.7880    2.8970 ca        1 44F     -0.140000
      9 CAU         3.7220   -0.9310    2.7990 ca        1 44F     -0.172300
     10 CAM         4.9260   -1.1820    3.6290 c3        1 44F      0.194100
     11 NAN         5.9680   -1.9210    2.7960 n4        1 44F     -0.777000
     12 CAK         7.2180   -2.1590    3.5600 c3        1 44F      0.102800
     13 CAJ         8.3020   -2.9010    2.7670 c3        1 44F     -0.135400
     14 CAL         9.5260   -3.0490    3.6690 c3        1 44F      0.111800
     15 NAO        10.6900   -3.7200    2.9770 n4        1 44F     -0.641800
     16 CAS        11.9500   -3.5890    3.7870 c         1 44F      0.471100
     17 OAB        12.1320   -2.6070    4.4850 o         1 44F     -0.287100
     18 NAP        12.9780   -4.6840    3.6950 n4        1 44F     -0.434200
     19 CAV        12.8760   -5.5190    2.5340 cc        1 44F     -0.251400
     20 CAE        12.0640   -6.7060    2.4680 cc        1 44F     -0.137000
     21 CAD        12.3440   -7.3910    1.3030 cd        1 44F     -0.203100
     22 SAR        13.5130   -6.6590    0.3910 ss        1 44F      0.532200
     23 CAF        13.7120   -5.4090    1.3980 cd        1 44F     -0.221100
     24 H1          1.0780    1.2080   -0.9680 h1        1 44F      0.072033
     25 H2          0.5720    2.1720    0.5190 h1        1 44F      0.072033
     26 H3          1.6890    2.9310   -0.7340 h1        1 44F      0.072033
     27 H4          4.5320    0.8960    1.9040 ha        1 44F      0.152000
     28 H5          0.4780   -0.1600    0.7650 ha        1 44F      0.191000
     29 H6          2.6410   -2.6600    3.5680 ha        1 44F      0.153000
     30 H7          5.3960   -0.2160    3.9720 hx        1 44F      0.114700
     31 H8          4.6880   -1.8270    4.5220 hx        1 44F      0.114700
     32 H9          6.1590   -1.3570    1.9560 hn        1 44F      0.459800
     33 H11         6.9470   -2.7520    4.4830 hx        1 44F      0.122200
     34 H12         7.6120   -1.1520    3.8940 hx        1 44F      0.122200
     35 H13         8.5630   -2.3200    1.8400 hc        1 44F      0.096700
     36 H14         7.9220   -3.9100    2.4490 hc        1 44F      0.096700
     37 H15         9.8740   -2.0260    4.0130 hx        1 44F      0.140700
     38 H16         9.2720   -3.6700    4.5790 hx        1 44F      0.140700
     39 H17        10.8570   -3.2620    2.0640 hn        1 44F      0.496300
     40 H18        12.8900   -5.2690    4.5510 hn        1 44F      0.524300
     41 H19        11.3790   -7.0510    3.2490 ha        1 44F      0.186000
     42 H20        11.8680   -8.3450    1.0260 h4        1 44F      0.245000
     43 H21        14.4420   -4.6060    1.2300 h4        1 44F      0.224000
     44 HAN2        5.5590   -2.8120    2.4860 hn        1 44F      0.459800
     45 HAO2       10.4740   -4.7160    2.7960 hn        1 44F      0.496300
     46 HAP2       13.9140   -4.2200    3.7110 hn        1 44F      0.524300
@<TRIPOS>BOND
     1    1    2 1   
     2    1   24 1   
     3    1   25 1   
     4    1   26 1   
     5    2    3 1   
     6    3    4 ar  
     7    3    5 ar  
     8    4    9 ar  
     9    4   27 1   
    10    5    6 ar  
    11    5   28 1   
    12    6    7 1   
    13    6    8 ar  
    14    8    9 ar  
    15    8   29 1   
    16    9   10 1   
    17   10   11 1   
    18   10   30 1   
    19   10   31 1   
    20   11   12 1   
    21   11   32 1   
    22   11   44 1   
    23   12   13 1   
    24   12   33 1   
    25   12   34 1   
    26   13   14 1   
    27   13   35 1   
    28   13   36 1   
    29   14   15 1   
    30   14   37 1   
    31   14   38 1   
    32   15   16 1   
    33   15   39 1   
    34   15   45 1   
    35   16   17 2   
    36   16   18 1   
    37   18   19 1   
    38   18   40 1   
    39   18   46 1   
    40   19   20 1   
    41   19   23 2   
    42   20   21 2   
    43   20   41 1   
    44   21   22 1   
    45   21   42 1   
    46   22   23 1   
    47   23   43 1   
@<TRIPOS>SUBSTRUCTURE
     1 44F         1 TEMP              0 ****  ****    0 ROOT
