@<TRIPOS>MOLECULE
44F
   43    35     1     0     0
SMALL
bcc


@<TRIPOS>ATOM
      1 CAA        -6.8400   -2.7470   -2.5280 c3        1 44F     -0.078000
      2 OAQ        -5.7010   -3.6310   -2.4170 os        1 44F     -0.206000
      3 CAW        -4.9220   -3.4390   -1.2090 c1        1 44F      0.085000
      4 CAI        -3.5890   -3.0350   -1.2980 c1        1 44F     -0.146500
      5 CAH        -5.4780   -3.7570    0.0460 c1        1 44F     -0.201000
      6 CAT        -4.6940   -3.6700    1.2030 c1        1 44F     -0.039000
      7 CLC        -5.3890   -4.0760    2.7720 cl        1 44F     -0.016000
      8 CAG        -3.3640   -3.2670    1.1130 c1        1 44F     -0.146500
      9 CAU        -2.8060   -2.9470   -0.1420 c1        1 44F     -0.039000
     10 CAM        -1.3160   -2.6030   -0.2500 c2        1 44F     -0.036000
     11 NAN        -1.1130   -1.2340    0.1260 n3        1 44F     -0.303000
     12 CAK         0.2270   -0.8080   -0.2790 c3        1 44F     -0.070000
     13 CAJ         0.5400    0.5680    0.3370 c3        1 44F     -0.173000
     14 CAL         1.9230    1.0810   -0.1990 c3        1 44F     -0.033000
     15 NAO         2.4110    2.1380    0.6560 n3        1 44F     -0.357000
     16 CAS         3.6470    2.7980    0.3480 c1        1 44F      0.378000
     17 OAB         4.3500    2.3870   -0.5730 o         1 44F     -0.378000
     18 NAP         4.1040    3.8850    1.1700 n2        1 44F     -0.289000
     19 CAV         5.3690    4.4870    0.9170 c2        1 44F      0.040000
     20 CAE         6.7360    4.1450    1.6740 c1        1 44F     -0.142000
     21 CAD         7.7920    4.9680    1.1050 c1        1 44F     -0.437000
     22 SAR         7.1640    5.8470   -0.0100 ss        1 44F      0.577000
     23 CAF         5.6460    5.5030   -0.0830 c1        1 44F     -0.519000
     24 H1         -6.5600   -1.8200   -2.3140 h1        1 44F      0.086000
     25 H2         -7.2000   -2.7790   -3.4630 h1        1 44F      0.086000
     26 H3         -7.5380   -3.0320   -1.9000 h1        1 44F      0.086000
     27 H4         -3.1870   -2.8030   -2.2020 ha        1 44F      0.158000
     28 H5         -6.3970   -4.1030    0.1010 ha        1 44F      0.152000
     29 H6         -2.8150   -3.2060    1.9230 ha        1 44F      0.158000
     30 H7         -1.0140   -2.7380   -1.1710 h4        1 44F      0.082500
     31 H8         -0.8090   -3.1800    0.3450 h4        1 44F      0.082500
     32 H9         -1.1990   -1.1520    1.0320 hn        1 44F      0.158000
     33 H11         0.2680   -0.7440   -1.2750 h1        1 44F      0.074000
     34 H12         0.8880   -1.4650    0.0350 h1        1 44F      0.074000
     35 H13        -0.1630    1.2050    0.0900 hc        1 44F      0.093000
     36 H14         0.5800    0.4830    1.3300 hc        1 44F      0.093000
     37 H15         2.5700    0.3370   -0.2030 h1        1 44F      0.095500
     38 H16         1.8130    1.4200   -1.1080 h1        1 44F      0.095500
     39 H17         1.9420    2.3750    1.4040 hn        1 44F      0.206000
     40 H18         3.5460    4.2410    1.8170 hn        1 44F      0.221000
     41 H19         6.8430    3.4970    2.3970 DU        1 44F      0.177000
     42 H20         8.7450    4.9680    1.3810 DU        1 44F      0.177000
     43 H21         4.9900    5.9050   -0.6980 DU        1 44F      0.177000
@<TRIPOS>BOND
     1    1    2 1   
     2    1   24 1   
     3    1   25 1   
     4    1   26 1   
     5    2    3 1   
     6    3    5 1   
     7    4    9 1   
     8    4   27 1   
     9    5   28 1   
    10    6    8 1   
    11    8   29 1   
    12   10   11 1   
    13   10   30 1   
    14   10   31 1   
    15   11   12 1   
    16   11   32 1   
    17   12   13 1   
    18   12   33 1   
    19   12   34 1   
    20   13   14 1   
    21   13   35 1   
    22   13   36 1   
    23   14   15 1   
    24   14   37 1   
    25   14   38 1   
    26   15   16 1   
    27   15   39 1   
    28   16   17 1   
    29   18   19 1   
    30   18   40 1   
    31   19   20 1   
    32   19   23 1   
    33   20   21 1   
    34   21   22 1   
    35   22   23 1   
@<TRIPOS>SUBSTRUCTURE
     1 44F         1 TEMP              0 ****  ****    0 ROOT
