@<TRIPOS>MOLECULE
44F
   43    44     1     0     0
SMALL
bcc


@<TRIPOS>ATOM
      1 CAA         8.4470    2.3360    0.5600 c3        1 44F      0.111700
      2 OAQ         7.1270    2.4430    0.0390 os        1 44F     -0.325900
      3 CAW         6.3770    1.2830    0.0300 ca        1 44F      0.132100
      4 CAI         5.0830    1.4250   -0.5050 ca        1 44F     -0.153000
      5 CAH         6.8300    0.0490    0.5070 ca        1 44F     -0.200000
      6 CAT         5.9660   -1.0490    0.4400 ca        1 44F      0.048400
      7 CLC         6.5000   -2.5570    1.0170 cl        1 44F     -0.093400
      8 CAG         4.6810   -0.9300   -0.0900 ca        1 44F     -0.140000
      9 CAU         4.2440    0.3140   -0.5630 ca        1 44F     -0.056300
     10 CAM         2.8770    0.4510   -1.1700 c3        1 44F      0.207100
     11 NAN         1.8210   -0.1000   -0.3410 n3        1 44F     -0.824200
     12 CAK         0.4970    0.2710   -0.7990 c3        1 44F      0.165800
     13 CAJ        -0.6090   -0.2200    0.1340 c3        1 44F     -0.094400
     14 CAL        -1.9580    0.1930   -0.4500 c3        1 44F      0.083000
     15 NAO        -3.0740   -0.2740    0.3410 n         1 44F     -0.547900
     16 CAS        -4.3660    0.0650   -0.1170 c         1 44F      0.751100
     17 OAB        -4.5230    0.5260   -1.2700 o         1 44F     -0.617100
     18 NAP        -5.4480   -0.1390    0.7700 n         1 44F     -0.435100
     19 CAV        -6.7790   -0.1370    0.3460 cc        1 44F      0.032600
     20 CAE        -7.2970    0.5710   -0.8050 cc        1 44F     -0.142000
     21 CAD        -8.6600    0.4290   -0.9010 cd        1 44F     -0.167100
     22 SAR        -9.2880   -0.5060    0.3310 ss        1 44F      0.037200
     23 CAF        -7.8080   -0.7750    1.0390 cd        1 44F     -0.249100
     24 H1          8.4230    2.0260    1.6330 h1        1 44F      0.047033
     25 H2          9.0520    1.6170   -0.0430 h1        1 44F      0.047033
     26 H3          8.8510    3.3750    0.4580 h1        1 44F      0.047033
     27 H4          4.7580    2.4100   -0.8700 ha        1 44F      0.153000
     28 H5          7.8390   -0.0660    0.9270 ha        1 44F      0.152000
     29 H6          4.0110   -1.8030   -0.1410 ha        1 44F      0.164000
     30 H7          2.6950    1.5400   -1.4200 h1        1 44F      0.043700
     31 H8          2.8640   -0.1180   -2.1460 h1        1 44F      0.043700
     32 H9          1.9510    0.1570    0.6200 hn        1 44F      0.362800
     33 H11         0.3870    1.3910   -0.9260 h1        1 44F      0.035200
     34 H12         0.3510   -0.1930   -1.8170 h1        1 44F      0.035200
     35 H13        -0.5540   -1.3350    0.2360 hc        1 44F      0.053700
     36 H14        -0.4760    0.2220    1.1550 hc        1 44F      0.053700
     37 H15        -1.9900    1.3180   -0.5540 h1        1 44F      0.056200
     38 H16        -2.0740   -0.2380   -1.4860 h1        1 44F      0.056200
     39 H17        -2.9190   -0.2990    1.3240 hn        1 44F      0.292500
     40 H18        -5.2810   -0.7010    1.5770 hn        1 44F      0.307500
     41 H19        -6.6580    1.1280   -1.4980 ha        1 44F      0.190000
     42 H20        -9.2790    0.8670   -1.6820 h4        1 44F      0.173000
     43 H21        -7.6910   -1.3760    1.9380 h4        1 44F      0.168000
@<TRIPOS>BOND
     1    1    2 1   
     2    1   24 1   
     3    1   25 1   
     4    1   26 1   
     5    2    3 1   
     6    3    4 ar  
     7    3    5 ar  
     8    4    9 ar  
     9    4   27 1   
    10    5    6 ar  
    11    5   28 1   
    12    6    7 1   
    13    6    8 ar  
    14    8    9 ar  
    15    8   29 1   
    16    9   10 1   
    17   10   11 1   
    18   10   30 1   
    19   10   31 1   
    20   11   12 1   
    21   11   32 1   
    22   12   13 1   
    23   12   33 1   
    24   12   34 1   
    25   13   14 1   
    26   13   35 1   
    27   13   36 1   
    28   14   15 1   
    29   14   37 1   
    30   14   38 1   
    31   15   16 1   
    32   15   39 1   
    33   16   17 2   
    34   16   18 1   
    35   18   19 1   
    36   18   40 1   
    37   19   20 1   
    38   19   23 2   
    39   20   21 2   
    40   20   41 1   
    41   21   22 1   
    42   21   42 1   
    43   22   23 1   
    44   23   43 1   
@<TRIPOS>SUBSTRUCTURE
     1 44F         1 TEMP              0 ****  ****    0 ROOT
