@<TRIPOS>MOLECULE
44F
   45    46     1     0     0
SMALL
bcc


@<TRIPOS>ATOM
      1 CAA        -0.1590    0.0130    0.1720 c3        1 44F      0.103700
      2 OAQ         1.2280   -0.3350    0.2080 os        1 44F     -0.314900
      3 CAW         1.9250    0.0170    1.3330 ca        1 44F      0.165100
      4 CAI         3.3080   -0.2480    1.2760 ca        1 44F     -0.157000
      5 CAH         1.3540    0.5860    2.4830 ca        1 44F     -0.152000
      6 CAT         2.1740    0.8860    3.5750 ca        1 44F      0.059400
      7 CLC         1.5020    1.5740    4.9620 cl        1 44F     -0.016400
      8 CAG         3.5500    0.6230    3.5340 ca        1 44F     -0.140000
      9 CAU         4.1040    0.0620    2.3800 ca        1 44F     -0.161300
     10 CAM         5.5720   -0.1710    2.3040 c3        1 44F      0.184100
     11 NAN         5.8770   -1.6230    2.6050 n4        1 44F     -0.771000
     12 CAK         7.3310   -1.9170    2.4980 c3        1 44F      0.102800
     13 CAJ         7.6770   -3.3740    2.8060 c3        1 44F     -0.135400
     14 CAL         9.1920   -3.5370    2.6920 c3        1 44F      0.104800
     15 NAO         9.6760   -4.8940    3.0560 n4        1 44F     -0.687800
     16 CAS        11.2450   -4.8680    3.2410 c         1 44F      0.629100
     17 OAB        11.5730   -4.0860    4.1330 o         1 44F     -0.468100
     18 NAP        11.9860   -5.5560    2.3200 n         1 44F     -0.324100
     19 CAV        13.3520   -5.8120    2.5730 cc        1 44F     -0.097400
     20 CAE        14.2690   -4.8770    3.1650 cc        1 44F     -0.121000
     21 CAD        15.5420   -5.4130    3.1910 cd        1 44F     -0.193100
     22 SAR        15.6010   -6.9360    2.5460 ss        1 44F      0.293200
     23 CAF        13.9990   -7.0030    2.2090 cd        1 44F     -0.230100
     24 H1         -0.4740   -0.3250   -0.8500 h1        1 44F      0.067700
     25 H2         -0.2900    1.1160    0.2820 h1        1 44F      0.067700
     26 H3         -0.7180   -0.5410    0.9640 h1        1 44F      0.067700
     27 H4          3.7320   -0.6620    0.3500 ha        1 44F      0.153000
     28 H5          0.2740    0.8040    2.5260 ha        1 44F      0.185000
     29 H6          4.1830    0.8860    4.3950 ha        1 44F      0.155000
     30 H7          5.9640    0.0510    1.2700 hx        1 44F      0.113700
     31 H8          6.1280    0.4590    3.0570 hx        1 44F      0.113700
     32 H9          5.3460   -2.2090    1.9470 hn        1 44F      0.456800
     33 H11         7.8740   -1.2340    3.2170 hx        1 44F      0.118700
     34 H12         7.6600   -1.6590    1.4490 hx        1 44F      0.118700
     35 H13         7.3350   -3.6420    3.8430 hc        1 44F      0.086700
     36 H14         7.1570   -4.0590    2.0840 hc        1 44F      0.086700
     37 H15         9.5270   -3.3250    1.6350 hx        1 44F      0.126200
     38 H16         9.7080   -2.8000    3.3820 hx        1 44F      0.126200
     39 H17         9.2930   -5.1640    3.9700 hn        1 44F      0.454300
     40 H18        11.5450   -6.2280    1.7220 hn        1 44F      0.341500
     41 H19        13.9840   -3.8930    3.5450 ha        1 44F      0.179000
     42 H20        16.4180   -4.8940    3.5920 h4        1 44F      0.208000
     43 H21        13.5200   -7.8680    1.7470 h4        1 44F      0.189000
     44 HAN2        5.5410   -1.8390    3.5520 hn        1 44F      0.456800
     45 HAO2        9.3700   -5.5770    2.3620 hn        1 44F      0.454300
@<TRIPOS>BOND
     1    1    2 1   
     2    1   24 1   
     3    1   25 1   
     4    1   26 1   
     5    2    3 1   
     6    3    4 ar  
     7    3    5 ar  
     8    4    9 ar  
     9    4   27 1   
    10    5    6 ar  
    11    5   28 1   
    12    6    7 1   
    13    6    8 ar  
    14    8    9 ar  
    15    8   29 1   
    16    9   10 1   
    17   10   11 1   
    18   10   30 1   
    19   10   31 1   
    20   11   12 1   
    21   11   32 1   
    22   11   44 1   
    23   12   13 1   
    24   12   33 1   
    25   12   34 1   
    26   13   14 1   
    27   13   35 1   
    28   13   36 1   
    29   14   15 1   
    30   14   37 1   
    31   14   38 1   
    32   15   16 1   
    33   15   39 1   
    34   15   45 1   
    35   16   17 2   
    36   16   18 1   
    37   18   19 1   
    38   18   40 1   
    39   19   20 1   
    40   19   23 2   
    41   20   21 2   
    42   20   41 1   
    43   21   22 1   
    44   21   42 1   
    45   22   23 1   
    46   23   43 1   
@<TRIPOS>SUBSTRUCTURE
     1 44F         1 TEMP              0 ****  ****    0 ROOT
