@<TRIPOS>MOLECULE
44F
   45    46     1     0     0
SMALL
bcc


@<TRIPOS>ATOM
      1 CAA        -0.1600    0.0140    0.1760 c3        1 44F      0.103700
      2 OAQ         1.2280   -0.3330    0.2120 os        1 44F     -0.314900
      3 CAW         1.9250    0.0170    1.3380 ca        1 44F      0.165100
      4 CAI         3.3080   -0.2470    1.2800 ca        1 44F     -0.157000
      5 CAH         1.3540    0.5850    2.4880 ca        1 44F     -0.152000
      6 CAT         2.1740    0.8830    3.5800 ca        1 44F      0.059400
      7 ClC         1.5020    1.5690    4.9690 cl        1 44F     -0.016400
      8 CAG         3.5490    0.6210    3.5390 ca        1 44F     -0.140000
      9 CAU         4.1040    0.0610    2.3840 ca        1 44F     -0.161300
     10 CAM         5.5720   -0.1710    2.3090 c3        1 44F      0.184100
     11 NAN         5.8770   -1.6250    2.6050 ny        1 44F     -0.771000
     12 CAK         7.3310   -1.9180    2.4990 c3        1 44F      0.102800
     13 CAJ         7.6770   -3.3770    2.8000 c3        1 44F     -0.135400
     14 CAL         9.1920   -3.5390    2.6890 c3        1 44F      0.104800
     15 NAO         9.6750   -4.8980    3.0460 ny        1 44F     -0.687800
     16 CAS        11.2430   -4.8720    3.2370 c         1 44F      0.629100
     17 OAB        11.5670   -4.0990    4.1380 o         1 44F     -0.468100
     18 NAP        11.9890   -5.5490    2.3120 ns        1 44F     -0.324100
     19 CAV        13.3540   -5.8070    2.5670 cc        1 44F     -0.097400
     20 CAE        14.2680   -4.8780    3.1740 cc        1 44F     -0.121000
     21 CAD        15.5410   -5.4110    3.1990 cd        1 44F     -0.193100
     22 SAR        15.6050   -6.9270    2.5360 ss        1 44F      0.293200
     23 CAF        14.0040   -6.9920    2.1920 cd        1 44F     -0.230100
     24 H1         -0.2910    1.1170    0.2880 h1        1 44F      0.067700
     25 H2         -0.4740   -0.3240   -0.8450 h1        1 44F      0.067700
     26 H3         -0.7180   -0.5410    0.9680 h1        1 44F      0.067700
     27 H4          3.7320   -0.6600    0.3530 ha        1 44F      0.153000
     28 H5          0.2740    0.8030    2.5320 ha        1 44F      0.185000
     29 H6          4.1830    0.8820    4.4010 ha        1 44F      0.155000
     30 H7          5.9640    0.0540    1.2760 hx        1 44F      0.113700
     31 H8          6.1270    0.4560    3.0640 hx        1 44F      0.113700
     32 H9          5.3470   -2.2080    1.9440 hn        1 44F      0.456800
     33 H11         7.8720   -1.2380    3.2220 hx        1 44F      0.118700
     34 H12         7.6620   -1.6540    1.4520 hx        1 44F      0.118700
     35 H13         7.1580   -4.0580    2.0720 hc        1 44F      0.086700
     36 H14         7.3320   -3.6500    3.8340 hc        1 44F      0.086700
     37 H15         9.7060   -2.8060    3.3860 hx        1 44F      0.126200
     38 H16         9.5300   -3.3190    1.6340 hx        1 44F      0.126200
     39 H17         9.2890   -5.1730    3.9570 hn        1 44F      0.454300
     40 H18        11.5500   -6.2160    1.7060 hn        1 44F      0.341500
     41 H19        13.9790   -3.8980    3.5640 ha        1 44F      0.179000
     42 H20        16.4150   -4.8960    3.6090 h4        1 44F      0.208000
     43 H21        13.5280   -7.8520    1.7170 h4        1 44F      0.189000
     44 HAN2        5.5400   -1.8440    3.5500 hn        1 44F      0.456800
     45 HAO2        9.3730   -5.5760    2.3460 hn        1 44F      0.454300
@<TRIPOS>BOND
     1    1    2 1   
     2    1   24 1   
     3    1   25 1   
     4    1   26 1   
     5    2    3 1   
     6    3    4 ar  
     7    3    5 ar  
     8    4    9 ar  
     9    4   27 1   
    10    5    6 ar  
    11    5   28 1   
    12    6    7 1   
    13    6    8 ar  
    14    8    9 ar  
    15    8   29 1   
    16    9   10 1   
    17   10   11 1   
    18   10   30 1   
    19   10   31 1   
    20   11   12 1   
    21   11   32 1   
    22   11   44 1   
    23   12   13 1   
    24   12   33 1   
    25   12   34 1   
    26   13   14 1   
    27   13   35 1   
    28   13   36 1   
    29   14   15 1   
    30   14   37 1   
    31   14   38 1   
    32   15   16 1   
    33   15   39 1   
    34   15   45 1   
    35   16   17 2   
    36   16   18 1   
    37   18   19 1   
    38   18   40 1   
    39   19   20 1   
    40   19   23 2   
    41   20   21 2   
    42   20   41 1   
    43   21   22 1   
    44   21   42 1   
    45   22   23 1   
    46   23   43 1   
@<TRIPOS>SUBSTRUCTURE
     1 44F         1 TEMP              0 ****  ****    0 ROOT
