@<TRIPOS>MOLECULE
44I
   76    79     1     0     0
SMALL
bcc


@<TRIPOS>ATOM
      1 C01         2.1670    0.7810   -3.1760 c3        1 44I      0.079100
      2 N05         2.3320    1.7630   -2.0790 ny        1 44I     -0.757000
      3 C07         2.8810    1.1320   -0.8400 c3        1 44I      0.089800
      4 C10         3.0910    2.1780    0.2790 c3        1 44I      0.152800
      5 N13         3.5170    1.5460    1.5200 n3        1 44I     -0.720600
      6 C14         3.3020    2.4530    2.6460 c3        1 44I      0.169800
      7 C17         4.0150    2.0780    3.9460 c3        1 44I     -0.071700
      8 C19         5.4790    1.7870    3.6740 c3        1 44I     -0.084400
      9 C22         5.5240    0.6020    2.7280 c3        1 44I     -0.071700
     10 C24         4.8550    0.9760    1.4040 c3        1 44I      0.169800
     11 C27         4.8870   -0.6270    3.3810 c3        1 44I      0.095500
     12 N30         3.6050   -0.3980    4.0270 n         1 44I     -0.450800
     13 C31         3.3770    0.8780    4.6590 c3        1 44I      0.095500
     14 C34         2.8400   -1.5180    4.3160 c         1 44I      0.624100
     15 O35         3.1230   -2.6110    3.7790 o         1 44I     -0.620100
     16 C36         1.6170   -1.4190    5.2710 c3        1 44I      0.055700
     17 C38         2.1140   -1.1760    6.6970 c3        1 44I     -0.107100
     18 N42         0.7430   -2.5730    5.1860 n         1 44I     -0.421800
     19 C43         0.0280   -2.8240    3.9390 c3        1 44I      0.070000
     20 C46        -0.4960   -4.2750    3.9860 c3        1 44I     -0.097400
     21 C49         0.2930   -4.9490    5.1240 c3        1 44I      0.035500
     22 N51        -0.4730   -5.8050    6.0290 n8        1 44I     -0.995800
     23 S53        -0.4990   -7.9650    5.4340 s4        1 44I      1.663300
     24 O54        -1.8190   -7.9710    5.0830 o         1 44I     -0.449400
     25 O55         0.4960   -7.8800    4.5060 o         1 44I     -0.449400
     26 C56        -0.1430   -8.5090    6.8540 ca        1 44I     -0.615500
     27 C57         1.2340   -8.6350    7.2460 ca        1 44I     -0.044000
     28 C59         1.5900   -9.1450    8.4600 ca        1 44I     -0.107000
     29 C61         0.5990   -9.5790    9.3890 ca        1 44I      0.072000
     30 C62         0.9460  -10.1170   10.6490 ca        1 44I     -0.155000
     31 C64        -0.0460  -10.5340   11.5200 ca        1 44I      0.094400
     32 Cl          0.3560  -11.1780   13.0220 cl        1 44I     -0.002400
     33 C66        -1.4200  -10.4290   11.1610 ca        1 44I     -0.118000
     34 C68        -1.7750   -9.9080    9.9440 ca        1 44I     -0.070000
     35 C70        -0.7760   -9.4670    9.0240 ca        1 44I     -0.103000
     36 C71        -1.1160   -8.9350    7.7720 ca        1 44I      0.105000
     37 C73         0.9850   -3.7670    5.8650 c         1 44I      0.682500
     38 O74         1.5700   -3.9280    6.9430 o         1 44I     -0.593500
     39 H1          1.4650   -0.0330   -2.8490 hx        1 44I      0.113367
     40 H2          1.7440    1.3030   -4.0780 hx        1 44I      0.113367
     41 H3          3.1640    0.3330   -3.4340 hx        1 44I      0.113367
     42 H4          2.9680    2.5120   -2.3840 hn        1 44I      0.455800
     43 H6          3.8610    0.6430   -1.1090 hx        1 44I      0.115700
     44 H7          2.1590    0.3350   -0.5010 hx        1 44I      0.115700
     45 H8          2.1130    2.7040    0.4750 h1        1 44I      0.052200
     46 H9          3.8340    2.9480   -0.0890 h1        1 44I      0.052200
     47 H11         2.1900    2.4690    2.8330 h1        1 44I      0.039950
     48 H12         3.6240    3.5060    2.3840 h1        1 44I      0.039950
     49 H13         3.9180    2.9590    4.6400 hc        1 44I      0.083700
     50 H14         5.9800    2.6780    3.2150 hc        1 44I      0.067200
     51 H15         6.0150    1.5460    4.6280 hc        1 44I      0.067200
     52 H16         6.5930    0.3320    2.4950 hc        1 44I      0.083700
     53 H17         5.5540    1.6810    0.8600 h1        1 44I      0.039950
     54 H18         4.7530    0.0410    0.7810 h1        1 44I      0.039950
     55 H19         4.7470   -1.4290    2.5980 h1        1 44I      0.056950
     56 H20         5.6110   -1.0240    4.1520 h1        1 44I      0.056950
     57 H21         3.8080    0.8600    5.7060 h1        1 44I      0.056950
     58 H22         2.2670    1.0600    4.7340 h1        1 44I      0.056950
     59 H23         0.9810   -0.5420    4.9380 h1        1 44I      0.078700
     60 H24         2.9560   -1.8670    6.9460 hc        1 44I      0.067367
     61 H25         1.2940   -1.3520    7.4370 hc        1 44I      0.067367
     62 H26         2.4530   -0.1190    6.8040 hc        1 44I      0.067367
     63 H27         0.7110   -2.6860    3.0540 h1        1 44I      0.070200
     64 H28        -0.8230   -2.0950    3.8620 h1        1 44I      0.070200
     65 H29        -0.3000   -4.7910    3.0150 hc        1 44I      0.078700
     66 H30        -1.5990   -4.2780    4.1680 hc        1 44I      0.078700
     67 H31         1.1260   -5.5800    4.6840 h1        1 44I      0.131700
     68 H32        -0.0610   -5.7490    6.9550 hn        1 44I      0.419300
     69 H33         2.0120   -8.3160    6.5270 ha        1 44I      0.167000
     70 H34         2.6540   -9.2360    8.7420 ha        1 44I      0.175000
     71 H35         2.0110  -10.2000   10.9230 ha        1 44I      0.177000
     72 H36        -2.1910  -10.7730   11.8730 ha        1 44I      0.181000
     73 H37        -2.8370   -9.8260    9.6580 ha        1 44I      0.160000
     74 H38        -2.1880   -8.8620    7.4980 ha        1 44I      0.166000
     75 H052        1.4240    2.1930   -1.8630 hn        1 44I      0.455800
     76 H512       -1.4310   -5.4890    6.0850 hn        1 44I      0.419300
@<TRIPOS>BOND
     1    1    2 1   
     2    1   39 1   
     3    1   40 1   
     4    1   41 1   
     5    2    3 1   
     6    2   42 1   
     7    2   75 1   
     8    3    4 1   
     9    3   43 1   
    10    3   44 1   
    11    4    5 1   
    12    4   45 1   
    13    4   46 1   
    14    5    6 1   
    15    5   10 1   
    16    6    7 1   
    17    6   47 1   
    18    6   48 1   
    19    7    8 1   
    20    7   13 1   
    21    7   49 1   
    22    8    9 1   
    23    8   50 1   
    24    8   51 1   
    25    9   10 1   
    26    9   11 1   
    27    9   52 1   
    28   10   53 1   
    29   10   54 1   
    30   11   12 1   
    31   11   55 1   
    32   11   56 1   
    33   12   13 1   
    34   12   14 1   
    35   13   57 1   
    36   13   58 1   
    37   14   15 2   
    38   14   16 1   
    39   16   17 1   
    40   16   18 1   
    41   16   59 1   
    42   17   60 1   
    43   17   61 1   
    44   17   62 1   
    45   18   19 1   
    46   18   37 1   
    47   19   20 1   
    48   19   63 1   
    49   19   64 1   
    50   20   21 1   
    51   20   65 1   
    52   20   66 1   
    53   21   22 1   
    54   21   37 1   
    55   21   67 1   
    56   22   68 1   
    57   22   76 1   
    58   23   24 1   
    59   23   25 1   
    60   23   26 1   
    61   26   27 ar  
    62   26   36 ar  
    63   27   28 ar  
    64   27   69 1   
    65   28   29 ar  
    66   28   70 1   
    67   29   30 ar  
    68   29   35 ar  
    69   30   31 ar  
    70   30   71 1   
    71   31   32 1   
    72   31   33 ar  
    73   33   34 ar  
    74   33   72 1   
    75   34   35 ar  
    76   34   73 1   
    77   35   36 ar  
    78   36   74 1   
    79   37   38 2   
@<TRIPOS>SUBSTRUCTURE
     1 44I         1 TEMP              0 ****  ****    0 ROOT
