@<TRIPOS>MOLECULE
44I
   76    79     1     0     0
SMALL
bcc


@<TRIPOS>ATOM
      1 C01         2.4100    0.7480   -3.1830 c3        1 44I      0.079100
      2 N05         2.4800    1.7420   -2.0870 n4        1 44I     -0.757000
      3 C07         2.9890    1.1410   -0.8160 c3        1 44I      0.089800
      4 C10         3.0990    2.2010    0.3030 c3        1 44I      0.152800
      5 N13         3.4860    1.5940    1.5700 n3        1 44I     -0.720600
      6 C14         3.1760    2.4980    2.6760 c3        1 44I      0.169800
      7 C17         3.8370    2.1600    4.0140 c3        1 44I     -0.071700
      8 C19         5.3230    1.9270    3.8190 c3        1 44I     -0.084400
      9 C22         5.4650    0.7400    2.8860 c3        1 44I     -0.071700
     10 C24         4.8500    1.0790    1.5270 c3        1 44I      0.169800
     11 C27         4.8450   -0.5110    3.5150 c3        1 44I      0.095500
     12 N30         3.5230   -0.3310    4.0930 n         1 44I     -0.450800
     13 C31         3.2120    0.9400    4.7030 c3        1 44I      0.095500
     14 C34         2.7910   -1.4790    4.3530 c         1 44I      0.624100
     15 O35         3.1470   -2.5620    3.8400 o         1 44I     -0.620100
     16 C36         1.5180   -1.4240    5.2420 c3        1 44I      0.055700
     17 C38         1.9290   -1.1510    6.6890 c3        1 44I     -0.107100
     18 N42         0.6970   -2.6150    5.1220 n         1 44I     -0.421800
     19 C43         0.0590   -2.9040    3.8420 c3        1 44I      0.070000
     20 C46        -0.4060   -4.3740    3.8750 c3        1 44I     -0.097400
     21 C49         0.3490   -5.0070    5.0590 c3        1 44I      0.035500
     22 N51        -0.4280   -5.8880    5.9310 n3        1 44I     -0.995800
     23 S53        -0.3330   -8.0520    5.3570 s4        1 44I      1.663300
     24 O54        -1.6310   -8.1160    4.9380 o         1 44I     -0.449400
     25 O55         0.7050   -7.9330    4.4820 o         1 44I     -0.449400
     26 C56        -0.0300   -8.5690    6.7990 ca        1 44I     -0.615500
     27 C57         1.3280   -8.6330    7.2640 ca        1 44I     -0.044000
     28 C59         1.6410   -9.1180    8.5000 ca        1 44I     -0.107000
     29 C61         0.6210   -9.5850    9.3810 ca        1 44I      0.072000
     30 C62         0.9230  -10.0980   10.6630 ca        1 44I     -0.155000
     31 C64        -0.0950  -10.5500   11.4850 ca        1 44I      0.094400
     32 CL          0.2540  -11.1640   13.0130 cl        1 44I     -0.002400
     33 C66        -1.4520  -10.5050   11.0530 ca        1 44I     -0.118000
     34 C68        -1.7630  -10.0100    9.8140 ca        1 44I     -0.070000
     35 C70        -0.7360   -9.5350    8.9430 ca        1 44I     -0.103000
     36 C71        -1.0310   -9.0280    7.6700 ca        1 44I      0.105000
     37 C73         0.9520   -3.7920    5.8240 c         1 44I      0.682500
     38 O74         1.4860   -3.9220    6.9330 o         1 44I     -0.593500
     39 H1          3.4360    0.3390   -3.3860 hx        1 44I      0.113367
     40 H2          1.7250   -0.0910   -2.8860 hx        1 44I      0.113367
     41 H3          2.0140    1.2480   -4.1090 hx        1 44I      0.113367
     42 H4          1.5460    2.1370   -1.9210 hn        1 44I      0.455800
     43 H6          3.9990    0.6900   -1.0310 hx        1 44I      0.115700
     44 H7          2.2820    0.3180   -0.5080 hx        1 44I      0.115700
     45 H8          3.8280    2.9990   -0.0320 h1        1 44I      0.052200
     46 H9          2.0920    2.6880    0.4460 h1        1 44I      0.052200
     47 H11         3.4690    3.5620    2.4230 h1        1 44I      0.039950
     48 H12         2.0560    2.4700    2.8060 h1        1 44I      0.039950
     49 H13         3.6680    3.0400    4.6960 hc        1 44I      0.083700
     50 H14         5.8100    2.8350    3.3800 hc        1 44I      0.067200
     51 H15         5.8180    1.7140    4.8010 hc        1 44I      0.067200
     52 H16         6.5540    0.5120    2.7100 hc        1 44I      0.083700
     53 H17         4.8180    0.1370    0.9070 h1        1 44I      0.039950
     54 H18         5.5460    1.8080    1.0130 h1        1 44I      0.039950
     55 H19         4.7790   -1.3220    2.7330 h1        1 44I      0.056950
     56 H20         5.5440   -0.8730    4.3260 h1        1 44I      0.056950
     57 H21         3.5880    0.9450    5.7700 h1        1 44I      0.056950
     58 H22         2.0930    1.0750    4.7190 h1        1 44I      0.056950
     59 H23         0.8640   -0.5780    4.8690 h1        1 44I      0.078700
     60 H24         1.0800   -1.3570    7.3880 hc        1 44I      0.067367
     61 H25         2.2170   -0.0810    6.8040 hc        1 44I      0.067367
     62 H26         2.7850   -1.8040    6.9880 hc        1 44I      0.067367
     63 H27        -0.8160   -2.2110    3.7150 h1        1 44I      0.070200
     64 H28         0.7820   -2.7440    2.9930 h1        1 44I      0.070200
     65 H29        -1.5170   -4.4220    3.9990 hc        1 44I      0.078700
     66 H30        -0.1390   -4.8890    2.9200 hc        1 44I      0.078700
     67 H31         1.2290   -5.6070    4.6690 h1        1 44I      0.131700
     68 H32        -1.4000   -5.6120    5.9340 hn        1 44I      0.419300
     69 H33         2.1290   -8.2880    6.5840 ha        1 44I      0.167000
     70 H34         2.6910   -9.1610    8.8390 ha        1 44I      0.175000
     71 H35         1.9750  -10.1330   10.9930 ha        1 44I      0.177000
     72 H36        -2.2430  -10.8760   11.7280 ha        1 44I      0.181000
     73 H37        -2.8110   -9.9760    9.4720 ha        1 44I      0.160000
     74 H38        -2.0900   -9.0020    7.3390 ha        1 44I      0.166000
     75 H052        3.1000    2.5140   -2.3640 hn        1 44I      0.455800
     76 H512       -0.0690   -5.8080    6.8760 hn        1 44I      0.419300
@<TRIPOS>BOND
     1    1    2 1   
     2    1   39 1   
     3    1   40 1   
     4    1   41 1   
     5    2    3 1   
     6    2   42 1   
     7    2   75 1   
     8    3    4 1   
     9    3   43 1   
    10    3   44 1   
    11    4    5 1   
    12    4   45 1   
    13    4   46 1   
    14    5    6 1   
    15    5   10 1   
    16    6    7 1   
    17    6   47 1   
    18    6   48 1   
    19    7    8 1   
    20    7   13 1   
    21    7   49 1   
    22    8    9 1   
    23    8   50 1   
    24    8   51 1   
    25    9   10 1   
    26    9   11 1   
    27    9   52 1   
    28   10   53 1   
    29   10   54 1   
    30   11   12 1   
    31   11   55 1   
    32   11   56 1   
    33   12   13 1   
    34   12   14 1   
    35   13   57 1   
    36   13   58 1   
    37   14   15 2   
    38   14   16 1   
    39   16   17 1   
    40   16   18 1   
    41   16   59 1   
    42   17   60 1   
    43   17   61 1   
    44   17   62 1   
    45   18   19 1   
    46   18   37 1   
    47   19   20 1   
    48   19   63 1   
    49   19   64 1   
    50   20   21 1   
    51   20   65 1   
    52   20   66 1   
    53   21   22 1   
    54   21   37 1   
    55   21   67 1   
    56   22   68 1   
    57   22   76 1   
    58   23   24 1   
    59   23   25 1   
    60   23   26 1   
    61   26   27 ar  
    62   26   36 ar  
    63   27   28 ar  
    64   27   69 1   
    65   28   29 ar  
    66   28   70 1   
    67   29   30 ar  
    68   29   35 ar  
    69   30   31 ar  
    70   30   71 1   
    71   31   32 1   
    72   31   33 ar  
    73   33   34 ar  
    74   33   72 1   
    75   34   35 ar  
    76   34   73 1   
    77   35   36 ar  
    78   36   74 1   
    79   37   38 2   
@<TRIPOS>SUBSTRUCTURE
     1 44I         1 TEMP              0 ****  ****    0 ROOT
