@<TRIPOS>MOLECULE
44O
   67    71     1     0     0
SMALL
bcc


@<TRIPOS>ATOM
      1 C4         -0.3720    0.7920   -1.4490 ca        1 44O      0.454800
      2 C5          0.1340    2.0310   -0.8790 ca        1 44O     -0.231200
      3 C6          1.3880    1.9790   -0.1770 ca        1 44O      0.782200
      4 C8         -1.7850    2.5230   -1.7880 cc        1 44O      0.423700
      5 N1          2.0370    0.7580   -0.0910 nb        1 44O     -0.777000
      6 N3          0.3030   -0.3950   -1.4030 nb        1 44O     -0.835000
      7 CBI         7.6740   -5.1120   -6.4930 c3        1 44O      0.065700
      8 NAU         6.9040   -5.9820   -7.3680 n         1 44O     -0.527900
      9 CBA         7.3000   -5.7660   -8.7220 c         1 44O      0.756500
     10 OAC         6.7210   -6.2500   -9.7090 o         1 44O     -0.610500
     11 NAT         8.5050   -5.0090   -8.7650 n         1 44O     -0.518900
     12 CBF         8.7650   -4.4440   -7.4460 c3        1 44O      0.065700
     13 CAO         8.6960   -2.9260   -7.3390 c3        1 44O     -0.035300
     14 SAY         7.1770   -2.4670   -6.5630 ss        1 44O     -0.315200
     15 CBH         6.9250   -4.0220   -5.7210 c3        1 44O     -0.010600
     16 CAK         5.4450   -4.2600   -5.5350 c3        1 44O     -0.070400
     17 CAI         4.8430   -3.2260   -4.6010 c3        1 44O     -0.082400
     18 CAH         3.3400   -3.3960   -4.5220 c3        1 44O     -0.090400
     19 CAJ         2.7320   -2.2910   -3.6740 c3        1 44O     -0.149400
     20 CAZ         1.2450   -2.4780   -3.5770 c         1 44O      0.571100
     21 OAB         0.6470   -3.4050   -3.0530 o         1 44O     -0.410100
     22 NAV         0.3780   -1.4130   -4.1940 n4        1 44O     -0.648700
     23 SBK         0.0100   -1.5780   -5.9860 s6        1 44O      1.629400
     24 OAD         0.0150   -0.2970   -6.4590 o         1 44O     -0.565300
     25 OAE         0.7890   -2.6100   -6.4240 o         1 44O     -0.565300
     26 CAN        -2.6830   -1.3130   -5.8610 c3        1 44O      0.179400
     27 CBE        -3.1450   -1.1430   -4.4140 c3        1 44O      0.066100
     28 OAX        -2.2130   -0.2320   -3.8170 os        1 44O     -0.507600
     29 CAL        -4.5870   -0.6010   -4.3980 c3        1 44O      0.136800
     30 NAS        -5.0120   -0.1070   -3.1110 n3        1 44O     -0.790200
     31 CAM        -4.0480    0.7850   -2.5210 c3        1 44O      0.131800
     32 CBG        -2.6040    0.1930   -2.4790 c3        1 44O      0.228800
     33 N9         -1.6160    1.1250   -2.0200 na        1 44O     -0.288000
     34 N7         -0.7700    3.0780   -1.1220 nd        1 44O     -0.510100
     35 C2          1.4600   -0.3050   -0.6900 ca        1 44O      0.692900
     36 N6          1.9250    3.1000    0.3720 nh        1 44O     -0.925500
     37 H1         -2.6760    3.0590   -2.1430 h5        1 44O      0.090800
     38 H4          8.6480   -4.4350   -9.5630 hn        1 44O      0.321500
     39 H5          9.7880   -4.7950   -7.1290 h1        1 44O      0.096700
     40 H6          9.5580   -2.5550   -6.7310 h1        1 44O      0.089200
     41 H7          8.7440   -2.4160   -8.3330 h1        1 44O      0.089200
     42 H8          7.4050   -3.9390   -4.7090 h1        1 44O      0.084700
     43 H9          5.2810   -5.2860   -5.1070 hc        1 44O      0.062200
     44 H10         4.9150   -4.2100   -6.5240 hc        1 44O      0.062200
     45 H11         5.2920   -3.3290   -3.5780 hc        1 44O      0.059200
     46 H12         5.0930   -2.1970   -4.9760 hc        1 44O      0.059200
     47 H13         3.0910   -4.3940   -4.0720 hc        1 44O      0.076200
     48 H14         2.8970   -3.3720   -5.5540 hc        1 44O      0.076200
     49 H15         3.1340   -2.3500   -2.6220 hc        1 44O      0.097700
     50 H16         3.0150   -1.2880   -4.0870 hc        1 44O      0.097700
     51 H17        -0.5150   -1.4060   -3.6670 hn        1 44O      0.489300
     52 H18        -3.4440   -1.9040   -6.4450 h1        1 44O      0.107700
     53 H19        -2.4800   -0.3210   -6.3490 h1        1 44O      0.107700
     54 H20        -3.0810   -2.1240   -3.8630 h1        1 44O      0.073700
     55 H21        -5.2850   -1.4190   -4.7300 h1        1 44O      0.085200
     56 H22        -4.6610    0.2520   -5.1320 h1        1 44O      0.085200
     57 H23        -5.2580   -0.8550   -2.4880 hn        1 44O      0.381800
     58 H25        -4.0420    1.7280   -3.1390 h1        1 44O      0.089200
     59 H26        -4.3660    1.0370   -1.4720 h1        1 44O      0.089200
     60 H27        -2.5690   -0.7310   -1.8230 h2        1 44O      0.079700
     61 H28         2.0200   -1.2600   -0.5720 h5        1 44O      0.051100
     62 H29         2.7720    3.0600    0.8890 hn        1 44O      0.465300
     63 H30         1.4170    3.9510    0.3330 hn        1 44O      0.465300
     64 H2          8.2020   -5.7770   -5.7490 h1        1 44O      0.092700
     65 HAV2        0.8110   -0.5040   -4.0050 hn        1 44O      0.489300
     66 OAW        -1.5140   -2.1220   -5.8950 os        1 44O     -0.552500
     67 H3          5.9340   -6.1040   -7.1970 hn        1 44O      0.315500
@<TRIPOS>BOND
     1    1    2 ar  
     2    1    6 ar  
     3    1   33 1   
     4    2    3 ar  
     5    2   34 1   
     6    3    5 ar  
     7    3   36 1   
     8    4   33 1   
     9    4   34 2   
    10    4   37 1   
    11    5   35 ar  
    12    6   35 ar  
    13    7    8 1   
    14    7   12 1   
    15    7   15 1   
    16    7   64 1   
    17    8    9 1   
    18    8   67 1   
    19    9   10 2   
    20    9   11 1   
    21   11   12 1   
    22   11   38 1   
    23   12   13 1   
    24   12   39 1   
    25   13   14 1   
    26   13   40 1   
    27   13   41 1   
    28   14   15 1   
    29   15   16 1   
    30   15   42 1   
    31   16   17 1   
    32   16   43 1   
    33   16   44 1   
    34   17   18 1   
    35   17   45 1   
    36   17   46 1   
    37   18   19 1   
    38   18   47 1   
    39   18   48 1   
    40   19   20 1   
    41   19   49 1   
    42   19   50 1   
    43   20   21 2   
    44   20   22 1   
    45   22   23 1   
    46   22   51 1   
    47   22   65 1   
    48   23   24 2   
    49   23   25 2   
    50   23   66 1   
    51   26   27 1   
    52   26   52 1   
    53   26   53 1   
    54   26   66 1   
    55   27   28 1   
    56   27   29 1   
    57   27   54 1   
    58   28   32 1   
    59   29   30 1   
    60   29   55 1   
    61   29   56 1   
    62   30   31 1   
    63   30   57 1   
    64   31   32 1   
    65   31   58 1   
    66   31   59 1   
    67   32   33 1   
    68   32   60 1   
    69   35   61 1   
    70   36   62 1   
    71   36   63 1   
@<TRIPOS>SUBSTRUCTURE
     1 44O         1 TEMP              0 ****  ****    0 ROOT
