@<TRIPOS>MOLECULE
44U
   57    59     1     0     0
SMALL
bcc


@<TRIPOS>ATOM
      1 C1          7.3870    0.9770   -1.3700 c3        1 44U     -0.092100
      2 C2          6.1410    0.8620   -0.5300 c3        1 44U     -0.104400
      3 C3          5.2460   -0.2570   -1.0670 c3        1 44U      0.085000
      4 C7          2.3780   -1.5020    1.1820 c3        1 44U      0.030700
      5 C9          2.1350   -2.8600    1.8750 c3        1 44U     -0.088400
      6 C10         0.9250   -3.4860    1.1910 c3        1 44U     -0.090400
      7 C11         0.3650   -2.4200    0.2370 c3        1 44U      0.082000
      8 C15        -0.5410    0.2260   -0.7100 c3        1 44U      0.116500
      9 C19        -3.2400   -1.3500    1.1670 ca        1 44U     -0.127500
     10 C20        -4.2660   -2.2690    0.9560 ca        1 44U     -0.129500
     11 C21        -4.8410   -2.4010   -0.3080 ca        1 44U     -0.126000
     12 C22        -4.3860   -1.6070   -1.3610 ca        1 44U     -0.129500
     13 C24        -2.1150    1.8450    0.4600 ca        1 44U     -0.091300
     14 C27        -2.8860    4.5270    0.7420 ca        1 44U     -0.126000
     15 N4          4.0020   -0.4090   -0.3630 n         1 44U     -0.556900
     16 C5          3.7120   -1.5150    0.3960 c         1 44U      0.653100
     17 O6          4.4880   -2.4900    0.4700 o         1 44U     -0.623100
     18 N12         1.2160   -1.2460    0.3360 n         1 44U     -0.453800
     19 O14         1.4820    1.0190    0.3950 o         1 44U     -0.638100
     20 C17        -1.6620    0.4200    0.3620 c3        1 44U     -0.007100
     21 C18        -2.7780   -0.5480    0.1150 ca        1 44U     -0.091300
     22 C23        -3.3620   -0.6850   -1.1520 ca        1 44U     -0.127500
     23 C25        -3.4290    2.2370    0.1850 ca        1 44U     -0.127500
     24 C26        -3.8110    3.5720    0.3270 ca        1 44U     -0.129500
     25 C28        -1.5720    4.1440    1.0160 ca        1 44U     -0.129500
     26 C29        -1.1880    2.8130    0.8770 ca        1 44U     -0.127500
     27 N30        -0.4040    1.2600   -1.7120 n3        1 44U     -0.891800
     28 H1          8.0430    1.7910   -0.9770 hc        1 44U      0.035700
     29 H1A         7.9640    0.0210   -1.3530 hc        1 44U      0.035700
     30 H1B         7.1300    1.2130   -2.4310 hc        1 44U      0.035700
     31 H2          6.4210    0.6490    0.5340 hc        1 44U      0.045200
     32 H2A         5.5870    1.8370   -0.5410 hc        1 44U      0.045200
     33 H3          5.0060   -0.0360   -2.1480 h1        1 44U      0.059700
     34 H3A         5.8130   -1.2310   -1.0280 h1        1 44U      0.059700
     35 H7          2.4720   -0.6770    1.9500 h1        1 44U      0.083700
     36 H9          3.0360   -3.5180    1.7870 hc        1 44U      0.075200
     37 H9A         1.9340   -2.6890    2.9620 hc        1 44U      0.075200
     38 H10         1.2220   -4.3970    0.6160 hc        1 44U      0.056700
     39 H10A        0.1500   -3.7860    1.9380 hc        1 44U      0.056700
     40 H11         0.3750   -2.7920   -0.8250 h1        1 44U      0.055200
     41 H11A       -0.6970   -2.1590    0.5100 h1        1 44U      0.055200
     42 H15        -0.7750   -0.7190   -1.2910 h1        1 44U      0.085700
     43 H20        -4.6230   -2.8920    1.7900 ha        1 44U      0.135000
     44 H21        -5.6500   -3.1270   -0.4740 ha        1 44U      0.134000
     45 H22        -4.8360   -1.7060   -2.3600 ha        1 44U      0.135000
     46 H27        -3.1890    5.5780    0.8550 ha        1 44U      0.134000
     47 HN4         3.4110    0.3910   -0.3090 hn        1 44U      0.334500
     48 H17        -1.2130    0.1670    1.3710 hc        1 44U      0.069700
     49 H23        -3.0100   -0.0600   -1.9870 ha        1 44U      0.143250
     50 H25        -4.1730    1.4930   -0.1390 ha        1 44U      0.143250
     51 H26        -4.8480    3.8660    0.1100 ha        1 44U      0.135000
     52 H28        -0.8360    4.8930    1.3450 ha        1 44U      0.135000
     53 H29        -0.1470    2.5130    1.0900 ha        1 44U      0.143250
     54 HN30       -1.3120    1.5680   -2.0060 hn        1 44U      0.365300
     55 HN3A        0.1040    2.0460   -1.3470 hn        1 44U      0.365300
     56 C13         0.7890    0.0340    0.0550 c         1 44U      0.665100
     57 H19        -2.7940   -1.2510    2.1680 ha        1 44U      0.143250
@<TRIPOS>BOND
     1    1    2 1   
     2    1   28 1   
     3    1   29 1   
     4    1   30 1   
     5    2    3 1   
     6    2   31 1   
     7    2   32 1   
     8    3   15 1   
     9    3   33 1   
    10    3   34 1   
    11    4    5 1   
    12    4   16 1   
    13    4   18 1   
    14    4   35 1   
    15    5    6 1   
    16    5   36 1   
    17    5   37 1   
    18    6    7 1   
    19    6   38 1   
    20    6   39 1   
    21    7   18 1   
    22    7   40 1   
    23    7   41 1   
    24    8   20 1   
    25    8   27 1   
    26    8   42 1   
    27    8   56 1   
    28    9   10 ar  
    29    9   21 ar  
    30    9   57 1   
    31   10   11 ar  
    32   10   43 1   
    33   11   12 ar  
    34   11   44 1   
    35   12   22 ar  
    36   12   45 1   
    37   13   20 1   
    38   13   23 ar  
    39   13   26 ar  
    40   14   24 ar  
    41   14   25 ar  
    42   14   46 1   
    43   15   16 1   
    44   15   47 1   
    45   16   17 2   
    46   18   56 1   
    47   19   56 2   
    48   20   21 1   
    49   20   48 1   
    50   21   22 ar  
    51   22   49 1   
    52   23   24 ar  
    53   23   50 1   
    54   24   51 1   
    55   25   26 ar  
    56   25   52 1   
    57   26   53 1   
    58   27   54 1   
    59   27   55 1   
@<TRIPOS>SUBSTRUCTURE
     1 44U         1 TEMP              0 ****  ****    0 ROOT
