@<TRIPOS>MOLECULE
44U
   59    59     1     0     0
SMALL
bcc


@<TRIPOS>ATOM
      1 C1         -0.4060   -1.6120    1.0230 c3        1 44U     -0.217000
      2 C2          0.0810   -0.3220    1.6310 c3        1 44U     -0.185000
      3 C3          1.5770   -0.4150    1.9170 c3        1 44U     -0.117000
      4 C7          6.7350    1.0570    1.5840 c3        1 44U     -0.092000
      5 C9          7.2290   -0.1140    0.7120 c3        1 44U     -0.182000
      6 C10         7.6350   -1.2150    1.7020 c3        1 44U     -0.193000
      7 C11         7.4120   -0.6050    3.0560 c2        1 44U      0.138000
      8 C15         6.3960    0.9780    5.5110 c3        1 44U     -0.007000
      9 C19         8.5870   -0.2350    8.3090 c2        1 44U      0.055500
     10 C20         9.2000   -0.0320    9.5170 c2        1 44U     -0.211500
     11 C21         8.9550    1.1460   10.2570 c2        1 44U      0.157000
     12 C22         8.0760    2.1250    9.7610 c2        1 44U     -0.211500
     13 C24         8.7080    2.0690    5.9630 c2        1 44U     -0.087000
     14 C27         9.1850    5.6600    6.5050 c1        1 44U      0.005000
     15 N4          2.1430    0.8130    2.5210 n4        1 44U     -0.132000
     16 C5          3.6800    0.6880    2.6340 c1        1 44U      0.018000
     17 O6          4.1070    0.6990    3.7870 o         1 44U     -0.474000
     18 N12         6.9510    0.6270    2.9940 n         1 44U     -0.120000
     19 O14         6.4210    2.7050    3.7740 o         1 44U     -0.203000
     20 C17         7.7670    0.9320    6.2430 c3        1 44U     -0.023000
     21 C18         7.5900    0.7140    7.7640 c3        1 44U     -0.142000
     22 C23         7.4490    1.9560    8.5500 c2        1 44U      0.055500
     23 C25         8.3450    3.3680    5.9090 c2        1 44U     -0.100000
     24 C26         9.2810    4.4910    5.6580 c3        1 44U     -0.253000
     25 C28        11.1930    1.3570    5.5980 c1        1 44U     -0.114000
     26 C29        10.0480    1.6680    5.7690 c1        1 44U     -0.213000
     27 N30         5.3680    1.6850    6.2250 n3        1 44U     -0.349000
     28 H1          1.7740   -1.2680    2.6260 hx        1 44U      0.124500
     29 H1A         0.1220   -1.8250    0.0610 hc        1 44U      0.093333
     30 H1B        -0.2370   -2.4700    1.7180 hc        1 44U      0.093333
     31 H2         -1.5020   -1.5410    0.8130 hc        1 44U      0.093333
     32 H2A        -0.4820   -0.1170    2.5790 hc        1 44U      0.098000
     33 H3         -0.1240    0.5260    0.9250 hc        1 44U      0.098000
     34 H3A         2.1350   -0.6170    0.9590 hx        1 44U      0.124500
     35 H7          5.6280    1.2480    1.4520 h1        1 44U      0.171500
     36 H9          7.3050    2.0070    1.4020 h1        1 44U      0.171500
     37 H9A         8.0970    0.2020    0.0810 hc        1 44U      0.143500
     38 H10         6.4130   -0.4620    0.0310 hc        1 44U      0.143500
     39 H10A        8.7090   -1.5210    1.5830 hc        1 44U      0.171000
     40 H11         7.0040   -2.1390    1.5890 hc        1 44U      0.171000
     41 H11A        7.6210   -1.1390    3.9990 h4        1 44U      0.195000
     42 H15         6.0360   -0.0950    5.4150 h1        1 44U      0.133000
     43 H21         7.9080    3.0470   10.3520 ha        1 44U      0.203000
     44 H22         9.4680    1.3020   11.2280 ha        1 44U      0.203000
     45 H27        10.3610    4.1480    5.6920 hc        1 44U      0.183000
     46 HN4         1.6590    1.0050    3.4000 hn        1 44U      0.197000
     47 H17         8.2580   -0.0080    5.8450 hc        1 44U      0.102000
     48 H23         6.5780    0.1760    7.9200 hc        1 44U      0.233000
     49 H25         7.2920    3.6680    6.0400 ha        1 44U      0.130000
     50 H26         9.1280    4.8770    4.5990 hc        1 44U      0.183000
     51 H28         8.3730    5.6840    7.2480 ha        1 44U      0.037000
     52 H29        12.2130    1.0870    5.4460 ha        1 44U      0.253000
     53 HN30        5.4470    2.6790    6.1250 hn        1 44U      0.197000
     54 HN3A        4.4550    1.3870    5.9240 hn        1 44U      0.197000
     55 C13         6.5980    1.5300    4.0790 c2        1 44U      0.289000
     56 H19         8.7960   -1.1460    7.7200 ha        1 44U      0.182500
     57 H42         1.9700    1.5980    1.8910 hn        1 44U      0.197000
     58 H303        6.7830    2.7430    8.1490 ha        1 44U      0.182500
     59 H20         9.9070   -0.7810    9.9220 ha        1 44U      0.203000
@<TRIPOS>BOND
     1    1    2 1   
     2    1   29 1   
     3    1   30 1   
     4    1   31 1   
     5    2    3 1   
     6    2   32 1   
     7    2   33 1   
     8    3   15 1   
     9    3   28 1   
    10    3   34 1   
    11    4    5 1   
    12    4   18 1   
    13    4   35 1   
    14    4   36 1   
    15    5    6 1   
    16    5   37 1   
    17    5   38 1   
    18    6    7 1   
    19    6   39 1   
    20    6   40 1   
    21    7   18 1   
    22    7   41 1   
    23    8   20 1   
    24    8   27 1   
    25    8   42 1   
    26    8   55 1   
    27    9   10 1   
    28    9   21 1   
    29    9   56 1   
    30   10   11 1   
    31   10   59 1   
    32   11   12 1   
    33   11   44 1   
    34   12   22 1   
    35   12   43 1   
    36   13   20 1   
    37   13   23 1   
    38   13   26 1   
    39   14   24 1   
    40   14   51 1   
    41   15   16 1   
    42   15   46 1   
    43   15   57 1   
    44   16   17 1   
    45   18   55 1   
    46   19   55 1   
    47   20   21 1   
    48   20   47 1   
    49   21   22 1   
    50   21   48 1   
    51   22   58 1   
    52   23   24 1   
    53   23   49 1   
    54   24   45 1   
    55   24   50 1   
    56   25   26 1   
    57   25   52 1   
    58   27   53 1   
    59   27   54 1   
@<TRIPOS>SUBSTRUCTURE
     1 44U         1 TEMP              0 ****  ****    0 ROOT
