@<TRIPOS>MOLECULE
44U
   57    52     1     0     0
SMALL
bcc


@<TRIPOS>ATOM
      1 C1         -6.3860   -1.0040   -4.5680 c3        1 44U     -0.209000
      2 C2         -5.0060   -0.3880   -4.3960 c3        1 44U     -0.184000
      3 C3         -4.4120   -0.8410   -3.0770 c3        1 44U     -0.032000
      4 C7         -0.7280   -1.1070   -2.0770 c3        1 44U      0.001000
      5 C9         -0.5060   -2.6630   -2.5280 c3        1 44U     -0.166000
      6 C10         0.6280   -3.1890   -1.6850 c3        1 44U     -0.168000
      7 C11         1.1550   -2.1440   -1.1170 c3        1 44U     -0.035000
      8 C13        -0.2260   -0.1570    0.1340 c1        1 44U      0.260000
      9 C15         0.7460   -0.1730    1.3310 c3        1 44U     -0.017000
     10 C19         3.7390    1.7110    2.1500 c1        1 44U     -0.125750
     11 C20         5.0940    1.7700    1.8370 c1        1 44U     -0.125750
     12 C21         5.5400    1.3320    0.5990 c1        1 44U     -0.125750
     13 C22         4.6330    0.8320   -0.3310 c1        1 44U     -0.125750
     14 C24         1.0950    1.6550    3.0240 c1        1 44U     -0.071500
     15 C27         0.9230    2.5900    5.6400 c1        1 44U     -0.125750
     16 N4         -3.0210   -0.4250   -3.0020 n         1 44U     -0.368000
     17 C5         -2.1980   -0.8430   -1.8770 c2        1 44U      0.295000
     18 O6         -2.7110   -1.0720   -0.8040 o         1 44U     -0.379000
     19 N12        -0.0110   -1.0450   -0.9830 n2        1 44U     -0.304000
     20 O14        -1.1410    0.6260    0.1130 o         1 44U     -0.402000
     21 C17         1.3160    1.2200    1.5410 c3        1 44U     -0.027000
     22 C18         2.8340    1.2120    1.2230 c1        1 44U     -0.071500
     23 C23         3.2810    0.7730   -0.0190 c1        1 44U     -0.120500
     24 C25         1.7320    0.9650    4.0530 c1        1 44U     -0.125750
     25 C26         1.6460    1.4330    5.3610 c1        1 44U     -0.125750
     26 C28         0.2900    3.2760    4.6170 c1        1 44U     -0.125750
     27 C29         0.3760    2.8080    3.3040 c1        1 44U     -0.120500
     28 N30         0.0620   -0.5740    2.4830 n3        1 44U     -0.326000
     29 H1         -6.9710   -0.7140   -3.8270 hc        1 44U      0.074667
     30 H1A        -6.7700   -0.7110   -5.4200 hc        1 44U      0.074667
     31 H1B        -6.3110   -1.9850   -4.5610 hc        1 44U      0.074667
     32 H2         -4.4290   -0.6740   -5.1270 hc        1 44U      0.084000
     33 H2A        -5.0810    0.5830   -4.4020 hc        1 44U      0.084000
     34 H3         -4.9100   -0.4410   -2.3430 h1        1 44U      0.098500
     35 H3A        -4.4640   -1.8100   -3.0140 h1        1 44U      0.098500
     36 H7         -0.4860   -0.3990   -2.7090 h1        1 44U      0.122000
     37 H9         -1.3130   -3.1790   -2.3610 hc        1 44U      0.113500
     38 H9A        -0.2690   -2.7080   -3.4730 hc        1 44U      0.113500
     39 H10         1.2870   -3.6360   -2.2480 hc        1 44U      0.096500
     40 H10A        0.2860   -3.8080   -1.0060 hc        1 44U      0.096500
     41 H11         1.8860   -1.7930   -1.6730 h1        1 44U      0.093000
     42 H11A        1.4940   -2.3820   -0.2300 h1        1 44U      0.093000
     43 H15         1.4710   -0.7970    1.1510 h1        1 44U      0.114000
     44 H19         3.4270    2.0180    3.0200 ha        1 44U      0.132750
     45 H20         5.7320    2.1210    2.4890 ha        1 44U      0.132750
     46 H21         6.4890    1.3730    0.3790 ha        1 44U      0.132750
     47 H22         4.9480    0.5220   -1.2070 ha        1 44U      0.132750
     48 H27         0.8620    2.9220    6.5680 ha        1 44U      0.132750
     49 HN4        -2.6880    0.1620   -3.6160 hn        1 44U      0.246000
     50 H17         0.8630    1.8500    0.9470 hc        1 44U      0.120000
     51 H23         2.6460    0.4230   -0.6690 ha        1 44U      0.135000
     52 H25         2.2380    0.1540    3.8570 ha        1 44U      0.132750
     53 H26         2.0930    0.9490    6.0840 ha        1 44U      0.132750
     54 H28        -0.2180    4.0910    4.8140 ha        1 44U      0.132750
     55 H29        -0.0680    3.2880    2.5870 ha        1 44U      0.135000
     56 HN30        0.3440   -1.4010    2.7310 hn        1 44U      0.160000
     57 HN3A       -0.8310   -0.5970    2.3130 hn        1 44U      0.160000
@<TRIPOS>BOND
     1    1    2 1   
     2    1   29 1   
     3    1   30 1   
     4    1   31 1   
     5    2    3 1   
     6    2   32 1   
     7    2   33 1   
     8    3   16 1   
     9    3   34 1   
    10    3   35 1   
    11    4    5 1   
    12    4   17 1   
    13    4   19 1   
    14    4   36 1   
    15    5    6 1   
    16    5   37 1   
    17    5   38 1   
    18    6    7 1   
    19    6   39 1   
    20    6   40 1   
    21    7   19 1   
    22    7   41 1   
    23    7   42 1   
    24    8    9 1   
    25    8   20 1   
    26    9   21 1   
    27    9   28 1   
    28    9   43 1   
    29   10   11 1   
    30   10   44 1   
    31   11   45 1   
    32   12   13 1   
    33   12   46 1   
    34   13   47 1   
    35   14   21 1   
    36   14   27 1   
    37   15   26 1   
    38   15   48 1   
    39   16   17 1   
    40   16   49 1   
    41   17   18 1   
    42   21   22 1   
    43   21   50 1   
    44   22   23 1   
    45   23   51 1   
    46   24   25 1   
    47   24   52 1   
    48   25   53 1   
    49   26   54 1   
    50   27   55 1   
    51   28   56 1   
    52   28   57 1   
@<TRIPOS>SUBSTRUCTURE
     1 44U         1 TEMP              0 ****  ****    0 ROOT
