@<TRIPOS>MOLECULE
44U
   59    74     1     0     0
SMALL
bcc


@<TRIPOS>ATOM
      1 C1          0.0000    0.0000    0.0000 DU        1 44U      0.158000
      2 C2          1.5300    0.0000    0.0000 DU        1 44U     -0.083000
      3 C3          2.0400    0.0000    1.4420 c3        1 44U     -0.767000
      4 C7          5.6850   -0.0000    2.6110 DU        1 44U     -0.305000
      5 C9          6.2130   -1.2830    1.9340 DU        1 44U     -0.275000
      6 C10         7.4470   -1.6510    2.8000 DU        1 44U     -0.161000
      7 C11         6.9720   -1.2270    4.2120 c3        1 44U     -0.339000
      8 C15         6.5370    0.8340    6.2960 DU        1 44U     -0.411000
      9 C19         9.6890    0.1200    7.7510 c2        1 44U     -0.094000
     10 C20        10.2500   -0.1160    8.9920 c2        1 44U     -0.099000
     11 C21         9.7440    0.5170   10.1120 c3        1 44U      0.064000
     12 C22         8.6760    1.3870    9.9910 c3        1 44U     -0.139000
     13 C24         8.1140    2.7150    5.9500 c2        1 44U     -0.210000
     14 C27         8.3190    5.4040    5.3450 c2        1 44U      0.450000
     15 N4          3.5050   -0.0000    1.4430 ny        1 44U      0.372000
     16 C5          4.1780    0.0000    2.6100 c3        1 44U      0.616000
     17 O6          3.5720    0.0000    3.6610 o         1 44U     -0.316000
     18 N12         6.1850    0.0000    3.9940 n         1 44U      0.292000
     19 O14         5.2950    1.9350    4.6180 o         1 44U     -0.241000
     20 C17         8.0100    1.2480    6.2770 c3        1 44U     -0.007000
     21 C18         8.6210    0.9890    7.6300 c2        1 44U     -0.160000
     22 C23         8.1150    1.6230    8.7490 c2        1 44U     -0.497000
     23 C25         8.6200    3.5970    6.8860 c3        1 44U     -0.220000
     24 C26         8.7210    4.9430    6.5840 c2        1 44U      0.131000
     25 C28         7.8080    4.5230    4.4110 c3        1 44U      0.115000
     26 C29         7.7120    3.1780    4.7100 c2        1 44U     -0.503000
     27 N30         5.7950    1.7040    7.2180 nz        1 44U      0.432000
     28 H1          0.8260    0.1480    0.6850 DU        1 44U      0.159500
     29 H1A        -0.3610    0.8850    0.5110 ha        1 44U      0.115000
     30 H1B        -0.3610   -0.8840    0.5110 ha        1 44U      0.115000
     31 H2          0.5780   -0.0000   -0.5160 DU        1 44U      0.159500
     32 H2A         1.8910    0.8850   -0.5110 ha        1 44U      0.133000
     33 H3          1.9660   -0.4470    0.4580 DU        1 44U      0.155000
     34 H3A         1.6780   -0.8840    1.9530 hx        1 44U      0.160000
     35 H7          4.6410    0.2320    2.4400 ha        1 44U     -0.243000
     36 H9          6.1370   -0.2050    2.0080 DU        1 44U      0.209000
     37 H9A         6.5110   -1.0800    0.9120 ha        1 44U      0.154000
     38 H10         6.4650   -1.8600    2.3910 DU        1 44U      0.150000
     39 H10A        7.6410   -2.7160    2.7620 ha        1 44U      0.157000
     40 H11         7.6390   -1.1520    3.3620 DU        1 44U      0.132000
     41 H11A        6.3500   -2.0000    4.6470 h1        1 44U      0.151000
     42 H15         7.0580    0.0850    5.7110 hx        1 44U      0.290000
     43 H21         9.0110    0.3560    9.3310 DU        1 44U      0.208500
     44 H22         9.4540    0.8710   10.5410 DU        1 44U      0.208500
     45 H27         8.3120    4.8230    6.2590 ha        1 44U     -0.267000
     46 HN4         4.0590    0.7250    1.8540 DU        1 44U      0.055000
     47 H17         7.3680    0.9330    5.4630 DU        1 44U      0.192000
     48 H23         8.2510    1.3180    7.7190 ha        1 44U      0.296000
     49 H25         8.0530    3.0530    7.6320 hc        1 44U      0.292000
     50 H26         8.8290    4.0790    7.2290 DU        1 44U      0.239000
     51 H28         8.2280    4.8800    5.3430 hc        1 44U     -0.336000
     52 H29         7.6000    4.0410    4.0660 DU        1 44U      0.239000
     53 HN30        6.2090    1.9180    6.3320 DU        1 44U      0.182000
     54 HN3A        4.8760    1.4280    7.5020 hn        1 44U      0.120000
     55 C13         5.9600    0.9640    4.9100 c2        1 44U      0.161000
     56 H19        10.0850   -0.3760    6.8730 ha        1 44U      0.161000
     57 H42         3.7960    0.8130    0.9380 hn        1 44U      0.161000
     58 H303        5.9490    2.6920    7.1730 hn        1 44U      0.120000
     59 H20        11.0860   -0.7980    9.0870 ha        1 44U      0.165000
@<TRIPOS>BOND
     1    1    2 1   
     2    1   28 1   
     3    1   29 1   
     4    1   30 1   
     5    1   31 1   
     6    2    3 1   
     7    2   28 1   
     8    2   31 1   
     9    2   32 1   
    10    2   33 1   
    11    3   15 1   
    12    3   33 1   
    13    3   34 1   
    14    4    5 1   
    15    4   16 1   
    16    4   18 1   
    17    4   35 1   
    18    4   36 1   
    19    5    6 1   
    20    5   36 1   
    21    5   37 1   
    22    5   38 1   
    23    6    7 1   
    24    6   38 1   
    25    6   39 1   
    26    6   40 1   
    27    7   18 1   
    28    7   40 1   
    29    7   41 1   
    30    8   20 1   
    31    8   27 1   
    32    8   42 1   
    33    8   47 1   
    34    8   53 1   
    35    8   55 1   
    36    9   10 1   
    37    9   21 1   
    38    9   56 1   
    39   10   11 1   
    40   10   59 1   
    41   11   12 1   
    42   11   43 1   
    43   11   44 1   
    44   12   22 1   
    45   12   43 1   
    46   12   44 1   
    47   13   20 1   
    48   13   23 1   
    49   13   26 1   
    50   14   24 1   
    51   14   25 1   
    52   14   45 1   
    53   15   16 1   
    54   15   46 1   
    55   15   57 1   
    56   16   17 1   
    57   16   46 1   
    58   18   55 1   
    59   19   55 1   
    60   20   21 1   
    61   20   47 1   
    62   21   22 1   
    63   22   48 1   
    64   23   24 1   
    65   23   49 1   
    66   23   50 1   
    67   24   50 1   
    68   25   26 1   
    69   25   51 1   
    70   25   52 1   
    71   26   52 1   
    72   27   53 1   
    73   27   54 1   
    74   27   58 1   
@<TRIPOS>SUBSTRUCTURE
     1 44U         1 TEMP              0 ****  ****    0 ROOT
