@<TRIPOS>MOLECULE
44X
   55    59     1     0     0
SMALL
bcc


@<TRIPOS>ATOM
      1 C21         0.0350   -1.5420    1.5830 c3        1 44X     -0.135400
      2 C19         1.5000   -1.6850    1.5020 cc        1 44X      0.326600
      3 C20         2.4540   -0.6140    1.7990 cc        1 44X     -0.337600
      4 N5          2.1870   -2.7930    1.1530 nd        1 44X     -0.350300
      5 O1          3.4780   -2.5390    1.1970 os        1 44X     -0.127100
      6 C18         3.6940   -1.1900    1.5960 cd        1 44X      0.316200
      7 C15         5.0540   -0.7360    1.6960 cd        1 44X     -0.143500
      8 C16         5.3020    0.6420    1.9990 cd        1 44X     -0.158000
      9 C17         6.5930    1.1120    2.1030 cc        1 44X      0.189900
     10 F1          6.8670    2.3980    2.3880 f         1 44X     -0.101900
     11 C14         6.1020   -1.6200    1.5050 cc        1 44X     -0.032300
     12 N2          7.3960   -1.1700    1.5970 na        1 44X     -0.064200
     13 C13         7.6940    0.1970    1.8990 cc        1 44X     -0.117300
     14 N3          9.0610    0.3400    1.9260 nd        1 44X     -0.048000
     15 N4          9.6120   -0.8180    1.6670 nd        1 44X     -0.338700
     16 C11         8.6580   -1.7840    1.4530 cc        1 44X      0.313800
     17 C10         8.8500   -3.2300    1.1230 c3        1 44X     -0.011700
     18 C12        10.2810   -3.5070    0.6970 c3        1 44X     -0.082100
     19 C7          8.4590   -4.0880    2.2900 ca        1 44X     -0.086300
     20 C6          7.4650   -5.0310    2.1610 ca        1 44X     -0.120000
     21 C4          7.1070   -5.8590    3.2570 ca        1 44X     -0.113300
     22 C3          6.0880   -6.8420    3.1440 ca        1 44X     -0.126000
     23 C8          9.1310   -3.9350    3.5320 ca        1 44X     -0.122000
     24 C9          8.8100   -4.7160    4.6110 ca        1 44X     -0.150300
     25 C5          7.7830   -5.7100    4.5070 ca        1 44X      0.368600
     26 N1          7.4700   -6.4940    5.6010 nb        1 44X     -0.630000
     27 C1          6.5190   -7.3990    5.4720 ca        1 44X      0.369200
     28 C2          5.7900   -7.6150    4.2530 ca        1 44X      0.008800
     29 O2          4.7710   -8.5310    4.1150 os        1 44X     -0.322900
     30 C22         4.6460   -9.4900    5.1760 c3        1 44X      0.123400
     31 C23         3.6380  -10.5210    4.6790 c3        1 44X      0.122400
     32 O3          4.3860  -11.6900    4.3520 os        1 44X     -0.423600
     33 C24         3.5980  -12.6820    3.7150 c3        1 44X      0.116700
     34 H1         -0.4940   -2.4850    1.2970 hc        1 44X      0.061367
     35 H2         -0.2970   -0.7230    0.8970 hc        1 44X      0.061367
     36 H3         -0.2560   -1.2720    2.6290 hc        1 44X      0.061367
     37 H4          2.2050    0.3950    2.1100 ha        1 44X      0.178000
     38 H5          4.4470    1.3190    2.1480 ha        1 44X      0.165000
     39 H6          5.9590   -2.6950    1.2860 h4        1 44X      0.194000
     40 H7          8.1740   -3.4700    0.2480 hc        1 44X      0.064700
     41 H8         10.5570   -2.8630   -0.1710 hc        1 44X      0.053033
     42 H9         10.3770   -4.5790    0.3990 hc        1 44X      0.053033
     43 H10        10.9930   -3.3030    1.5330 hc        1 44X      0.053033
     44 H11         6.9310   -5.1690    1.2070 ha        1 44X      0.135000
     45 H12         5.5490   -6.9790    2.1970 ha        1 44X      0.157000
     46 H13         9.9210   -3.1690    3.6130 ha        1 44X      0.151000
     47 H14         9.3360   -4.5910    5.5710 ha        1 44X      0.154000
     48 H15         6.3000   -8.0030    6.3710 h4        1 44X      0.028100
     49 H16         4.2580   -8.9700    6.0900 h1        1 44X      0.057700
     50 H17         5.6380   -9.9690    5.3870 h1        1 44X      0.057700
     51 H18         3.0910  -10.1420    3.7760 h1        1 44X      0.047700
     52 H19         2.9040  -10.7670    5.4910 h1        1 44X      0.047700
     53 H20         2.7610  -13.0080    4.3810 h1        1 44X      0.035700
     54 H21         3.1880  -12.2990    2.7480 h1        1 44X      0.035700
     55 H22         4.3080  -13.5260    3.5340 h1        1 44X      0.035700
@<TRIPOS>BOND
     1    1    2 1   
     2    1   34 1   
     3    1   35 1   
     4    1   36 1   
     5    2    3 1   
     6    2    4 2   
     7    3    6 2   
     8    3   37 1   
     9    4    5 1   
    10    5    6 1   
    11    6    7 1   
    12    7    8 1   
    13    7   11 2   
    14    8    9 2   
    15    8   38 1   
    16    9   10 1   
    17    9   13 1   
    18   11   12 1   
    19   11   39 1   
    20   12   13 1   
    21   12   16 1   
    22   13   14 2   
    23   14   15 1   
    24   15   16 2   
    25   16   17 1   
    26   17   18 1   
    27   17   19 1   
    28   17   40 1   
    29   18   41 1   
    30   18   42 1   
    31   18   43 1   
    32   19   20 ar  
    33   19   23 ar  
    34   20   21 ar  
    35   20   44 1   
    36   21   22 ar  
    37   21   25 ar  
    38   22   28 ar  
    39   22   45 1   
    40   23   24 ar  
    41   23   46 1   
    42   24   25 ar  
    43   24   47 1   
    44   25   26 ar  
    45   26   27 ar  
    46   27   28 ar  
    47   27   48 1   
    48   28   29 1   
    49   29   30 1   
    50   30   31 1   
    51   30   49 1   
    52   30   50 1   
    53   31   32 1   
    54   31   51 1   
    55   31   52 1   
    56   32   33 1   
    57   33   53 1   
    58   33   54 1   
    59   33   55 1   
@<TRIPOS>SUBSTRUCTURE
     1 44X         1 TEMP              0 ****  ****    0 ROOT
