@<TRIPOS>MOLECULE
450
   80    84     1     0     0
SMALL
bcc


@<TRIPOS>ATOM
      1 C1          0.1150    0.2120    0.2630 c3        1 450      0.650500
      2 O1         -0.6050    1.3410   -0.2610 oh        1 450     -0.618800
      3 N2          1.5440    0.5760    0.3840 n3        1 450     -0.795100
      4 C2          1.8880    1.9660    0.2300 c3        1 450      0.229600
      5 C3          2.2020   -0.1750    1.4470 c3        1 450      0.218000
      6 C4          2.2540   -1.6980    1.1410 c3        1 450      0.093100
      7 O4          2.8390   -1.9150   -0.1320 oh        1 450     -0.598800
      8 C5          0.8860   -2.3910    1.2580 c3        1 450      0.093100
      9 O5          0.2180   -1.9190    2.4200 oh        1 450     -0.598800
     10 C6         -0.1020   -2.2420    0.0630 c3        1 450      0.218000
     11 N7         -0.1470   -0.9520   -0.6130 n3        1 450     -0.795100
     12 C7          0.5380   -0.8800   -1.8920 c3        1 450      0.229600
     13 C20         3.2110    2.2290   -0.4510 ca        1 450     -0.052300
     14 C21         3.8340    1.2950   -1.2880 ca        1 450     -0.074000
     15 C22         5.0280    1.6140   -1.9360 ca        1 450     -0.102500
     16 C23         5.6250    2.8610   -1.7600 ca        1 450     -0.104500
     17 C28         5.0020    3.7910   -0.9120 ca        1 450     -0.066400
     18 N29         5.6270    5.0980   -0.6940 n4        1 450     -0.708000
     19 C29         3.7960    3.4860   -0.2590 ca        1 450     -0.101000
     20 C31         3.6360    0.2830    1.7760 c3        1 450     -0.039600
     21 C32         4.1120   -0.2900    3.0660 ca        1 450     -0.086800
     22 C33         5.1300   -1.2500    3.0820 ca        1 450     -0.132500
     23 C34         5.5980   -1.7580    4.2940 ca        1 450     -0.133750
     24 C35         5.0520   -1.3120    5.4970 ca        1 450     -0.148000
     25 C36         4.0370   -0.3540    5.4870 ca        1 450     -0.133750
     26 C37         3.5700    0.1560    4.2780 ca        1 450     -0.132500
     27 C61        -1.4920   -2.6520    0.6090 c3        1 450     -0.039600
     28 C62        -2.4370   -3.2070   -0.3940 ca        1 450     -0.086800
     29 C63        -2.1650   -4.4250   -1.0320 ca        1 450     -0.132500
     30 C64        -3.1170   -5.0180   -1.8600 ca        1 450     -0.133750
     31 C65        -4.3540   -4.4020   -2.0600 ca        1 450     -0.148000
     32 C66        -4.6290   -3.1820   -1.4380 ca        1 450     -0.133750
     33 C67        -3.6730   -2.5840   -0.6150 ca        1 450     -0.132500
     34 C70        -0.1460   -1.5580   -3.0460 ca        1 450     -0.052300
     35 C71        -1.5360   -1.5890   -3.1690 ca        1 450     -0.101000
     36 C72        -2.1130   -2.1790   -4.3080 ca        1 450     -0.066400
     37 N79        -3.5710   -2.2500   -4.4030 n4        1 450     -0.708000
     38 C77        -1.3200   -2.7180   -5.3330 ca        1 450     -0.104500
     39 C78         0.0670   -2.6740   -5.1950 ca        1 450     -0.102500
     40 C79         0.6490   -2.1080   -4.0630 ca        1 450     -0.074000
     41 H1         -0.3160   -0.0440    1.2890 h3        1 450      0.087700
     42 HO1        -1.5430    1.1250   -0.1950 ho        1 450      0.430000
     43 H21A        1.8920    2.4990    1.2290 h1        1 450      0.073450
     44 H22A        1.1160    2.4830   -0.4180 h1        1 450      0.073450
     45 H3          1.6000   -0.0770    2.4080 h1        1 450      0.059200
     46 H4          2.9190   -2.1520    1.9390 h1        1 450      0.054700
     47 HO4         3.1020   -2.8450   -0.1560 ho        1 450      0.415000
     48 H5          1.0770   -3.5010    1.3630 h1        1 450      0.054700
     49 HO5         0.7290   -2.2160    3.1850 ho        1 450      0.415000
     50 H6          0.2220   -3.0160   -0.6980 h1        1 450      0.059200
     51 H71A        0.6140    0.2150   -2.1720 h1        1 450      0.073450
     52 H72         1.5920   -1.2880   -1.8170 h1        1 450      0.073450
     53 H21         3.3870    0.2910   -1.4230 ha        1 450      0.175500
     54 H22         5.5130    0.8740   -2.5940 ha        1 450      0.171000
     55 H23         6.5690    3.0910   -2.2800 ha        1 450      0.159500
     56 HN21        6.2590    5.0430    0.1140 hn        1 450      0.465467
     57 HN22        4.9080    5.8060   -0.5100 hn        1 450      0.465467
     58 H29         3.3020    4.2160    0.4040 ha        1 450      0.164000
     59 H311        4.3140   -0.0220    0.9340 hc        1 450      0.064950
     60 H312        3.6790    1.4030    1.8630 hc        1 450      0.064950
     61 H33         5.5690   -1.6020    2.1360 ha        1 450      0.137500
     62 H34         6.4020   -2.5100    4.3000 ha        1 450      0.147750
     63 H35         5.4240   -1.7110    6.4540 ha        1 450      0.149000
     64 H36         3.6080    0.0030    6.4360 ha        1 450      0.147750
     65 H37         2.7750    0.9170    4.2760 ha        1 450      0.137500
     66 H611       -1.9530   -1.7760    1.1400 hc        1 450      0.064950
     67 H612       -1.3290   -3.4480    1.3900 hc        1 450      0.064950
     68 H63        -1.2060   -4.9340   -0.8510 ha        1 450      0.137500
     69 H64        -2.9060   -5.9920   -2.3280 ha        1 450      0.147750
     70 H65        -5.1330   -4.9100   -2.6500 ha        1 450      0.149000
     71 H66        -5.6240   -2.7220   -1.5400 ha        1 450      0.147750
     72 H67        -3.9100   -1.6400   -0.0990 ha        1 450      0.137500
     73 H71        -2.1640   -1.1750   -2.3600 ha        1 450      0.164000
     74 HN71       -3.8470   -2.7340   -5.2630 hn        1 450      0.465467
     75 HN72       -3.9410   -2.7680   -3.5820 hn        1 450      0.465467
     76 H77        -1.7630   -3.1750   -6.2320 ha        1 450      0.159500
     77 H78         0.7020   -3.0970   -5.9920 ha        1 450      0.171000
     78 H79         1.7480   -2.0920   -3.9680 ha        1 450      0.175500
     79 H293        6.1670    5.3700   -1.5240 hn        1 450      0.465467
     80 H793       -3.9640   -1.3030   -4.4090 hn        1 450      0.465467
@<TRIPOS>BOND
     1    1    2 1   
     2    1    3 1   
     3    1   11 1   
     4    1   41 1   
     5    2   42 1   
     6    3    4 1   
     7    3    5 1   
     8    4   13 1   
     9    4   43 1   
    10    4   44 1   
    11    5    6 1   
    12    5   20 1   
    13    5   45 1   
    14    6    7 1   
    15    6    8 1   
    16    6   46 1   
    17    7   47 1   
    18    8    9 1   
    19    8   10 1   
    20    8   48 1   
    21    9   49 1   
    22   10   11 1   
    23   10   27 1   
    24   10   50 1   
    25   11   12 1   
    26   12   34 1   
    27   12   51 1   
    28   12   52 1   
    29   13   14 ar  
    30   13   19 ar  
    31   14   15 ar  
    32   14   53 1   
    33   15   16 ar  
    34   15   54 1   
    35   16   17 ar  
    36   16   55 1   
    37   17   18 1   
    38   17   19 ar  
    39   18   56 1   
    40   18   57 1   
    41   18   79 1   
    42   19   58 1   
    43   20   21 1   
    44   20   59 1   
    45   20   60 1   
    46   21   22 ar  
    47   21   26 ar  
    48   22   23 ar  
    49   22   61 1   
    50   23   24 ar  
    51   23   62 1   
    52   24   25 ar  
    53   24   63 1   
    54   25   26 ar  
    55   25   64 1   
    56   26   65 1   
    57   27   28 1   
    58   27   66 1   
    59   27   67 1   
    60   28   29 ar  
    61   28   33 ar  
    62   29   30 ar  
    63   29   68 1   
    64   30   31 ar  
    65   30   69 1   
    66   31   32 ar  
    67   31   70 1   
    68   32   33 ar  
    69   32   71 1   
    70   33   72 1   
    71   34   35 ar  
    72   34   40 ar  
    73   35   36 ar  
    74   35   73 1   
    75   36   37 1   
    76   36   38 ar  
    77   37   74 1   
    78   37   75 1   
    79   37   80 1   
    80   38   39 ar  
    81   38   76 1   
    82   39   40 ar  
    83   39   77 1   
    84   40   78 1   
@<TRIPOS>SUBSTRUCTURE
     1 450         1 TEMP              0 ****  ****    0 ROOT
