@<TRIPOS>MOLECULE
450
   78    82     1     0     0
SMALL
bcc


@<TRIPOS>ATOM
      1 C1         -0.1220    0.3610    0.1380 c3        1 450      0.634500
      2 O1         -0.7370    1.5930   -0.2270 oh        1 450     -0.598800
      3 N2          1.3560    0.4480    0.1590 n3        1 450     -0.796100
      4 C2          1.9650    1.5900   -0.4690 c3        1 450      0.227100
      5 C3          1.9080   -0.0720    1.3980 c3        1 450      0.204500
      6 C4          1.8380   -1.6240    1.4440 c3        1 450      0.121100
      7 O4          2.7500   -2.1510    0.4940 oh        1 450     -0.591800
      8 C5          0.4370   -2.2190    1.2030 c3        1 450      0.121100
      9 O5         -0.4250   -1.6750    2.1870 oh        1 450     -0.591800
     10 C6         -0.0660   -2.0840   -0.2540 c3        1 450      0.204500
     11 N7         -0.6320   -0.7870   -0.6450 n3        1 450     -0.796100
     12 C7         -0.5660   -0.5990   -2.0940 c3        1 450      0.227100
     13 C20         3.2830    1.3600   -1.1620 ca        1 450     -0.058300
     14 C21         3.7100    0.1020   -1.5910 ca        1 450     -0.166500
     15 C22         4.9100   -0.0170   -2.2920 ca        1 450     -0.096000
     16 C23         5.6910    1.0970   -2.5720 ca        1 450     -0.189500
     17 C28         5.2800    2.3770   -2.1330 ca        1 450      0.133600
     18 N29         6.1040    3.4960   -2.3200 nh        1 450     -0.816200
     19 C29         4.0600    2.4910   -1.4320 ca        1 450     -0.180000
     20 C31         3.3520    0.3580    1.7090 c3        1 450     -0.047100
     21 C32         3.7270    0.0390    3.1150 ca        1 450     -0.083300
     22 C33         4.6740   -0.9550    3.3880 ca        1 450     -0.128000
     23 C34         5.0510   -1.2270    4.7020 ca        1 450     -0.128500
     24 C35         4.4840   -0.5110    5.7560 ca        1 450     -0.131500
     25 C36         3.5400    0.4810    5.4910 ca        1 450     -0.128500
     26 C37         3.1640    0.7560    4.1780 ca        1 450     -0.128000
     27 C61        -1.1040   -3.2070   -0.5030 c3        1 450     -0.047100
     28 C62        -0.4440   -4.5290   -0.6820 ca        1 450     -0.083300
     29 C63        -0.5430   -5.5170    0.3050 ca        1 450     -0.128000
     30 C64         0.0590   -6.7610    0.1180 ca        1 450     -0.128500
     31 C65         0.7660   -7.0270   -1.0530 ca        1 450     -0.131500
     32 C66         0.8690   -6.0470   -2.0410 ca        1 450     -0.128500
     33 C67         0.2660   -4.8040   -1.8570 ca        1 450     -0.128000
     34 C70        -1.7900    0.0470   -2.6860 ca        1 450     -0.058300
     35 C71        -3.0630   -0.4240   -2.3770 ca        1 450     -0.180000
     36 C72        -4.2070    0.1500   -2.9810 ca        1 450      0.133600
     37 N79        -5.4810   -0.3780   -2.7370 nh        1 450     -0.816200
     38 C77        -4.0280    1.2120   -3.8970 ca        1 450     -0.189500
     39 C78        -2.7490    1.6690   -4.1950 ca        1 450     -0.096000
     40 C79        -1.6290    1.0990   -3.5950 ca        1 450     -0.166500
     41 H1         -0.5170    0.2140    1.2020 h3        1 450      0.111700
     42 HO1        -0.7840    1.6840   -1.1890 ho        1 450      0.415000
     43 H21A        2.0900    2.4390    0.2690 h1        1 450      0.045450
     44 H22A        1.2660    1.9660   -1.2760 h1        1 450      0.045450
     45 H3          1.2640    0.2670    2.2740 h1        1 450      0.056700
     46 H4          2.1600   -1.9270    2.4840 h1        1 450      0.048200
     47 HO4         2.7700   -3.1070    0.6300 ho        1 450      0.405500
     48 H5          0.5190   -3.3350    1.3940 h1        1 450      0.048200
     49 HO5        -1.3280   -1.8980    1.9280 ho        1 450      0.405500
     50 H6          0.8480   -2.3140   -0.8930 h1        1 450      0.056700
     51 H71A       -0.4560   -1.6020   -2.6050 h1        1 450      0.045450
     52 H72         0.3450    0.0060   -2.3830 h1        1 450      0.045450
     53 H21         3.1170   -0.7990   -1.3610 ha        1 450      0.146500
     54 H22         5.2450   -1.0100   -2.6280 ha        1 450      0.129000
     55 H23         6.6340    0.9770   -3.1240 ha        1 450      0.130000
     56 HN21        5.6160    4.3640   -2.3090 hn        1 450      0.385550
     57 HN22        6.7260    3.4130   -3.0940 hn        1 450      0.385550
     58 H29         3.7170    3.4770   -1.0820 ha        1 450      0.135000
     59 H311        3.4660    1.4650    1.5590 hc        1 450      0.064700
     60 H312        4.0450   -0.1540    0.9870 hc        1 450      0.064700
     61 H33         5.1230   -1.5210    2.5570 ha        1 450      0.133500
     62 H34         5.7980   -2.0080    4.9070 ha        1 450      0.131500
     63 H35         4.7820   -0.7260    6.7920 ha        1 450      0.131000
     64 H36         3.0910    1.0480    6.3200 ha        1 450      0.131500
     65 H37         2.4210    1.5420    3.9720 ha        1 450      0.133500
     66 H611       -1.8250   -3.2430    0.3560 hc        1 450      0.064700
     67 H612       -1.7080   -2.9830   -1.4250 hc        1 450      0.064700
     68 H63        -1.1030   -5.3130    1.2300 ha        1 450      0.133500
     69 H64        -0.0260   -7.5320    0.8980 ha        1 450      0.131500
     70 H65         1.2400   -8.0090   -1.2000 ha        1 450      0.131000
     71 H66         1.4240   -6.2550   -2.9670 ha        1 450      0.131500
     72 H67         0.3440   -4.0320   -2.6380 ha        1 450      0.133500
     73 H71        -3.1750   -1.2480   -1.6540 ha        1 450      0.135000
     74 HN71       -5.5650   -0.8500   -1.8640 hn        1 450      0.385550
     75 HN72       -6.2250    0.2610   -2.9070 hn        1 450      0.385550
     76 H77        -4.8980    1.6780   -4.3820 ha        1 450      0.130000
     77 H78        -2.6230    2.4940   -4.9130 ha        1 450      0.129000
     78 H79        -0.6240    1.4710   -3.8400 ha        1 450      0.146500
@<TRIPOS>BOND
     1    1    2 1   
     2    1    3 1   
     3    1   11 1   
     4    1   41 1   
     5    2   42 1   
     6    3    4 1   
     7    3    5 1   
     8    4   13 1   
     9    4   43 1   
    10    4   44 1   
    11    5    6 1   
    12    5   20 1   
    13    5   45 1   
    14    6    7 1   
    15    6    8 1   
    16    6   46 1   
    17    7   47 1   
    18    8    9 1   
    19    8   10 1   
    20    8   48 1   
    21    9   49 1   
    22   10   11 1   
    23   10   27 1   
    24   10   50 1   
    25   11   12 1   
    26   12   34 1   
    27   12   51 1   
    28   12   52 1   
    29   13   14 ar  
    30   13   19 ar  
    31   14   15 ar  
    32   14   53 1   
    33   15   16 ar  
    34   15   54 1   
    35   16   17 ar  
    36   16   55 1   
    37   17   18 1   
    38   17   19 ar  
    39   18   56 1   
    40   18   57 1   
    41   19   58 1   
    42   20   21 1   
    43   20   59 1   
    44   20   60 1   
    45   21   22 ar  
    46   21   26 ar  
    47   22   23 ar  
    48   22   61 1   
    49   23   24 ar  
    50   23   62 1   
    51   24   25 ar  
    52   24   63 1   
    53   25   26 ar  
    54   25   64 1   
    55   26   65 1   
    56   27   28 1   
    57   27   66 1   
    58   27   67 1   
    59   28   29 ar  
    60   28   33 ar  
    61   29   30 ar  
    62   29   68 1   
    63   30   31 ar  
    64   30   69 1   
    65   31   32 ar  
    66   31   70 1   
    67   32   33 ar  
    68   32   71 1   
    69   33   72 1   
    70   34   35 ar  
    71   34   40 ar  
    72   35   36 ar  
    73   35   73 1   
    74   36   37 1   
    75   36   38 ar  
    76   37   74 1   
    77   37   75 1   
    78   38   39 ar  
    79   38   76 1   
    80   39   40 ar  
    81   39   77 1   
    82   40   78 1   
@<TRIPOS>SUBSTRUCTURE
     1 450         1 TEMP              0 ****  ****    0 ROOT
