@<TRIPOS>MOLECULE
450
   78    74     1     0     0
SMALL
bcc


@<TRIPOS>ATOM
      1 C1         -1.4550    0.8330    0.2870 c3        1 450      0.208000
      2 O1         -1.9330    1.8100   -0.6780 oh        1 450     -0.324000
      3 N2         -0.0630    0.8150    0.2730 n3        1 450     -0.371000
      4 C2          0.4390    1.9950   -0.4780 c3        1 450      0.018000
      5 C3          0.4550    0.8380    1.6070 c3        1 450      0.048000
      6 C4          0.3770   -0.5200    2.2320 c3        1 450      0.022000
      7 O4          1.3740   -1.4160    1.5870 oh        1 450     -0.316000
      8 C5         -1.0260   -1.1200    2.0700 c3        1 450     -0.003000
      9 O5         -2.0230   -0.1380    2.4900 oh        1 450     -0.323000
     10 C6         -1.2780   -1.5010    0.6570 c3        1 450     -0.033000
     11 N7         -1.9870   -0.4600   -0.0380 n3        1 450     -0.273000
     12 C7         -1.8900   -0.6960   -1.5140 c3        1 450     -0.051000
     13 C20         1.6740    1.5510   -1.4150 c2        1 450     -0.052000
     14 C21         1.8210    0.2200   -1.7840 c2        1 450     -0.150000
     15 C22         2.8200   -0.1480   -2.7090 c1        1 450     -0.102000
     16 C23         3.6460    0.8080   -3.2410 c1        1 450     -0.190000
     17 C28         3.4980    2.1400   -2.8690 c1        1 450      0.047000
     18 N29         4.4550    3.0950   -3.2770 n2        1 450     -0.325500
     19 C29         2.5000    2.5050   -1.9480 c2        1 450     -0.196000
     20 C31         1.9200    1.3040    1.5860 c3        1 450     -0.134000
     21 C32         2.3350    1.7680    3.0260 c2        1 450     -0.072000
     22 C33         3.1900    0.9990    3.7720 c2        1 450     -0.127000
     23 C34         3.5730    1.4210    5.0670 c1        1 450     -0.132000
     24 C35         3.0930    2.5880    5.5710 c1        1 450     -0.130000
     25 C36         2.2160    3.3770    4.8050 c1        1 450     -0.130000
     26 C37         1.8430    2.9650    3.5430 c1        1 450     -0.128000
     27 C61        -2.1110   -2.7770    0.6180 c3        1 450     -0.132000
     28 C62        -1.1520   -4.0480    0.5920 c2        1 450     -0.081000
     29 C63        -1.1700   -4.8720   -0.4710 c2        1 450     -0.127000
     30 C64        -0.4410   -6.0230   -0.4550 c1        1 450     -0.126000
     31 C65         0.3040   -6.3400    0.6340 c1        1 450     -0.130000
     32 C66         0.3240   -5.4940    1.7290 c1        1 450     -0.130000
     33 C67        -0.3860   -4.3720    1.7140 c1        1 450     -0.131000
     34 C70        -2.8840    0.2950   -2.2810 c2        1 450     -0.050000
     35 C71        -2.6440    0.6330   -3.6540 c2        1 450     -0.202000
     36 C72        -3.5510    1.4550   -4.3430 c1        1 450      0.059000
     37 N79        -3.3500    1.7340   -5.7250 n2        1 450     -0.325500
     38 C77        -4.6690    1.9370   -3.6990 c2        1 450     -0.188000
     39 C78        -4.9080    1.6010   -2.3350 c1        1 450     -0.094000
     40 C79        -4.0030    0.7780   -1.6430 c1        1 450     -0.146000
     41 H1         -1.7520    1.0810    1.1550 h3        1 450      0.151000
     42 HO1        -2.2810    2.5110   -0.2430 ho        1 450      0.216000
     43 H21A       -0.3220    2.3790   -1.0680 h1        1 450      0.079500
     44 H22A        0.7530    2.7170    0.1870 h1        1 450      0.079500
     45 H3         -0.0300    1.4190    2.1000 h1        1 450      0.087000
     46 H4          0.5900   -0.4420    3.2130 h1        1 450      0.096000
     47 HO4         1.8320   -1.8930    2.2410 ho        1 450      0.197000
     48 H5         -1.1090   -1.9890    2.6870 h1        1 450      0.078000
     49 HO5        -2.4020   -0.4040    3.3330 ho        1 450      0.214000
     50 H6         -0.4160   -1.6630    0.2060 h1        1 450      0.104000
     51 H71A       -0.8990   -0.5180   -1.8370 h1        1 450      0.090500
     52 H72        -2.1580   -1.7050   -1.7290 h1        1 450      0.090500
     53 H21         1.1890   -0.5110   -1.3750 ha        1 450      0.163000
     54 H22         2.9250   -1.0890   -2.9710 ha        1 450      0.127000
     55 H23         4.3970    0.5330   -3.9330 ha        1 450      0.128000
     56 HN21        4.3560    4.0340   -3.0060 hn        1 450      0.181000
     57 HN22        5.1230    2.8540   -3.8360 hn        1 450      0.181000
     58 H29         2.3880    3.5040   -1.6690 ha        1 450      0.129000
     59 H311        2.5050    0.5510    1.3000 hc        1 450      0.110000
     60 H312        2.0180    2.0500    0.9620 hc        1 450      0.110000
     61 H33         3.5080    0.2210    3.4360 ha        1 450      0.136000
     62 H34         4.1830    0.8730    5.5990 ha        1 450      0.129000
     63 H35         3.3830    2.9080    6.5510 ha        1 450      0.131500
     64 H36         1.8930    4.1640    5.1430 ha        1 450      0.131500
     65 H37         1.2060    3.5390    2.9880 ha        1 450      0.133000
     66 H611       -2.6410   -2.8140    1.3500 hc        1 450      0.096500
     67 H612       -2.6610   -2.7740   -0.1770 hc        1 450      0.096500
     68 H63        -1.7100   -4.6430   -1.2600 ha        1 450      0.134000
     69 H64        -0.4560   -6.6400   -1.2540 ha        1 450      0.133000
     70 H65         0.8680   -7.2310    0.6440 ha        1 450      0.131500
     71 H66         0.8840   -5.7320    2.5480 ha        1 450      0.131500
     72 H67        -0.3710   -3.7470    2.5230 ha        1 450      0.132000
     73 H71        -1.9360    0.2480   -4.1070 ha        1 450      0.132000
     74 HN71       -3.8450    2.3520   -6.1320 hn        1 450      0.181000
     75 HN72       -2.7900    1.3370   -6.1340 hn        1 450      0.181000
     76 H77        -5.2770    2.4890   -4.1610 ha        1 450      0.131000
     77 H78        -5.7100    1.9470   -1.8760 ha        1 450      0.130000
     78 H79        -4.1690    0.5490   -0.7040 ha        1 450      0.140000
@<TRIPOS>BOND
     1    1    2 1   
     2    1    3 1   
     3    1   11 1   
     4    1   41 1   
     5    2   42 1   
     6    3    4 1   
     7    3    5 1   
     8    4   13 1   
     9    4   43 1   
    10    4   44 1   
    11    5    6 1   
    12    5   20 1   
    13    5   45 1   
    14    6    7 1   
    15    6    8 1   
    16    6   46 1   
    17    7   47 1   
    18    8    9 1   
    19    8   10 1   
    20    8   48 1   
    21    9   49 1   
    22   10   11 1   
    23   10   27 1   
    24   10   50 1   
    25   11   12 1   
    26   12   34 1   
    27   12   51 1   
    28   12   52 1   
    29   13   14 1   
    30   13   19 1   
    31   14   15 1   
    32   14   53 1   
    33   15   54 1   
    34   16   17 1   
    35   16   55 1   
    36   17   19 1   
    37   18   56 1   
    38   18   57 1   
    39   19   58 1   
    40   20   21 1   
    41   20   59 1   
    42   20   60 1   
    43   21   22 1   
    44   21   26 1   
    45   22   23 1   
    46   22   61 1   
    47   23   62 1   
    48   24   25 1   
    49   24   63 1   
    50   25   64 1   
    51   26   65 1   
    52   27   28 1   
    53   27   66 1   
    54   27   67 1   
    55   28   29 1   
    56   28   33 1   
    57   29   30 1   
    58   29   68 1   
    59   30   69 1   
    60   31   32 1   
    61   31   70 1   
    62   32   71 1   
    63   33   72 1   
    64   34   35 1   
    65   34   40 1   
    66   35   36 1   
    67   35   73 1   
    68   36   38 1   
    69   37   74 1   
    70   37   75 1   
    71   38   39 1   
    72   38   76 1   
    73   39   77 1   
    74   40   78 1   
@<TRIPOS>SUBSTRUCTURE
     1 450         1 TEMP              0 ****  ****    0 ROOT
