@<TRIPOS>MOLECULE
450
   78    82     1     0     0
SMALL
bcc


@<TRIPOS>ATOM
      1 C1          0.2080   -1.6530   -0.3300 c3        1 450      0.647500
      2 O1         -0.4430   -2.8940   -0.5870 oh        1 450     -0.598800
      3 N2         -0.3630   -0.9610    0.8490 n3        1 450     -0.802100
      4 C2         -1.6180   -1.4310    1.3670 c3        1 450      0.232100
      5 C3          0.6620   -0.4880    1.7560 c3        1 450      0.238500
      6 C4          1.4230    0.7350    1.1700 c3        1 450      0.098100
      7 O4          0.5280    1.8310    1.0800 oh        1 450     -0.582800
      8 C5          2.1030    0.4740   -0.1860 c3        1 450      0.098100
      9 O5          2.9270   -0.6780   -0.1460 oh        1 450     -0.582800
     10 C6          1.1360    0.3920   -1.3900 c3        1 450      0.238500
     11 N7          0.2940   -0.7980   -1.5290 n3        1 450     -0.802100
     12 C7         -0.9850   -0.4820   -2.1570 c3        1 450      0.232100
     13 C20        -2.5600   -0.3890    1.9140 ca        1 450     -0.061800
     14 C21        -2.5260    0.9480    1.5120 ca        1 450     -0.166000
     15 C22        -3.4800    1.8390    2.0020 ca        1 450     -0.097500
     16 C23        -4.4660    1.4200    2.8860 ca        1 450     -0.189500
     17 C28        -4.5160    0.0690    3.3020 ca        1 450      0.132100
     18 N29        -5.5580   -0.3890    4.1220 nh        1 450     -0.815200
     19 C29        -3.5420   -0.8260    2.8080 ca        1 450     -0.178500
     20 C31         0.1790   -0.1210    3.1700 c3        1 450     -0.048600
     21 C32         1.3220    0.0290    4.1130 ca        1 450     -0.083300
     22 C33         1.6900    1.2940    4.5870 ca        1 450     -0.131000
     23 C34         2.7410    1.4280    5.4940 ca        1 450     -0.129750
     24 C35         3.4340    0.3000    5.9340 ca        1 450     -0.133000
     25 C36         3.0720   -0.9630    5.4660 ca        1 450     -0.129750
     26 C37         2.0210   -1.0990    4.5610 ca        1 450     -0.131000
     27 C61         1.9760    0.5880   -2.6770 c3        1 450     -0.048600
     28 C62         2.3800    2.0100   -2.8520 ca        1 450     -0.083300
     29 C63         3.7140    2.3980   -2.6840 ca        1 450     -0.131000
     30 C64         4.0890    3.7280   -2.8720 ca        1 450     -0.129750
     31 C65         3.1350    4.6810   -3.2270 ca        1 450     -0.133000
     32 C66         1.8040    4.3000   -3.3980 ca        1 450     -0.129750
     33 C67         1.4270    2.9720   -3.2120 ca        1 450     -0.131000
     34 C70        -1.4670   -1.5180   -3.1360 ca        1 450     -0.061800
     35 C71        -0.6180   -2.0160   -4.1220 ca        1 450     -0.178500
     36 C72        -1.0940   -2.9460   -5.0760 ca        1 450      0.132100
     37 N79        -0.2670   -3.3810   -6.1190 nh        1 450     -0.815200
     38 C77        -2.4440   -3.3610   -5.0030 ca        1 450     -0.189500
     39 C78        -3.2770   -2.8530   -4.0130 ca        1 450     -0.097500
     40 C79        -2.8000   -1.9400   -3.0770 ca        1 450     -0.166000
     41 H1          1.2770   -1.9930   -0.1050 h3        1 450      0.115700
     42 HO1        -1.2360   -2.7610   -1.1250 ho        1 450      0.417000
     43 H21A       -1.4560   -2.2220    2.1600 h1        1 450      0.046450
     44 H22A       -2.1850   -1.9310    0.5240 h1        1 450      0.046450
     45 H3          1.4620   -1.2910    1.8770 h1        1 450      0.039700
     46 H4          2.2370    0.9890    1.9150 h1        1 450      0.037700
     47 HO4         1.0360    2.5760    0.7350 ho        1 450      0.400000
     48 H5          2.7650    1.3730   -0.3940 h1        1 450      0.037700
     49 HO5         3.5110   -0.5770    0.6160 ho        1 450      0.400000
     50 H6          0.4750    1.3110   -1.2630 h1        1 450      0.039700
     51 H71A       -1.7880   -0.3080   -1.3800 h1        1 450      0.046450
     52 H72        -0.8850    0.4810   -2.7440 h1        1 450      0.046450
     53 H21        -1.7390    1.3050    0.8290 ha        1 450      0.147000
     54 H22        -3.4500    2.8930    1.6860 ha        1 450      0.129000
     55 H23        -5.2110    2.1400    3.2550 ha        1 450      0.130000
     56 HN21       -5.9620    0.3210    4.6920 hn        1 450      0.385300
     57 HN22       -5.3340   -1.2140    4.6350 hn        1 450      0.385300
     58 H29        -3.5590   -1.8820    3.1180 ha        1 450      0.137000
     59 H311       -0.4170    0.8300    3.1100 hc        1 450      0.070950
     60 H312       -0.5010   -0.9220    3.5670 hc        1 450      0.070950
     61 H33         1.1430    2.1840    4.2410 ha        1 450      0.135000
     62 H34         3.0210    2.4250    5.8640 ha        1 450      0.131250
     63 H35         4.2610    0.4070    6.6500 ha        1 450      0.131500
     64 H36         3.6140   -1.8540    5.8140 ha        1 450      0.131250
     65 H37         1.7320   -2.0970    4.1990 ha        1 450      0.135000
     66 H611        2.8770   -0.0790   -2.6190 hc        1 450      0.070950
     67 H612        1.3800    0.2720   -3.5760 hc        1 450      0.070950
     68 H63         4.4700    1.6480   -2.4080 ha        1 450      0.135000
     69 H64         5.1400    4.0240   -2.7410 ha        1 450      0.131250
     70 H65         3.4320    5.7290   -3.3770 ha        1 450      0.131500
     71 H66         1.0500    5.0490   -3.6830 ha        1 450      0.131250
     72 H67         0.3780    2.6700   -3.3530 ha        1 450      0.135000
     73 H71         0.4310   -1.6830   -4.1500 ha        1 450      0.137000
     74 HN71       -0.5360   -4.2570   -6.5110 hn        1 450      0.385300
     75 HN72        0.7070   -3.3320   -5.9120 hn        1 450      0.385300
     76 H77        -2.8420   -4.0820   -5.7310 ha        1 450      0.130000
     77 H78        -4.3270   -3.1820   -3.9690 ha        1 450      0.129000
     78 H79        -3.4710   -1.5480   -2.2980 ha        1 450      0.147000
@<TRIPOS>BOND
     1    1    2 1   
     2    1    3 1   
     3    1   11 1   
     4    1   41 1   
     5    2   42 1   
     6    3    4 1   
     7    3    5 1   
     8    4   13 1   
     9    4   43 1   
    10    4   44 1   
    11    5    6 1   
    12    5   20 1   
    13    5   45 1   
    14    6    7 1   
    15    6    8 1   
    16    6   46 1   
    17    7   47 1   
    18    8    9 1   
    19    8   10 1   
    20    8   48 1   
    21    9   49 1   
    22   10   11 1   
    23   10   27 1   
    24   10   50 1   
    25   11   12 1   
    26   12   34 1   
    27   12   51 1   
    28   12   52 1   
    29   13   14 ar  
    30   13   19 ar  
    31   14   15 ar  
    32   14   53 1   
    33   15   16 ar  
    34   15   54 1   
    35   16   17 ar  
    36   16   55 1   
    37   17   18 1   
    38   17   19 ar  
    39   18   56 1   
    40   18   57 1   
    41   19   58 1   
    42   20   21 1   
    43   20   59 1   
    44   20   60 1   
    45   21   22 ar  
    46   21   26 ar  
    47   22   23 ar  
    48   22   61 1   
    49   23   24 ar  
    50   23   62 1   
    51   24   25 ar  
    52   24   63 1   
    53   25   26 ar  
    54   25   64 1   
    55   26   65 1   
    56   27   28 1   
    57   27   66 1   
    58   27   67 1   
    59   28   29 ar  
    60   28   33 ar  
    61   29   30 ar  
    62   29   68 1   
    63   30   31 ar  
    64   30   69 1   
    65   31   32 ar  
    66   31   70 1   
    67   32   33 ar  
    68   32   71 1   
    69   33   72 1   
    70   34   35 ar  
    71   34   40 ar  
    72   35   36 ar  
    73   35   73 1   
    74   36   37 1   
    75   36   38 ar  
    76   37   74 1   
    77   37   75 1   
    78   38   39 ar  
    79   38   76 1   
    80   39   40 ar  
    81   39   77 1   
    82   40   78 1   
@<TRIPOS>SUBSTRUCTURE
     1 450         1 TEMP              0 ****  ****    0 ROOT
