@<TRIPOS>MOLECULE
450
   78    82     1     0     0
SMALL
bcc


@<TRIPOS>ATOM
      1 C1         -0.1280    0.3510    0.1470 c3        1 450      0.634500
      2 O1         -0.7520    1.5810   -0.2110 oh        1 450     -0.598800
      3 N2          1.3490    0.4480    0.1640 n3        1 450     -0.796100
      4 C2          1.9490    1.5960   -0.4610 c3        1 450      0.227100
      5 C3          1.9080   -0.0750    1.3980 c3        1 450      0.204500
      6 C4          1.8490   -1.6270    1.4380 c3        1 450      0.121100
      7 O4          2.7600   -2.1440    0.4820 oh        1 450     -0.591800
      8 C5          0.4500   -2.2300    1.1990 c3        1 450      0.121100
      9 O5         -0.4120   -1.6950    2.1880 oh        1 450     -0.591800
     10 C6         -0.0580   -2.0910   -0.2560 c3        1 450      0.204500
     11 N7         -0.6330   -0.7970   -0.6400 n3        1 450     -0.796100
     12 C7         -0.5730   -0.6020   -2.0880 c3        1 450      0.227100
     13 C20         3.2660    1.3780   -1.1590 ca        1 450     -0.058300
     14 C21         3.6990    0.1250   -1.5960 ca        1 450     -0.166500
     15 C22         4.8970    0.0170   -2.3020 ca        1 450     -0.096000
     16 C23         5.6700    1.1370   -2.5800 ca        1 450     -0.189500
     17 C28         5.2520    2.4130   -2.1340 ca        1 450      0.133600
     18 N29         6.0690    3.5380   -2.3190 nv        1 450     -0.816200
     19 C29         4.0340    2.5150   -1.4270 ca        1 450     -0.180000
     20 C31         3.3510    0.3630    1.7070 c3        1 450     -0.047100
     21 C32         3.7330    0.0410    3.1100 ca        1 450     -0.083300
     22 C33         4.6880   -0.9480    3.3740 ca        1 450     -0.128000
     23 C34         5.0710   -1.2240    4.6860 ca        1 450     -0.128500
     24 C35         4.5020   -0.5170    5.7450 ca        1 450     -0.131500
     25 C36         3.5500    0.4690    5.4890 ca        1 450     -0.128500
     26 C37         3.1670    0.7480    4.1780 ca        1 450     -0.128000
     27 C61        -1.0910   -3.2200   -0.5060 c3        1 450     -0.047100
     28 C62        -0.4230   -4.5380   -0.6910 ca        1 450     -0.083300
     29 C63        -0.5140   -5.5290    0.2920 ca        1 450     -0.128000
     30 C64         0.0950   -6.7690    0.1000 ca        1 450     -0.128500
     31 C65         0.8000   -7.0280   -1.0740 ca        1 450     -0.131500
     32 C66         0.8950   -6.0430   -2.0590 ca        1 450     -0.128500
     33 C67         0.2860   -4.8050   -1.8690 ca        1 450     -0.128000
     34 C70        -1.8020    0.0380   -2.6740 ca        1 450     -0.058300
     35 C71        -3.0720   -0.4430   -2.3640 ca        1 450     -0.180000
     36 C72        -4.2200    0.1260   -2.9620 ca        1 450      0.133600
     37 N79        -5.4900   -0.4110   -2.7180 nv        1 450     -0.816200
     38 C77        -4.0510    1.1940   -3.8740 ca        1 450     -0.189500
     39 C78        -2.7760    1.6600   -4.1740 ca        1 450     -0.096000
     40 C79        -1.6510    1.0950   -3.5790 ca        1 450     -0.166500
     41 H1         -0.5190    0.1970    1.2120 h3        1 450      0.111700
     42 HO1        -0.8040    1.6750   -1.1720 ho        1 450      0.415000
     43 H21A        1.2440    1.9720   -1.2630 h1        1 450      0.045450
     44 H22A        2.0710    2.4430    0.2810 h1        1 450      0.045450
     45 H3          1.2650    0.2570    2.2780 h1        1 450      0.056700
     46 H4          2.1760   -1.9320    2.4750 h1        1 450      0.048200
     47 HO4         2.7870   -3.1000    0.6140 ho        1 450      0.405500
     48 H5          0.5400   -3.3460    1.3850 h1        1 450      0.048200
     49 HO5        -1.3140   -1.9230    1.9310 ho        1 450      0.405500
     50 H6          0.8550   -2.3130   -0.8980 h1        1 450      0.056700
     51 H71A       -0.4580   -1.6030   -2.6030 h1        1 450      0.045450
     52 H72         0.3340    0.0100   -2.3770 h1        1 450      0.045450
     53 H21         3.1130   -0.7800   -1.3680 ha        1 450      0.146500
     54 H22         5.2370   -0.9730   -2.6440 ha        1 450      0.129000
     55 H23         6.6120    1.0260   -3.1360 ha        1 450      0.130000
     56 HN21        5.5750    4.4030   -2.3020 hn        1 450      0.385550
     57 HN22        6.6880    3.4620   -3.0950 hn        1 450      0.385550
     58 H29         3.6860    3.4970   -1.0720 ha        1 450      0.135000
     59 H311        4.0440   -0.1410    0.9800 hc        1 450      0.064700
     60 H312        3.4570    1.4720    1.5620 hc        1 450      0.064700
     61 H33         5.1380   -1.5060    2.5390 ha        1 450      0.133500
     62 H34         5.8250   -2.0000    4.8840 ha        1 450      0.131500
     63 H35         4.8050   -0.7350    6.7790 ha        1 450      0.131000
     64 H36         3.1000    1.0290    6.3220 ha        1 450      0.131500
     65 H37         2.4190    1.5300    3.9790 ha        1 450      0.133500
     66 H611       -1.6980   -2.9960   -1.4250 hc        1 450      0.064700
     67 H612       -1.8090   -3.2630    0.3550 hc        1 450      0.064700
     68 H63        -1.0730   -5.3320    1.2200 ha        1 450      0.133500
     69 H64         0.0160   -7.5430    0.8770 ha        1 450      0.131500
     70 H65         1.2800   -8.0060   -1.2250 ha        1 450      0.131000
     71 H66         1.4490   -6.2450   -2.9870 ha        1 450      0.131500
     72 H67         0.3570   -4.0290   -2.6470 ha        1 450      0.133500
     73 H71        -3.1760   -1.2700   -1.6440 ha        1 450      0.135000
     74 HN71       -6.2390    0.2240   -2.8830 hn        1 450      0.385550
     75 HN72       -5.5690   -0.8870   -1.8470 hn        1 450      0.385550
     76 H77        -4.9250    1.6550   -4.3560 ha        1 450      0.130000
     77 H78        -2.6570    2.4890   -4.8880 ha        1 450      0.129000
     78 H79        -0.6490    1.4750   -3.8250 ha        1 450      0.146500
@<TRIPOS>BOND
     1    1    2 1   
     2    1    3 1   
     3    1   11 1   
     4    1   41 1   
     5    2   42 1   
     6    3    4 1   
     7    3    5 1   
     8    4   13 1   
     9    4   43 1   
    10    4   44 1   
    11    5    6 1   
    12    5   20 1   
    13    5   45 1   
    14    6    7 1   
    15    6    8 1   
    16    6   46 1   
    17    7   47 1   
    18    8    9 1   
    19    8   10 1   
    20    8   48 1   
    21    9   49 1   
    22   10   11 1   
    23   10   27 1   
    24   10   50 1   
    25   11   12 1   
    26   12   34 1   
    27   12   51 1   
    28   12   52 1   
    29   13   14 ar  
    30   13   19 ar  
    31   14   15 ar  
    32   14   53 1   
    33   15   16 ar  
    34   15   54 1   
    35   16   17 ar  
    36   16   55 1   
    37   17   18 1   
    38   17   19 ar  
    39   18   56 1   
    40   18   57 1   
    41   19   58 1   
    42   20   21 1   
    43   20   59 1   
    44   20   60 1   
    45   21   22 ar  
    46   21   26 ar  
    47   22   23 ar  
    48   22   61 1   
    49   23   24 ar  
    50   23   62 1   
    51   24   25 ar  
    52   24   63 1   
    53   25   26 ar  
    54   25   64 1   
    55   26   65 1   
    56   27   28 1   
    57   27   66 1   
    58   27   67 1   
    59   28   29 ar  
    60   28   33 ar  
    61   29   30 ar  
    62   29   68 1   
    63   30   31 ar  
    64   30   69 1   
    65   31   32 ar  
    66   31   70 1   
    67   32   33 ar  
    68   32   71 1   
    69   33   72 1   
    70   34   35 ar  
    71   34   40 ar  
    72   35   36 ar  
    73   35   73 1   
    74   36   37 1   
    75   36   38 ar  
    76   37   74 1   
    77   37   75 1   
    78   38   39 ar  
    79   38   76 1   
    80   39   40 ar  
    81   39   77 1   
    82   40   78 1   
@<TRIPOS>SUBSTRUCTURE
     1 450         1 TEMP              0 ****  ****    0 ROOT
