@<TRIPOS>MOLECULE
451
   57    54     1     0     0
SMALL
bcc


@<TRIPOS>ATOM
      1 C1          1.2190    0.5480   -2.0870 c1        1 451     -0.147000
      2 C2          2.5650    1.0240   -2.1430 c1        1 451      0.071000
      3 C3          3.2640    1.2930   -0.9440 c1        1 451     -0.145000
      4 C4          2.6440    1.0950    0.2680 c1        1 451      0.036500
      5 C5          1.2540    0.6040    0.3120 c1        1 451      0.036500
      6 C6          0.5890    0.3480   -0.8420 c1        1 451     -0.147000
      7 O7          0.6960    0.2170    1.5260 os        1 451     -0.211000
      8 C8          1.0860   -1.1480    1.8730 c3        1 451     -0.035000
      9 C9          0.5570   -2.1230    0.8220 c3        1 451     -0.049500
     10 O10        -0.4480   -1.4610   -0.0070 os        1 451     -0.276000
     11 C11        -0.8890   -2.3510   -0.9890 c3        1 451     -0.034000
     12 C12        -1.8530   -1.5780   -2.0120 c3        1 451     -0.063000
     13 O13        -2.4170   -0.4540   -1.3800 os        1 451     -0.213000
     14 C14        -3.5120   -0.8820   -0.5260 c2        1 451      0.043500
     15 C15        -3.6880   -0.2640    0.8280 c2        1 451      0.043500
     16 O16        -2.7900    0.9030    1.2620 os        1 451     -0.213000
     17 C17        -2.4060    0.7560    2.6680 c3        1 451     -0.063000
     18 C18        -1.2450    1.7150    2.9930 c3        1 451     -0.034000
     19 O19         0.0750    1.0020    2.7840 os        1 451     -0.276000
     20 C20         1.1360    1.9760    2.7930 c3        1 451     -0.049500
     21 C21         2.5970    1.2210    2.7550 c3        1 451     -0.035000
     22 O22         3.3130    1.5680    1.5340 os        1 451     -0.211000
     23 C23        -4.3970   -1.8670   -0.9600 c1        1 451     -0.151500
     24 C24        -5.4720   -2.2850   -0.1090 c1        1 451     -0.147000
     25 C25        -5.6390   -1.6820    1.2050 c1        1 451     -0.147000
     26 C26        -4.7350   -0.6750    1.6500 c1        1 451     -0.151500
     27 N27         3.2590    1.0360   -3.3970 n         1 451     -0.329000
     28 C28         4.4530    1.7820   -3.5370 c2        1 451      0.309000
     29 O29         4.8930    2.4170   -2.5820 o         1 451     -0.343000
     30 C30         5.2140    1.7970   -4.9040 c3        1 451     -0.246000
     31 H1          0.7450    0.3660   -2.8900 ha        1 451      0.133500
     32 H3          4.2380    1.6390   -0.9780 ha        1 451      0.192000
     33 H6         -0.3020    0.0340   -0.8100 ha        1 451      0.133500
     34 H8          0.7010   -1.3890    2.7780 h1        1 451      0.105750
     35 H8A         2.0310   -1.2050    1.9060 h1        1 451      0.105750
     36 H9          0.1600   -2.8860    1.2630 h1        1 451      0.093750
     37 H9A         1.3160   -2.4330    0.2430 h1        1 451      0.093750
     38 H11        -0.1400   -2.6970   -1.4580 h1        1 451      0.098000
     39 H11A       -1.3810   -3.0890   -0.5680 h1        1 451      0.098000
     40 H12        -1.3530   -1.2950   -2.7640 h1        1 451      0.106500
     41 H12A       -2.5550   -2.1680   -2.2980 h1        1 451      0.106500
     42 H17        -3.1400    0.9610    3.2130 h1        1 451      0.106500
     43 H17A       -2.1220   -0.1700    2.8370 h1        1 451      0.106500
     44 H18        -1.2930    2.5190    2.3900 h1        1 451      0.098000
     45 H18A       -1.3160    2.0090    3.9400 h1        1 451      0.098000
     46 H20         1.0470    2.5660    2.0030 h1        1 451      0.093750
     47 H20A        1.0700    2.5300    3.6330 h1        1 451      0.093750
     48 H21         2.4650    0.2710    2.7880 h1        1 451      0.105750
     49 H21A        3.1350    1.5060    3.5420 h1        1 451      0.105750
     50 H23        -4.2840   -2.2810   -1.8610 ha        1 451      0.141000
     51 H24        -6.1100   -2.9940   -0.4210 ha        1 451      0.133500
     52 H25        -6.4120   -1.9820    1.8170 ha        1 451      0.133500
     53 H26        -4.8530   -0.2610    2.5560 ha        1 451      0.141000
     54 HN27        2.9000    0.5630   -4.1420 hn        1 451      0.227000
     55 H30         4.5710    1.6510   -5.6450 hc        1 451      0.108000
     56 H30A        5.6480    2.6490   -5.0170 hc        1 451      0.108000
     57 H30B        5.9130    1.0570   -4.9110 hc        1 451      0.108000
@<TRIPOS>BOND
     1    1    6 1   
     2    1   31 1   
     3    2    3 1   
     4    2   27 1   
     5    3   32 1   
     6    4    5 1   
     7    4   22 1   
     8    5    7 1   
     9    6   33 1   
    10    7    8 1   
    11    8    9 1   
    12    8   34 1   
    13    8   35 1   
    14    9   10 1   
    15    9   36 1   
    16    9   37 1   
    17   10   11 1   
    18   11   12 1   
    19   11   38 1   
    20   11   39 1   
    21   12   13 1   
    22   12   40 1   
    23   12   41 1   
    24   13   14 1   
    25   14   15 1   
    26   14   23 1   
    27   15   16 1   
    28   15   26 1   
    29   16   17 1   
    30   17   18 1   
    31   17   42 1   
    32   17   43 1   
    33   18   19 1   
    34   18   44 1   
    35   18   45 1   
    36   19   20 1   
    37   20   21 1   
    38   20   46 1   
    39   20   47 1   
    40   21   22 1   
    41   21   48 1   
    42   21   49 1   
    43   23   50 1   
    44   24   25 1   
    45   24   51 1   
    46   25   52 1   
    47   26   53 1   
    48   27   28 1   
    49   27   54 1   
    50   28   29 1   
    51   28   30 1   
    52   30   55 1   
    53   30   56 1   
    54   30   57 1   
@<TRIPOS>SUBSTRUCTURE
     1 451         1 TEMP              0 ****  ****    0 ROOT
