@<TRIPOS>MOLECULE
451
   57    59     1     0     0
SMALL
bcc


@<TRIPOS>ATOM
      1 C1         -0.3290    0.2380    0.3960 ca        1 451     -0.207000
      2 C2          1.0830    0.1200    0.4490 ca        1 451      0.099600
      3 C3          1.7170    0.0520    1.7050 ca        1 451     -0.222000
      4 C4          0.9560    0.0970    2.8780 ca        1 451      0.145100
      5 C5         -0.4510    0.2060    2.8120 ca        1 451      0.031100
      6 C6         -1.0760    0.2800    1.5650 ca        1 451     -0.099000
      7 O7         -1.1950    0.1270    3.9790 os        1 451     -0.327900
      8 C8         -1.9180    1.3210    4.2990 c3        1 451      0.097400
      9 C9         -1.0090    2.3870    4.9050 c3        1 451      0.089400
     10 O10        -1.2970    2.5400    6.2920 os        1 451     -0.415600
     11 C11        -0.3590    1.9360    7.1670 c3        1 451      0.097400
     12 C12        -0.4250    0.4150    7.1040 c3        1 451      0.078400
     13 O13         0.6210   -0.1750    7.8720 os        1 451     -0.321900
     14 C14         0.5750   -0.0130    9.2420 ca        1 451      0.093100
     15 C15         1.8200   -0.0950    9.9090 ca        1 451      0.072100
     16 O16         2.9950   -0.3460    9.2190 os        1 451     -0.338900
     17 C17         3.4230    0.7520    8.3940 c3        1 451      0.094400
     18 C18         4.4850    0.1930    7.4520 c3        1 451      0.127400
     19 O19         4.0880    0.3050    6.0940 os        1 451     -0.428600
     20 C20         3.1350   -0.6800    5.6930 c3        1 451      0.112400
     21 C21         2.8560   -0.4230    4.2160 c3        1 451      0.120400
     22 O22         1.5030    0.0630    4.1430 os        1 451     -0.325900
     23 C23        -0.6000    0.1540    9.9850 ca        1 451     -0.181000
     24 C24        -0.5330    0.2160   11.3760 ca        1 451     -0.110000
     25 C25         0.6910    0.1150   12.0340 ca        1 451     -0.148000
     26 C26         1.8700   -0.0360   11.3060 ca        1 451     -0.114000
     27 N27         1.7890    0.0890   -0.7630 ns        1 451     -0.475100
     28 C28         3.1480   -0.1320   -0.9560 c         1 451      0.667100
     29 O29         3.9470   -0.3170   -0.0210 o         1 451     -0.587100
     30 C30         3.6180   -0.1310   -2.3930 c3        1 451     -0.179100
     31 H1         -0.8510    0.2920   -0.5710 ha        1 451      0.132000
     32 H3          2.8150   -0.0310    1.7680 ha        1 451      0.183000
     33 H6         -2.1730    0.3600    1.5150 ha        1 451      0.143000
     34 H8         -2.4370    1.7180    3.3900 h1        1 451      0.062700
     35 H8A        -2.6740    0.9690    5.0540 h1        1 451      0.062700
     36 H9          0.0680    2.1290    4.7250 h1        1 451      0.065200
     37 H9A        -1.2410    3.3920    4.4620 h1        1 451      0.065200
     38 H11        -0.6610    2.3060    8.1840 h1        1 451      0.057700
     39 H11A        0.6820    2.2850    6.9330 h1        1 451      0.057700
     40 H12        -1.4280    0.0370    7.4250 h1        1 451      0.081200
     41 H12A       -0.2010    0.0490    6.0580 h1        1 451      0.081200
     42 H17         2.5560    1.1710    7.8190 h1        1 451      0.051200
     43 H17A        3.8530    1.5420    9.0620 h1        1 451      0.051200
     44 H18         4.7210   -0.8730    7.7140 h1        1 451      0.063200
     45 H18A        5.4170    0.8170    7.5070 h1        1 451      0.063200
     46 H20         3.5770   -1.7020    5.8300 h1        1 451      0.061700
     47 H20A        2.2020   -0.5870    6.3110 h1        1 451      0.061700
     48 H21         2.9480   -1.3720    3.6270 h1        1 451      0.061700
     49 H21A        3.5480    0.3600    3.8070 h1        1 451      0.061700
     50 H23        -1.5720    0.2320    9.4780 ha        1 451      0.143000
     51 H24        -1.4590    0.3420   11.9560 ha        1 451      0.134000
     52 H25         0.7310    0.1580   13.1320 ha        1 451      0.135000
     53 H26         2.8430   -0.1170   11.8120 ha        1 451      0.147000
     54 HN27        1.2320    0.1990   -1.5820 hn        1 451      0.316500
     55 H30         3.1130   -0.9410   -2.9720 hc        1 451      0.070033
     56 H30A        3.4060    0.8530   -2.8760 hc        1 451      0.070033
     57 H30B        4.7210   -0.3110   -2.4050 hc        1 451      0.070033
@<TRIPOS>BOND
     1    1    2 ar  
     2    1    6 ar  
     3    1   31 1   
     4    2    3 ar  
     5    2   27 1   
     6    3    4 ar  
     7    3   32 1   
     8    4    5 ar  
     9    4   22 1   
    10    5    6 ar  
    11    5    7 1   
    12    6   33 1   
    13    7    8 1   
    14    8    9 1   
    15    8   34 1   
    16    8   35 1   
    17    9   10 1   
    18    9   36 1   
    19    9   37 1   
    20   10   11 1   
    21   11   12 1   
    22   11   38 1   
    23   11   39 1   
    24   12   13 1   
    25   12   40 1   
    26   12   41 1   
    27   13   14 1   
    28   14   15 ar  
    29   14   23 ar  
    30   15   16 1   
    31   15   26 ar  
    32   16   17 1   
    33   17   18 1   
    34   17   42 1   
    35   17   43 1   
    36   18   19 1   
    37   18   44 1   
    38   18   45 1   
    39   19   20 1   
    40   20   21 1   
    41   20   46 1   
    42   20   47 1   
    43   21   22 1   
    44   21   48 1   
    45   21   49 1   
    46   23   24 ar  
    47   23   50 1   
    48   24   25 ar  
    49   24   51 1   
    50   25   26 ar  
    51   25   52 1   
    52   26   53 1   
    53   27   28 1   
    54   27   54 1   
    55   28   29 2   
    56   28   30 1   
    57   30   55 1   
    58   30   56 1   
    59   30   57 1   
@<TRIPOS>SUBSTRUCTURE
     1 451         1 TEMP              0 ****  ****    0 ROOT
