@<TRIPOS>MOLECULE
451
   58    60     1     0     0
SMALL
bcc


@<TRIPOS>ATOM
      1 C1          0.2780    0.5290    0.3990 ca        1 451     -0.084000
      2 C2          1.2020   -0.5190    0.4710 ca        1 451     -0.089400
      3 C3          1.6920   -0.9780    1.7160 ca        1 451     -0.171000
      4 C4          1.2500   -0.3670    2.8810 ca        1 451      0.142100
      5 C5          0.3060    0.7130    2.8140 ca        1 451      0.186100
      6 C6         -0.1670    1.1380    1.5710 ca        1 451     -0.193000
      7 O7         -0.0500    1.2310    4.0200 os        1 451     -0.279900
      8 C8         -0.9250    2.3770    4.0090 c3        1 451      0.103400
      9 C9         -1.0730    2.7720    5.4770 c3        1 451      0.117400
     10 O10        -2.1930    2.0710    6.0030 os        1 451     -0.420600
     11 C11        -1.9740    1.4970    7.2860 c3        1 451      0.098400
     12 C12        -1.0010    0.3230    7.2230 c3        1 451      0.087400
     13 O13         0.2820    0.6890    7.7360 os        1 451     -0.339900
     14 C14         0.4930    0.4320    9.0810 ca        1 451      0.083100
     15 C15         1.8130    0.1150    9.4680 ca        1 451      0.074100
     16 O16         2.8090   -0.1400    8.5390 os        1 451     -0.348900
     17 C17         3.2410    1.0200    7.8080 c3        1 451      0.092400
     18 C18         4.4300    0.5670    6.9680 c3        1 451      0.127400
     19 O19         4.0420    0.1050    5.6810 os        1 451     -0.432600
     20 C20         3.3300   -1.1310    5.7130 c3        1 451      0.117400
     21 C21         2.8820   -1.4040    4.2820 c3        1 451      0.118400
     22 O22         1.6050   -0.7510    4.1440 os        1 451     -0.288900
     23 C23        -0.5110    0.5350   10.0510 ca        1 451     -0.178000
     24 C24        -0.1970    0.3330   11.3940 ca        1 451     -0.104000
     25 C25         1.1100    0.0360   11.7790 ca        1 451     -0.136000
     26 C26         2.1180   -0.0670   10.8220 ca        1 451     -0.111000
     27 N27         1.6640   -1.1790   -0.7510 n4        1 451     -0.541200
     28 C28         3.0780   -0.7450   -1.1190 c         1 451      0.560100
     29 O29         3.9310   -1.6030   -0.9640 o         1 451     -0.409100
     30 C30         3.2260    0.6450   -1.6270 c3        1 451     -0.182100
     31 H1         -0.1160    0.8860   -0.5660 ha        1 451      0.149000
     32 H3          2.4120   -1.8100    1.7740 ha        1 451      0.165000
     33 H6         -0.8980    1.9600    1.5040 ha        1 451      0.173000
     34 H8         -0.4480    3.2020    3.4220 h1        1 451      0.063200
     35 H8A        -1.9130    2.0850    3.5670 h1        1 451      0.063200
     36 H9         -1.3060    3.8690    5.5370 h1        1 451      0.074200
     37 H9A        -0.1300    2.5400    6.0430 h1        1 451      0.074200
     38 H11        -1.6080    2.2790    8.0020 h1        1 451      0.068200
     39 H11A       -2.9990    1.1480    7.5870 h1        1 451      0.068200
     40 H12        -0.7820    0.0550    6.1510 h1        1 451      0.076200
     41 H12A       -1.4130   -0.5650    7.7660 h1        1 451      0.076200
     42 H17         2.3990    1.3850    7.1620 h1        1 451      0.059200
     43 H17A        3.5540    1.8210    8.5250 h1        1 451      0.059200
     44 H18         5.0910    1.4460    6.7410 h1        1 451      0.066700
     45 H18A        5.0100   -0.2290    7.5070 h1        1 451      0.066700
     46 H20         2.4500   -1.0520    6.4080 h1        1 451      0.071700
     47 H20A        4.0170   -1.9500    6.0540 h1        1 451      0.071700
     48 H21         3.6210   -0.9910    3.5490 h1        1 451      0.056700
     49 H21A        2.7240   -2.5010    4.1190 h1        1 451      0.056700
     50 H23        -1.5430    0.7700    9.7550 ha        1 451      0.138000
     51 H24        -0.9890    0.4120   12.1540 ha        1 451      0.142000
     52 H25         1.3490   -0.1180   12.8420 ha        1 451      0.145000
     53 H26         3.1510   -0.3120   11.1120 ha        1 451      0.152000
     54 HN27        1.0280   -0.9470   -1.5210 hn        1 451      0.460800
     55 H30         2.5920    1.3670   -1.0530 hc        1 451      0.114033
     56 H30A        2.9430    0.6810   -2.7110 hc        1 451      0.114033
     57 H30B        4.3030    0.9470   -1.5290 hc        1 451      0.114033
     58 H272        1.6510   -2.1980   -0.5990 hn        1 451      0.460800
@<TRIPOS>BOND
     1    1    2 ar  
     2    1    6 ar  
     3    1   31 1   
     4    2    3 ar  
     5    2   27 1   
     6    3    4 ar  
     7    3   32 1   
     8    4    5 ar  
     9    4   22 1   
    10    5    6 ar  
    11    5    7 1   
    12    6   33 1   
    13    7    8 1   
    14    8    9 1   
    15    8   34 1   
    16    8   35 1   
    17    9   10 1   
    18    9   36 1   
    19    9   37 1   
    20   10   11 1   
    21   11   12 1   
    22   11   38 1   
    23   11   39 1   
    24   12   13 1   
    25   12   40 1   
    26   12   41 1   
    27   13   14 1   
    28   14   15 ar  
    29   14   23 ar  
    30   15   16 1   
    31   15   26 ar  
    32   16   17 1   
    33   17   18 1   
    34   17   42 1   
    35   17   43 1   
    36   18   19 1   
    37   18   44 1   
    38   18   45 1   
    39   19   20 1   
    40   20   21 1   
    41   20   46 1   
    42   20   47 1   
    43   21   22 1   
    44   21   48 1   
    45   21   49 1   
    46   23   24 ar  
    47   23   50 1   
    48   24   25 ar  
    49   24   51 1   
    50   25   26 ar  
    51   25   52 1   
    52   26   53 1   
    53   27   28 1   
    54   27   54 1   
    55   27   58 1   
    56   28   29 2   
    57   28   30 1   
    58   30   55 1   
    59   30   56 1   
    60   30   57 1   
@<TRIPOS>SUBSTRUCTURE
     1 451         1 TEMP              0 ****  ****    0 ROOT
