@<TRIPOS>MOLECULE
451
   57    59     1     0     0
SMALL
bcc


@<TRIPOS>ATOM
      1 C1          4.5310    2.0270   -0.4560 ca        1 451     -0.207000
      2 C2          4.6530    0.6390   -0.1950 ca        1 451      0.099600
      3 C3          3.4870   -0.1490   -0.1200 ca        1 451     -0.222000
      4 C4          2.2310    0.4390   -0.3060 ca        1 451      0.145100
      5 C5          2.1230    1.8210   -0.5740 ca        1 451      0.031100
      6 C6          3.2810    2.6000   -0.6420 ca        1 451     -0.099000
      7 O7          0.8820    2.3610   -0.8750 os        1 451     -0.327900
      8 C8          0.4110    3.3230    0.0750 c3        1 451      0.097400
      9 C9         -0.1420    2.6540    1.3300 c3        1 451      0.089400
     10 O10        -1.5590    2.7890    1.3690 os        1 451     -0.415600
     11 C11        -2.2810    1.6200    1.0180 c3        1 451      0.097400
     12 C12        -2.1400    1.2940   -0.4640 c3        1 451      0.078400
     13 O13        -2.7430    0.0390   -0.7700 os        1 451     -0.321900
     14 C14        -4.1160   -0.0530   -0.6580 ca        1 451      0.093100
     15 C15        -4.6240   -1.3520   -0.4180 ca        1 451      0.072100
     16 O16        -3.7850   -2.4520   -0.3310 os        1 451     -0.338900
     17 C17        -2.9790   -2.4650    0.8600 c3        1 451      0.094400
     18 C18        -1.8870   -3.5050    0.6270 c3        1 451      0.127400
     19 O19        -0.5940   -2.9190    0.6600 os        1 451     -0.428600
     20 C20        -0.2550   -2.2150   -0.5350 c3        1 451      0.112400
     21 C21         1.1610   -1.6880   -0.3290 c3        1 451      0.120400
     22 O22         1.0450   -0.2580   -0.2210 os        1 451     -0.325900
     23 C23        -5.0020    1.0170   -0.8280 ca        1 451     -0.181000
     24 C24        -6.3760    0.7890   -0.7820 ca        1 451     -0.110000
     25 C25        -6.8770   -0.4940   -0.5670 ca        1 451     -0.148000
     26 C26        -6.0060   -1.5660   -0.3800 ca        1 451     -0.114000
     27 N27         5.9410    0.1130   -0.0100 n         1 451     -0.475100
     28 C28         6.3060   -1.2200    0.1420 c         1 451      0.667100
     29 O29         5.4850   -2.1540    0.1540 o         1 451     -0.587100
     30 C30         7.7870   -1.4820    0.3010 c3        1 451     -0.179100
     31 H1          5.4240    2.6660   -0.5220 ha        1 451      0.132000
     32 H3          3.5610   -1.2280    0.0920 ha        1 451      0.183000
     33 H6          3.1940    3.6770   -0.8560 ha        1 451      0.143000
     34 H8          1.2280    4.0410    0.3400 h1        1 451      0.062700
     35 H8A        -0.4070    3.8560   -0.4830 h1        1 451      0.062700
     36 H9          0.1800    1.5790    1.3730 h1        1 451      0.065200
     37 H9A         0.2130    3.1970    2.2480 h1        1 451      0.065200
     38 H11        -1.9440    0.7460    1.6370 h1        1 451      0.057700
     39 H11A       -3.3460    1.8740    1.2710 h1        1 451      0.057700
     40 H12        -2.5570    2.1110   -1.1030 h1        1 451      0.081200
     41 H12A       -1.0560    1.1190   -0.7320 h1        1 451      0.081200
     42 H17        -2.5360   -1.4520    1.0450 h1        1 451      0.051200
     43 H17A       -3.6350   -2.7560    1.7210 h1        1 451      0.051200
     44 H18        -1.8650   -4.2390    1.4770 h1        1 451      0.063200
     45 H18A       -2.0580   -4.0450   -0.3420 h1        1 451      0.063200
     46 H20        -0.2810   -2.9240   -1.4040 h1        1 451      0.061700
     47 H20A       -0.9850   -1.3780   -0.7090 h1        1 451      0.061700
     48 H21         1.6060   -2.0920    0.6190 h1        1 451      0.061700
     49 H21A        1.8090   -1.9490   -1.2060 h1        1 451      0.061700
     50 H23        -4.6200    2.0330   -1.0020 ha        1 451      0.143000
     51 H24        -7.0690    1.6320   -0.9220 ha        1 451      0.134000
     52 H25        -7.9630   -0.6640   -0.5400 ha        1 451      0.135000
     53 H26        -6.3870   -2.5830   -0.2100 ha        1 451      0.147000
     54 HN27        6.6800    0.7800   -0.0320 hn        1 451      0.316500
     55 H30         8.3470   -1.1340   -0.6000 hc        1 451      0.070033
     56 H30A        8.1840   -0.9620    1.2050 hc        1 451      0.070033
     57 H30B        7.9410   -2.5830    0.4200 hc        1 451      0.070033
@<TRIPOS>BOND
     1    1    2 ar  
     2    1    6 ar  
     3    1   31 1   
     4    2    3 ar  
     5    2   27 1   
     6    3    4 ar  
     7    3   32 1   
     8    4    5 ar  
     9    4   22 1   
    10    5    6 ar  
    11    5    7 1   
    12    6   33 1   
    13    7    8 1   
    14    8    9 1   
    15    8   34 1   
    16    8   35 1   
    17    9   10 1   
    18    9   36 1   
    19    9   37 1   
    20   10   11 1   
    21   11   12 1   
    22   11   38 1   
    23   11   39 1   
    24   12   13 1   
    25   12   40 1   
    26   12   41 1   
    27   13   14 1   
    28   14   15 ar  
    29   14   23 ar  
    30   15   16 1   
    31   15   26 ar  
    32   16   17 1   
    33   17   18 1   
    34   17   42 1   
    35   17   43 1   
    36   18   19 1   
    37   18   44 1   
    38   18   45 1   
    39   19   20 1   
    40   20   21 1   
    41   20   46 1   
    42   20   47 1   
    43   21   22 1   
    44   21   48 1   
    45   21   49 1   
    46   23   24 ar  
    47   23   50 1   
    48   24   25 ar  
    49   24   51 1   
    50   25   26 ar  
    51   25   52 1   
    52   26   53 1   
    53   27   28 1   
    54   27   54 1   
    55   28   29 2   
    56   28   30 1   
    57   30   55 1   
    58   30   56 1   
    59   30   57 1   
@<TRIPOS>SUBSTRUCTURE
     1 451         1 TEMP              0 ****  ****    0 ROOT
