@<TRIPOS>MOLECULE
452
   38    39     1     0     0
SMALL
bcc


@<TRIPOS>ATOM
      1 C1         -0.0800    0.7130   -0.4130 c3        1 452     -0.197100
      2 C2          1.2160   -0.0060   -0.1850 c         1 452      0.587700
      3 O1          1.4750   -0.5000    0.9210 o         1 452     -0.540100
      4 C3          2.1270   -0.0910   -1.3420 ca        1 452     -0.253600
      5 C4          1.5630   -0.2180   -2.6130 ca        1 452     -0.076000
      6 C5          2.3520   -0.3240   -3.7620 ca        1 452      0.032900
      7 C6          3.7600   -0.2920   -3.6270 ca        1 452      0.061400
      8 C7          4.3400   -0.1600   -2.3780 ca        1 452     -0.212000
      9 C8          3.5480   -0.0530   -1.1950 ca        1 452      0.265600
     10 N1          4.1330    0.1420    0.0280 nu        1 452     -0.746600
     11 C9          5.5600    0.1390    0.1950 c3        1 452      0.123800
     12 C10         5.9870    0.3170    1.6730 c         1 452      0.649100
     13 O2          5.1410    0.2310    2.5890 o         1 452     -0.636100
     14 N2          7.3220    0.5670    1.8330 ns        1 452     -0.449100
     15 C11         8.0400    0.6770    3.0380 ca        1 452      0.076600
     16 C12         7.3870    0.8350    4.2810 ca        1 452     -0.183000
     17 C13         8.1240    0.9700    5.4530 ca        1 452     -0.131000
     18 C14         9.5150    0.9500    5.4180 ca        1 452     -0.181000
     19 C15        10.1660    0.7890    4.1970 ca        1 452     -0.089000
     20 C16         9.4620    0.6500    2.9980 ca        1 452     -0.162600
     21 C17        10.2960    0.4750    1.7360 c         1 452      0.913200
     22 O3         11.5290    0.2490    1.8800 o         1 452     -0.829300
     23 O4          9.7520    0.5660    0.5910 o         1 452     -0.829300
     24 Cl1         4.7680   -0.4200   -4.9900 cl        1 452     -0.074400
     25 F1          1.7550   -0.4550   -4.9730 f         1 452     -0.140900
     26 H11        -0.4980    1.0660    0.5610 hc        1 452      0.061367
     27 H12A        0.0690    1.5900   -1.0870 hc        1 452      0.061367
     28 H13A       -0.8160    0.0150   -0.8820 hc        1 452      0.061367
     29 H4          0.4670   -0.2480   -2.7270 ha        1 452      0.142000
     30 H7          5.4410   -0.1410   -2.3030 ha        1 452      0.165000
     31 HN1         3.5830    0.0470    0.8610 hn        1 452      0.481800
     32 H91         6.0000    0.9770   -0.4220 h1        1 452      0.069700
     33 H92         6.0010   -0.8360   -0.1680 h1        1 452      0.069700
     34 HN2         7.9100    0.5750    1.0020 hn        1 452      0.383500
     35 H12         6.2870    0.8490    4.3350 ha        1 452      0.152000
     36 H13         7.5960    1.0930    6.4090 ha        1 452      0.109000
     37 H14        10.0950    1.0560    6.3430 ha        1 452      0.110000
     38 H15        11.2690    0.7560    4.1460 ha        1 452      0.158000
@<TRIPOS>BOND
     1    1    2 1   
     2    1   26 1   
     3    1   27 1   
     4    1   28 1   
     5    2    3 2   
     6    2    4 1   
     7    4    5 ar  
     8    4    9 ar  
     9    5    6 ar  
    10    5   29 1   
    11    6    7 ar  
    12    6   25 1   
    13    7    8 ar  
    14    7   24 1   
    15    8    9 ar  
    16    8   30 1   
    17    9   10 1   
    18   10   11 1   
    19   10   31 1   
    20   11   12 1   
    21   11   32 1   
    22   11   33 1   
    23   12   13 2   
    24   12   14 1   
    25   14   15 1   
    26   14   34 1   
    27   15   16 ar  
    28   15   20 ar  
    29   16   17 ar  
    30   16   35 1   
    31   17   18 ar  
    32   17   36 1   
    33   18   19 ar  
    34   18   37 1   
    35   19   20 ar  
    36   19   38 1   
    37   20   21 1   
    38   21   22 1   
    39   21   23 1   
@<TRIPOS>SUBSTRUCTURE
     1 452         1 TEMP              0 ****  ****    0 ROOT
