@<TRIPOS>MOLECULE
452
   40    41     1     0     0
SMALL
bcc


@<TRIPOS>ATOM
      1 C1         -0.1230    0.4780   -0.2280 c3        1 452     -0.201100
      2 C2          1.2430   -0.1130   -0.1900 c         1 452      0.584700
      3 O1          1.6670   -0.7320    0.7970 o         1 452     -0.542100
      4 C3          2.1050    0.0540   -1.3980 ca        1 452     -0.121600
      5 C4          1.4950    0.3270   -2.6200 ca        1 452     -0.113000
      6 C5          2.2450    0.4620   -3.8060 ca        1 452      0.188900
      7 C6          3.6510    0.3140   -3.7620 ca        1 452      0.001400
      8 C7          4.2710    0.0400   -2.5390 ca        1 452     -0.098000
      9 C8          3.5150   -0.0850   -1.3640 ca        1 452     -0.012400
     10 N1          4.1930   -0.3950   -0.1020 n4        1 452     -0.625400
     11 C9          5.5730    0.1570    0.0010 c3        1 452      0.009800
     12 C10         5.9800    0.3480    1.4860 c         1 452      0.652100
     13 O2          5.0900    0.3230    2.3580 o         1 452     -0.583100
     14 N2          7.3130    0.5650    1.6910 n         1 452     -0.440100
     15 C11         7.9380    0.7330    2.9470 ca        1 452      0.092600
     16 C12         7.2360    1.2480    4.0570 ca        1 452     -0.144000
     17 C13         7.8950    1.4720    5.2620 ca        1 452     -0.069000
     18 C14         9.2560    1.1960    5.3880 ca        1 452     -0.128000
     19 C15         9.9550    0.6670    4.3080 ca        1 452     -0.081000
     20 C16         9.3140    0.4060    3.0910 ca        1 452     -0.203600
     21 C17        10.0860   -0.1850    1.9800 c         1 452      0.655700
     22 O3         11.1200   -1.0320    2.2320 oh        1 452     -0.551100
     23 O4          9.8940   -0.0120    0.7690 o         1 452     -0.534000
     24 CL1         4.6020    0.4540   -5.1450 cl        1 452      0.020600
     25 F1          1.6040    0.7260   -4.9590 f         1 452     -0.078900
     26 H11        -0.7960   -0.1700   -0.8460 hc        1 452      0.091700
     27 H12A       -0.5460    0.5280    0.8090 hc        1 452      0.091700
     28 H13A       -0.1030    1.5060   -0.6630 hc        1 452      0.091700
     29 H4          0.3970    0.4380   -2.6870 ha        1 452      0.190000
     30 H7          5.3690   -0.0840   -2.5320 ha        1 452      0.173000
     31 HN1         3.6310   -0.0260    0.7010 hn        1 452      0.487300
     32 H91         5.6040    1.1670   -0.5020 hx        1 452      0.127700
     33 H92         6.2840   -0.5440   -0.5220 hx        1 452      0.127700
     34 HN2        11.2120   -1.1960    3.1820 ho        1 452      0.440000
     35 H12         6.1600    1.4780    3.9800 ha        1 452      0.172000
     36 H13         7.3330    1.8780    6.1190 ha        1 452      0.160000
     37 H14         9.7780    1.3960    6.3380 ha        1 452      0.161000
     38 H15        11.0350    0.4670    4.4110 ha        1 452      0.151000
     39 H121        4.2150   -1.4190    0.0100 hn        1 452      0.487300
     40 H22         7.9290    0.5500    0.8970 hn        1 452      0.366500
@<TRIPOS>BOND
     1    1    2 1   
     2    1   26 1   
     3    1   27 1   
     4    1   28 1   
     5    2    3 2   
     6    2    4 1   
     7    4    5 ar  
     8    4    9 ar  
     9    5    6 ar  
    10    5   29 1   
    11    6    7 ar  
    12    6   25 1   
    13    7    8 ar  
    14    7   24 1   
    15    8    9 ar  
    16    8   30 1   
    17    9   10 1   
    18   10   11 1   
    19   10   31 1   
    20   10   39 1   
    21   11   12 1   
    22   11   32 1   
    23   11   33 1   
    24   12   13 2   
    25   12   14 1   
    26   14   15 1   
    27   14   40 1   
    28   15   16 ar  
    29   15   20 ar  
    30   16   17 ar  
    31   16   35 1   
    32   17   18 ar  
    33   17   36 1   
    34   18   19 ar  
    35   18   37 1   
    36   19   20 ar  
    37   19   38 1   
    38   20   21 1   
    39   21   22 1   
    40   21   23 2   
    41   22   34 1   
@<TRIPOS>SUBSTRUCTURE
     1 452         1 TEMP              0 ****  ****    0 ROOT
