@<TRIPOS>MOLECULE
452
   38    35     1     0     0
SMALL
bcc


@<TRIPOS>ATOM
      1 C1         -2.7880   -3.0730   -1.4690 c3        1 452     -0.290000
      2 C2         -3.1930   -1.6320   -1.1440 c2        1 452      0.289000
      3 O1         -3.7400   -1.3720   -0.0680 o         1 452     -0.300000
      4 C3         -2.9550   -0.5190   -2.1700 c2        1 452     -0.172000
      5 C4         -3.7330   -0.4560   -3.3180 c2        1 452     -0.093000
      6 C5         -3.4870    0.5280   -4.2710 c1        1 452      0.012000
      7 C6         -2.4630    1.4470   -4.0730 c2        1 452     -0.040000
      8 C7         -1.6830    1.3830   -2.9210 c1        1 452     -0.212000
      9 C8         -1.9270    0.4040   -1.9720 c1        1 452      0.152000
     10 N1         -1.1790    0.3900   -0.7540 n3        1 452     -0.298000
     11 C9          0.2340    0.6790   -0.7750 c3        1 452     -0.063000
     12 C10         0.8110    0.5100    0.6250 c2        1 452      0.290000
     13 O2          0.1410    0.0280    1.4980 o         1 452     -0.362000
     14 N2          2.1320    0.9690    0.9100 n         1 452     -0.291000
     15 C11         2.6630    0.8540    2.2410 c2        1 452      0.059000
     16 C12         2.6450    1.9500    3.0920 c2        1 452     -0.151000
     17 C13         3.1130    1.8280    4.3830 c1        1 452     -0.135000
     18 C14         3.6030    0.6090    4.8320 c1        1 452     -0.129500
     19 C15         3.6220   -0.4830    3.9870 c1        1 452     -0.129500
     20 C16         3.1510   -0.3610    2.6880 c1        1 452     -0.136000
     21 C17         3.1860   -1.5530    1.7550 c2        1 452      0.367000
     22 O3          2.2840   -2.4290    1.8200 o         1 452     -0.579000
     23 O4          4.1470   -1.6960    0.9520 o         1 452     -0.579000
     24 CL1        -2.1890    2.7220   -5.2490 cl        1 452     -0.025000
     25 F1         -4.2830    0.6260   -5.3640 f         1 452     -0.111000
     26 H11        -3.3900   -3.4340   -2.1530 hc        1 452      0.125333
     27 H12A       -1.8650   -3.0860   -1.8050 hc        1 452      0.125333
     28 H13A       -2.8480   -3.6160   -0.6640 hc        1 452      0.125333
     29 H4         -4.4560   -1.1060   -3.4570 ha        1 452      0.146000
     30 H7         -0.9660    2.0270   -2.7820 ha        1 452      0.147000
     31 HN1        -1.5980    0.2170    0.0360 hn        1 452      0.281000
     32 H91         0.3760    1.6050   -1.0780 h1        1 452      0.096500
     33 H92         0.6850    0.0600   -1.3910 h1        1 452      0.096500
     34 HN2         2.6200    1.3840    0.2580 hn        1 452      0.259000
     35 H12         2.3000    2.8100    2.7750 ha        1 452      0.143000
     36 H13         3.1980    2.6350    4.9550 ha        1 452      0.111000
     37 H14         3.9310    0.5250    5.7380 ha        1 452      0.133500
     38 H15         3.8990   -1.3740    4.3340 ha        1 452      0.133500
@<TRIPOS>BOND
     1    1    2 1   
     2    1   26 1   
     3    1   27 1   
     4    1   28 1   
     5    2    3 1   
     6    2    4 1   
     7    4    5 1   
     8    4    9 1   
     9    5    6 1   
    10    5   29 1   
    11    6    7 1   
    12    7    8 1   
    13    7   24 1   
    14    8   30 1   
    15    9   10 1   
    16   10   11 1   
    17   10   31 1   
    18   11   12 1   
    19   11   32 1   
    20   11   33 1   
    21   12   13 1   
    22   12   14 1   
    23   14   15 1   
    24   14   34 1   
    25   15   16 1   
    26   15   20 1   
    27   16   17 1   
    28   16   35 1   
    29   17   36 1   
    30   18   19 1   
    31   18   37 1   
    32   19   38 1   
    33   20   21 1   
    34   21   22 1   
    35   21   23 1   
@<TRIPOS>SUBSTRUCTURE
     1 452         1 TEMP              0 ****  ****    0 ROOT
