@<TRIPOS>MOLECULE
452
   38    39     1     0     0
SMALL
bcc


@<TRIPOS>ATOM
      1 C1         -0.0840    0.6720   -0.4050 c3        1 452     -0.197100
      2 C2          1.2190   -0.0380   -0.1850 c         1 452      0.587700
      3 O1          1.4830   -0.5410    0.9150 o         1 452     -0.540100
      4 C3          2.1300   -0.1010   -1.3440 ca        1 452     -0.253600
      5 C4          1.5660   -0.2200   -2.6150 ca        1 452     -0.076000
      6 C5          2.3550   -0.3050   -3.7660 ca        1 452      0.032900
      7 C6          3.7630   -0.2620   -3.6330 ca        1 452      0.061400
      8 C7          4.3430   -0.1370   -2.3820 ca        1 452     -0.212000
      9 C8          3.5500   -0.0510   -1.1970 ca        1 452      0.264600
     10 N1          4.1350    0.1360    0.0270 nh        1 452     -0.746600
     11 C9          5.5620    0.1460    0.1930 c3        1 452      0.123800
     12 C10         5.9880    0.3130    1.6720 c         1 452      0.649100
     13 O2          5.1440    0.2060    2.5880 o         1 452     -0.636100
     14 N2          7.3210    0.5770    1.8340 n         1 452     -0.449100
     15 C11         8.0380    0.6800    3.0400 ca        1 452      0.076600
     16 C12         7.3850    0.8180    4.2840 ca        1 452     -0.183000
     17 C13         8.1210    0.9470    5.4570 ca        1 452     -0.131000
     18 C14         9.5120    0.9410    5.4210 ca        1 452     -0.181000
     19 C15        10.1640    0.8000    4.1980 ca        1 452     -0.089000
     20 C16         9.4600    0.6680    2.9980 ca        1 452     -0.162600
     21 C17        10.2950    0.5140    1.7340 c         1 452      0.913200
     22 O3         11.5300    0.2980    1.8740 o         1 452     -0.829300
     23 O4          9.7490    0.6130    0.5900 o         1 452     -0.829300
     24 CL1         4.7710   -0.3650   -4.9970 cl        1 452     -0.074400
     25 F1          1.7580   -0.4290   -4.9790 f         1 452     -0.140900
     26 H11         0.0570    1.5580   -1.0690 hc        1 452      0.061367
     27 H12A       -0.8140   -0.0280   -0.8800 hc        1 452      0.061367
     28 H13A       -0.5050    1.0100    0.5740 hc        1 452      0.061367
     29 H4          0.4700   -0.2590   -2.7290 ha        1 452      0.142000
     30 H7          5.4430   -0.1100   -2.3080 ha        1 452      0.165000
     31 HN1         3.5870    0.0260    0.8590 hn        1 452      0.481800
     32 H91         5.9920    0.9940   -0.4160 h1        1 452      0.069700
     33 H92         6.0120   -0.8210   -0.1800 h1        1 452      0.069700
     34 HN2         7.9080    0.6000    1.0030 hn        1 452      0.383500
     35 H12         6.2850    0.8210    4.3390 ha        1 452      0.152000
     36 H13         7.5930    1.0540    6.4150 ha        1 452      0.109000
     37 H14        10.0920    1.0430    6.3480 ha        1 452      0.110000
     38 H15        11.2670    0.7790    4.1460 ha        1 452      0.158000
@<TRIPOS>BOND
     1    1    2 1   
     2    1   26 1   
     3    1   27 1   
     4    1   28 1   
     5    2    3 2   
     6    2    4 1   
     7    4    5 ar  
     8    4    9 ar  
     9    5    6 ar  
    10    5   29 1   
    11    6    7 ar  
    12    6   25 1   
    13    7    8 ar  
    14    7   24 1   
    15    8    9 ar  
    16    8   30 1   
    17    9   10 1   
    18   10   11 1   
    19   10   31 1   
    20   11   12 1   
    21   11   32 1   
    22   11   33 1   
    23   12   13 2   
    24   12   14 1   
    25   14   15 1   
    26   14   34 1   
    27   15   16 ar  
    28   15   20 ar  
    29   16   17 ar  
    30   16   35 1   
    31   17   18 ar  
    32   17   36 1   
    33   18   19 ar  
    34   18   37 1   
    35   19   20 ar  
    36   19   38 1   
    37   20   21 1   
    38   21   22 1   
    39   21   23 1   
@<TRIPOS>SUBSTRUCTURE
     1 452         1 TEMP              0 ****  ****    0 ROOT
