@<TRIPOS>MOLECULE
452
   38    39     1     0     0
SMALL
bcc


@<TRIPOS>ATOM
      1 C1          4.3160   -3.6020   -0.3220 c3        1 452     -0.197100
      2 C2          3.2630   -2.7850    0.3660 c         1 452      0.587700
      3 O1          2.3300   -3.3370    0.9650 o         1 452     -0.540100
      4 C3          3.4210   -1.3200    0.2890 ca        1 452     -0.253600
      5 C4          4.7150   -0.7980    0.3010 ca        1 452     -0.076000
      6 C5          4.9560    0.5780    0.2510 ca        1 452      0.032900
      7 C6          3.8530    1.4600    0.1780 ca        1 452      0.061400
      8 C7          2.5610    0.9650    0.1570 ca        1 452     -0.212000
      9 C8          2.2990   -0.4380    0.2110 ca        1 452      0.264600
     10 N1          1.0190   -0.9180    0.1250 nh        1 452     -0.746600
     11 C9         -0.1180   -0.0420    0.0880 c3        1 452      0.123800
     12 C10        -1.4620   -0.8110    0.0530 c         1 452      0.649100
     13 O2         -1.4900   -2.0420    0.2740 o         1 452     -0.636100
     14 N2         -2.5410   -0.0210   -0.2340 n         1 452     -0.449100
     15 C11        -3.9000   -0.3880   -0.2420 ca        1 452      0.076600
     16 C12        -4.3050   -1.7400   -0.2370 ca        1 452     -0.183000
     17 C13        -5.6550   -2.0720   -0.2750 ca        1 452     -0.131000
     18 C14        -6.6260   -1.0760   -0.3180 ca        1 452     -0.181000
     19 C15        -6.2340    0.2610   -0.3190 ca        1 452     -0.089000
     20 C16        -4.8880    0.6350   -0.2810 ca        1 452     -0.162600
     21 C17        -4.5990    2.1300   -0.2800 c         1 452      0.913200
     22 O3         -5.5710    2.9110   -0.0920 o         1 452     -0.829300
     23 O4         -3.4150    2.5540   -0.4710 o         1 452     -0.829300
     24 CL1         4.0860    3.1430    0.1180 cl        1 452     -0.074400
     25 F1          6.2330    1.0350    0.2750 f         1 452     -0.140900
     26 H11         5.2020   -3.7090    0.3510 hc        1 452      0.061367
     27 H12A        3.9210   -4.6210   -0.5510 hc        1 452      0.061367
     28 H13A        4.6380   -3.1110   -1.2710 hc        1 452      0.061367
     29 H4          5.5810   -1.4780    0.3620 ha        1 452      0.142000
     30 H7          1.7200    1.6760    0.1030 ha        1 452      0.165000
     31 HN1         0.8370   -1.8820    0.3310 hn        1 452      0.481800
     32 H91        -0.1360    0.6250    1.0000 h1        1 452      0.069700
     33 H92        -0.0430    0.6150   -0.8280 h1        1 452      0.069700
     34 HN2        -2.3840    0.9770   -0.3560 hn        1 452      0.383500
     35 H12        -3.5560   -2.5470   -0.1980 ha        1 452      0.153000
     36 H13        -5.9500   -3.1320   -0.2700 ha        1 452      0.109000
     37 H14        -7.6910   -1.3390   -0.3480 ha        1 452      0.110000
     38 H15        -6.9870    1.0680   -0.3390 ha        1 452      0.158000
@<TRIPOS>BOND
     1    1    2 1   
     2    1   26 1   
     3    1   27 1   
     4    1   28 1   
     5    2    3 2   
     6    2    4 1   
     7    4    5 ar  
     8    4    9 ar  
     9    5    6 ar  
    10    5   29 1   
    11    6    7 ar  
    12    6   25 1   
    13    7    8 ar  
    14    7   24 1   
    15    8    9 ar  
    16    8   30 1   
    17    9   10 1   
    18   10   11 1   
    19   10   31 1   
    20   11   12 1   
    21   11   32 1   
    22   11   33 1   
    23   12   13 2   
    24   12   14 1   
    25   14   15 1   
    26   14   34 1   
    27   15   16 ar  
    28   15   20 ar  
    29   16   17 ar  
    30   16   35 1   
    31   17   18 ar  
    32   17   36 1   
    33   18   19 ar  
    34   18   37 1   
    35   19   20 ar  
    36   19   38 1   
    37   20   21 1   
    38   21   22 1   
    39   21   23 1   
@<TRIPOS>SUBSTRUCTURE
     1 452         1 TEMP              0 ****  ****    0 ROOT
