@<TRIPOS>MOLECULE
453
   60    64     1     0     0
SMALL
bcc


@<TRIPOS>ATOM
      1 OBC         0.6250    1.3410    0.2660 o         1 453     -0.413100
      2 CBB         1.6430    0.8410   -0.1900 c         1 453      0.578700
      3 NBD         2.5710    0.1550    0.8000 n4        1 453     -0.671800
      4 CBE         1.8280   -0.4630    1.9350 c3        1 453      0.070500
      5 CBF         2.6950   -0.8510    3.1070 ca        1 453      0.342600
      6 CBK         2.1840   -1.8140    3.9960 ca        1 453     -0.212300
      7 CBJ         2.9420   -2.1440    5.1260 ca        1 453     -0.078000
      8 CBI         4.1700   -1.5190    5.3250 ca        1 453     -0.213300
      9 CBH         4.6040   -0.5720    4.3730 ca        1 453      0.421200
     10 NBG         3.8910   -0.2350    3.2880 nb        1 453     -0.698000
     11 CAY         2.0970    0.7870   -1.5790 ca        1 453     -0.249600
     12 CAZ         3.4650    0.8080   -1.8790 ca        1 453     -0.047000
     13 CAX         1.1610    0.6740   -2.6380 ca        1 453      0.222900
     14 FBA        -0.1620    0.6850   -2.3890 f         1 453     -0.098900
     15 CAW         1.6270    0.5170   -3.9590 ca        1 453     -0.175000
     16 CAV         2.9910    0.4350   -4.2170 ca        1 453     -0.019000
     17 CAU         3.9180    0.5600   -3.1730 ca        1 453     -0.124300
     18 CAN         5.4130    0.3630   -3.3390 c3        1 453      0.242200
     19 NAO         5.8860    0.8240   -4.6250 n         1 453     -0.569900
     20 CAP         6.9230    0.1870   -5.3030 c         1 453      0.809500
     21 OAT         7.4470    0.6850   -6.3180 o         1 453     -0.610500
     22 NAQ         7.3580   -1.0790   -4.8420 n         1 453     -0.476100
     23 CAR         6.7740   -1.7040   -3.7550 c2        1 453      0.154400
     24 CAS         7.2910   -3.0630   -3.3940 c3        1 453     -0.095900
     25 CAM         5.7810   -1.0770   -3.0460 ce        1 453     -0.348400
     26 CAK         5.0630   -1.7150   -1.9170 c         1 453      0.726300
     27 OAL         4.8970   -1.1470   -0.8090 o         1 453     -0.687100
     28 NAJ         4.5180   -2.9600   -2.1630 n         1 453     -0.466100
     29 CAG         3.8440   -3.7570   -1.2100 ca        1 453     -0.001400
     30 CAF         2.7330   -4.5150   -1.6210 ca        1 453     -0.090000
     31 CAH         4.3040   -3.8230    0.1350 ca        1 453     -0.118000
     32 CAI         3.6920   -4.6300    1.0790 ca        1 453     -0.126000
     33 CAE         2.5920   -5.3950    0.6730 ca        1 453     -0.068200
     34 CAD         2.1100   -5.3320   -0.6890 ca        1 453     -0.200900
     35 NAA         1.7130   -6.2540    1.3600 na        1 453     -0.013100
     36 NAB         0.8060   -6.7840    0.5220 nc        1 453     -0.487100
     37 CAC         0.9700   -6.2450   -0.6980 cd        1 453      0.352800
     38 H1          3.2230    0.8650    1.1620 hn        1 453      0.484800
     39 H2          1.0540    0.2810    2.2970 hx        1 453      0.118200
     40 H3          1.2950   -1.3750    1.5400 hx        1 453      0.118200
     41 H4          1.2100   -2.2900    3.8140 ha        1 453      0.158000
     42 H5          2.5640   -2.8870    5.8460 ha        1 453      0.163000
     43 H6          4.7940   -1.7480    6.2010 ha        1 453      0.168000
     44 H7          5.5740   -0.0510    4.4900 h4        1 453      0.044100
     45 H8          4.2140    0.9920   -1.0870 ha        1 453      0.164000
     46 H9          0.8930    0.4450   -4.7790 ha        1 453      0.182000
     47 H10         3.3350    0.2660   -5.2530 ha        1 453      0.176000
     48 H11         5.9190    0.9900   -2.5290 h1        1 453      0.060700
     49 H12         5.7070    1.7710   -4.8720 hn        1 453      0.348500
     50 H13         8.1120   -1.5080   -5.3350 hn        1 453      0.362500
     51 H14         8.3710   -3.1830   -3.6690 hc        1 453      0.075700
     52 H15         6.7080   -3.8480   -3.9380 hc        1 453      0.075700
     53 H16         7.2030   -3.2330   -2.2930 hc        1 453      0.075700
     54 H17         4.6000   -3.3440   -3.0780 hn        1 453      0.330500
     55 H18         2.3630   -4.4820   -2.6570 ha        1 453      0.148000
     56 H19         5.1750   -3.2140    0.4340 ha        1 453      0.156000
     57 H20         4.0720   -4.6780    2.1090 ha        1 453      0.149000
     58 H21         1.9320   -6.7390    2.2020 hn        1 453      0.325700
     59 H22         0.3220   -6.4870   -1.5420 h4        1 453      0.066800
     60 HBD2        3.1400   -0.5630    0.3160 hn        1 453      0.484800
@<TRIPOS>BOND
     1    1    2 2   
     2    2    3 1   
     3    2   11 1   
     4    3    4 1   
     5    3   38 1   
     6    3   60 1   
     7    4    5 1   
     8    4   39 1   
     9    4   40 1   
    10    5    6 ar  
    11    5   10 ar  
    12    6    7 ar  
    13    6   41 1   
    14    7    8 ar  
    15    7   42 1   
    16    8    9 ar  
    17    8   43 1   
    18    9   10 ar  
    19    9   44 1   
    20   11   12 ar  
    21   11   13 ar  
    22   12   17 ar  
    23   12   45 1   
    24   13   14 1   
    25   13   15 ar  
    26   15   16 ar  
    27   15   46 1   
    28   16   17 ar  
    29   16   47 1   
    30   17   18 1   
    31   18   19 1   
    32   18   25 1   
    33   18   48 1   
    34   19   20 1   
    35   19   49 1   
    36   20   21 2   
    37   20   22 1   
    38   22   23 1   
    39   22   50 1   
    40   23   24 1   
    41   23   25 2   
    42   24   51 1   
    43   24   52 1   
    44   24   53 1   
    45   25   26 1   
    46   26   27 2   
    47   26   28 1   
    48   28   29 1   
    49   28   54 1   
    50   29   30 ar  
    51   29   31 ar  
    52   30   34 ar  
    53   30   55 1   
    54   31   32 ar  
    55   31   56 1   
    56   32   33 ar  
    57   32   57 1   
    58   33   34 ar  
    59   33   35 1   
    60   34   37 1   
    61   35   36 1   
    62   35   58 1   
    63   36   37 2   
    64   37   59 1   
@<TRIPOS>SUBSTRUCTURE
     1 453         1 TEMP              0 ****  ****    0 ROOT
