@<TRIPOS>MOLECULE
454
   41    44     1     0     0
SMALL
bcc


@<TRIPOS>ATOM
      1 C1         -0.1260   -0.0530   -0.0530 ca        1 454     -0.099000
      2 N1          0.3410    0.3740    5.4780 n2        1 454     -0.522900
      3 C2          0.9920   -0.8690    0.1210 ca        1 454     -0.128500
      4 N2          2.0310    2.0690    4.9820 nh        1 454     -0.717600
      5 C3          1.7040   -0.8340    1.3190 ca        1 454     -0.099000
      6 N3          3.3170    0.8890    3.4080 n2        1 454     -0.514900
      7 C4          1.2940    0.0180    2.3540 ca        1 454     -0.113800
      8 N4          4.2240    3.0280    4.1830 n4        1 454     -0.779600
      9 C5          0.1830    0.8460    2.1720 ca        1 454     -0.099000
     10 C6         -0.5280    0.8030    0.9730 ca        1 454     -0.128500
     11 C7          2.0990    0.0360    3.6320 c3        1 454      0.235500
     12 C8          1.3420    0.7900    4.7880 c2        1 454      0.536200
     13 C9         -0.0790    1.1740    6.6050 c3        1 454      0.092800
     14 C10         1.0460    1.9610    7.2810 c3        1 454     -0.116400
     15 C11         1.9770    2.6780    6.2930 c3        1 454      0.181800
     16 C12         3.2240    1.9360    4.2020 c2        1 454      0.594100
     17 C13         2.4290   -1.3610    4.1010 ca        1 454     -0.113800
     18 C14         3.7280   -1.7740    4.4140 ca        1 454     -0.099000
     19 C15         3.9610   -3.0770    4.8550 ca        1 454     -0.128500
     20 C16         2.9040   -3.9750    4.9880 ca        1 454     -0.099000
     21 C17         1.6070   -3.5690    4.6730 ca        1 454     -0.128500
     22 C18         1.3680   -2.2710    4.2280 ca        1 454     -0.099000
     23 H1         -0.6910   -0.0850   -0.9970 ha        1 454      0.149000
     24 H2          1.3130   -1.5450   -0.6860 ha        1 454      0.147750
     25 H3          2.5820   -1.4830    1.4590 ha        1 454      0.142000
     26 HN4         5.0230    2.7600    3.5910 hn        1 454      0.480800
     27 HN4A        3.7820    3.8740    3.7980 hn        1 454      0.480800
     28 H5         -0.1510    1.5290    2.9670 ha        1 454      0.142000
     29 H6         -1.4120    1.4460    0.8390 ha        1 454      0.147750
     30 H9         -0.5310    0.4570    7.3500 h1        1 454      0.094200
     31 H9A        -0.8930    1.8780    6.2690 h1        1 454      0.094200
     32 H10         0.5980    2.7310    7.9620 hc        1 454      0.078700
     33 H10A        1.6540    1.2610    7.9120 hc        1 454      0.078700
     34 H11         3.0010    2.7410    6.7610 h1        1 454      0.050200
     35 H11A        1.6000    3.7310    6.1330 h1        1 454      0.050200
     36 H14         4.5900   -1.1000    4.3070 ha        1 454      0.142000
     37 H15         4.9870   -3.3950    5.0940 ha        1 454      0.147750
     38 H16         3.0920   -5.0030    5.3370 ha        1 454      0.149000
     39 H17         0.7670   -4.2750    4.7710 ha        1 454      0.147750
     40 H18         0.3420   -1.9590    3.9730 ha        1 454      0.142000
     41 H43         4.5480    3.2110    5.1400 hn        1 454      0.480800
@<TRIPOS>BOND
     1    1    3 ar  
     2    1   10 ar  
     3    1   23 1   
     4    2   12 2   
     5    2   13 1   
     6    3    5 ar  
     7    3   24 1   
     8    4   12 1   
     9    4   15 1   
    10    4   16 1   
    11    5    7 ar  
    12    5   25 1   
    13    6   11 1   
    14    6   16 2   
    15    7    9 ar  
    16    7   11 1   
    17    8   16 1   
    18    8   26 1   
    19    8   27 1   
    20    8   41 1   
    21    9   10 ar  
    22    9   28 1   
    23   10   29 1   
    24   11   12 1   
    25   11   17 1   
    26   13   14 1   
    27   13   30 1   
    28   13   31 1   
    29   14   15 1   
    30   14   32 1   
    31   14   33 1   
    32   15   34 1   
    33   15   35 1   
    34   17   18 ar  
    35   17   22 ar  
    36   18   19 ar  
    37   18   36 1   
    38   19   20 ar  
    39   19   37 1   
    40   20   21 ar  
    41   20   38 1   
    42   21   22 ar  
    43   21   39 1   
    44   22   40 1   
@<TRIPOS>SUBSTRUCTURE
     1 454         1 TEMP              0 ****  ****    0 ROOT
