@<TRIPOS>MOLECULE
454
   40    36     1     0     0
SMALL
bcc


@<TRIPOS>ATOM
      1 C1         -2.0420   -0.1780   -4.0470 c1        1 454     -0.129000
      2 N1         -0.8420    0.3690    2.1400 n1        1 454     -0.182000
      3 C2         -0.6800   -0.4310   -4.0220 c1        1 454     -0.129000
      4 N2          0.6240    2.0110    0.8800 n3        1 454     -0.283000
      5 C3          0.0130   -0.3840   -2.8200 c1        1 454     -0.097000
      6 N3          1.3730    0.6280   -0.7380 n1        1 454     -0.246000
      7 C4         -0.6600   -0.0820   -1.6410 c1        1 454     -0.060000
      8 N4          2.4250    2.7060   -0.6360 n3        1 454     -0.304000
      9 C5         -2.0230    0.1710   -1.6660 c1        1 454     -0.129000
     10 C6         -2.7160    0.1250   -2.8650 c1        1 454     -0.129000
     11 C7          0.2340   -0.0100   -0.4160 c2        1 454      0.149000
     12 C8         -0.3440    0.9810    0.7660 c2        1 454      0.045000
     13 C9         -0.7900    1.2520    3.2530 c2        1 454     -0.100000
     14 C10         0.4740    2.3150    3.1160 c3        1 454     -0.198000
     15 C11         0.5410    2.8880    2.0820 c3        1 454     -0.034000
     16 C12         1.5990    1.6860   -0.0810 c2        1 454      0.157000
     17 C13         0.3340   -1.4990    0.0730 c2        1 454     -0.074000
     18 C14         1.5720   -2.1630    0.0520 c2        1 454     -0.104000
     19 C15         1.6550   -3.4940    0.4580 c1        1 454     -0.145000
     20 C16         0.5170   -4.1590    0.8820 c1        1 454     -0.129000
     21 C17        -0.7170   -3.4960    0.9030 c1        1 454     -0.129000
     22 C18        -0.8010   -2.1670    0.4970 c1        1 454     -0.094000
     23 H1         -2.5380   -0.2120   -4.9040 ha        1 454      0.131167
     24 H2         -0.2010   -0.6470   -4.8630 ha        1 454      0.131167
     25 H3          0.9870   -0.5650   -2.8020 ha        1 454      0.146000
     26 HN4         2.1210    3.2100   -1.3630 hn        1 454      0.202500
     27 HN4A        3.2740    2.8470   -0.2980 hn        1 454      0.202500
     28 H5         -2.5000    0.3840   -0.8290 ha        1 454      0.131167
     29 H6         -3.6900    0.3070   -2.8820 ha        1 454      0.131167
     30 H9         -1.6460    1.6290    3.5110 ha        1 454      0.103500
     31 H9A        -0.6070    0.7220    4.0230 ha        1 454      0.103500
     32 H10         1.3180    1.8010    3.2350 hc        1 454      0.097500
     33 H10A        0.3700    2.9990    3.8340 hc        1 454      0.097500
     34 H11        -0.2690    3.4460    1.9930 h1        1 454      0.090000
     35 H11A        1.3390    3.4380    2.1000 h1        1 454      0.090000
     36 H14         2.3670   -1.6960   -0.2450 ha        1 454      0.146000
     37 H15         2.5510   -3.9760    0.4430 ha        1 454      0.129000
     38 H16         0.5750   -5.0950    1.1670 ha        1 454      0.131167
     39 H17        -1.5160   -3.9650    1.2010 ha        1 454      0.131167
     40 H18        -1.6800   -1.6970    0.5110 ha        1 454      0.151000
@<TRIPOS>BOND
     1    1    3 1   
     2    1   23 1   
     3    2   12 1   
     4    3   24 1   
     5    4   12 1   
     6    4   15 1   
     7    4   16 1   
     8    5    7 1   
     9    5   25 1   
    10    6   16 1   
    11    7   11 1   
    12    8   16 1   
    13    8   26 1   
    14    8   27 1   
    15    9   10 1   
    16    9   28 1   
    17   10   29 1   
    18   11   12 1   
    19   11   17 1   
    20   13   14 1   
    21   13   30 1   
    22   13   31 1   
    23   14   15 1   
    24   14   32 1   
    25   14   33 1   
    26   15   34 1   
    27   15   35 1   
    28   17   18 1   
    29   17   22 1   
    30   18   19 1   
    31   18   36 1   
    32   19   37 1   
    33   20   21 1   
    34   20   38 1   
    35   21   39 1   
    36   22   40 1   
@<TRIPOS>SUBSTRUCTURE
     1 454         1 TEMP              0 ****  ****    0 ROOT
