@<TRIPOS>MOLECULE
454
   41    44     1     0     0
SMALL
bcc


@<TRIPOS>ATOM
      1 C1         -0.1070   -0.0530   -0.0620 ca        1 454     -0.099000
      2 N1          0.3340    0.3730    5.4710 n2        1 454     -0.522900
      3 C2          1.0110   -0.8680    0.1170 ca        1 454     -0.128500
      4 N2          2.0260    2.0690    4.9840 nh        1 454     -0.717600
      5 C3          1.7170   -0.8330    1.3180 ca        1 454     -0.099000
      6 N3          3.3200    0.8900    3.4160 n2        1 454     -0.514900
      7 C4          1.3020    0.0180    2.3510 ca        1 454     -0.113800
      8 N4          4.2220    3.0300    4.1960 nz        1 454     -0.779600
      9 C5          0.1910    0.8460    2.1650 ca        1 454     -0.099000
     10 C6         -0.5140    0.8020    0.9620 ca        1 454     -0.128500
     11 C7          2.1010    0.0370    3.6340 c3        1 454      0.235500
     12 C8          1.3380    0.7900    4.7860 c2        1 454      0.536200
     13 C9         -0.0910    1.1720    6.5960 c3        1 454      0.092800
     14 C10         1.0290    1.9600    7.2780 c3        1 454     -0.116400
     15 C11         1.9650    2.6770    6.2950 c3        1 454      0.181800
     16 C12         3.2220    1.9370    4.2090 c2        1 454      0.594100
     17 C13         2.4290   -1.3610    4.1040 ca        1 454     -0.113800
     18 C14         3.7280   -1.7730    4.4220 ca        1 454     -0.099000
     19 C15         3.9590   -3.0760    4.8640 ca        1 454     -0.128500
     20 C16         2.9020   -3.9750    4.9920 ca        1 454     -0.099000
     21 C17         1.6060   -3.5700    4.6710 ca        1 454     -0.128500
     22 C18         1.3690   -2.2710    4.2250 ca        1 454     -0.099000
     23 H1         -0.6680   -0.0850   -1.0090 ha        1 454      0.149000
     24 H2          1.3370   -1.5440   -0.6890 ha        1 454      0.147750
     25 H3          2.5950   -1.4820    1.4620 ha        1 454      0.142000
     26 HN4         4.5420    3.2120    5.1540 hn        1 454      0.480800
     27 HN4A        3.7810    3.8750    3.8090 hn        1 454      0.480800
     28 H5         -0.1470    1.5280    2.9590 ha        1 454      0.142000
     29 H6         -1.3970    1.4450    0.8250 ha        1 454      0.147750
     30 H9         -0.9040    1.8760    6.2560 h1        1 454      0.094200
     31 H9A        -0.5460    0.4550    7.3390 h1        1 454      0.094200
     32 H10         1.6350    1.2600    7.9120 hc        1 454      0.078700
     33 H10A        0.5780    2.7290    7.9570 hc        1 454      0.078700
     34 H11         2.9870    2.7400    6.7680 h1        1 454      0.050200
     35 H11A        1.5900    3.7310    6.1330 h1        1 454      0.050200
     36 H14         4.5900   -1.0980    4.3200 ha        1 454      0.142000
     37 H15         4.9850   -3.3940    5.1070 ha        1 454      0.147750
     38 H16         3.0890   -5.0020    5.3420 ha        1 454      0.149000
     39 H17         0.7670   -4.2760    4.7660 ha        1 454      0.147750
     40 H18         0.3440   -1.9600    3.9660 ha        1 454      0.142000
     41 H43         5.0230    2.7620    3.6060 hn        1 454      0.480800
@<TRIPOS>BOND
     1    1    3 ar  
     2    1   10 ar  
     3    1   23 1   
     4    2   12 2   
     5    2   13 1   
     6    3    5 ar  
     7    3   24 1   
     8    4   12 1   
     9    4   15 1   
    10    4   16 1   
    11    5    7 ar  
    12    5   25 1   
    13    6   11 1   
    14    6   16 2   
    15    7    9 ar  
    16    7   11 1   
    17    8   16 1   
    18    8   26 1   
    19    8   27 1   
    20    8   41 1   
    21    9   10 ar  
    22    9   28 1   
    23   10   29 1   
    24   11   12 1   
    25   11   17 1   
    26   13   14 1   
    27   13   30 1   
    28   13   31 1   
    29   14   15 1   
    30   14   32 1   
    31   14   33 1   
    32   15   34 1   
    33   15   35 1   
    34   17   18 ar  
    35   17   22 ar  
    36   18   19 ar  
    37   18   36 1   
    38   19   20 ar  
    39   19   37 1   
    40   20   21 ar  
    41   20   38 1   
    42   21   22 ar  
    43   21   39 1   
    44   22   40 1   
@<TRIPOS>SUBSTRUCTURE
     1 454         1 TEMP              0 ****  ****    0 ROOT
