@<TRIPOS>MOLECULE
454
   40    43     1     0     0
SMALL
bcc


@<TRIPOS>ATOM
      1 C1         -3.0740   -3.1160   -0.6210 ca        1 454     -0.124500
      2 N1          1.3130    0.1120   -1.7070 n2        1 454     -0.594900
      3 C2         -3.4060   -2.0560    0.2230 ca        1 454     -0.140000
      4 N2          2.1840   -0.6900    0.4240 nh        1 454     -0.745600
      5 C3         -2.4540   -1.0890    0.5370 ca        1 454     -0.101250
      6 N3          0.3140   -0.3680    1.7870 n2        1 454     -0.658900
      7 C4         -1.1600   -1.1700    0.0040 ca        1 454     -0.074300
      8 N4          2.4380   -0.8270    2.8870 nh        1 454     -0.865800
      9 C5         -0.8270   -2.2430   -0.8260 ca        1 454     -0.101250
     10 C6         -1.7850   -3.2080   -1.1420 ca        1 454     -0.140000
     11 C7         -0.1540   -0.1090    0.3980 c3        1 454      0.213500
     12 C8          1.1580   -0.2060   -0.4640 c2        1 454      0.560200
     13 C9          2.6590    0.0700   -2.2320 c3        1 454      0.103800
     14 C10         3.7630    0.3480   -1.2080 c3        1 454     -0.119400
     15 C11         3.5620   -0.4030    0.1150 c3        1 454      0.202800
     16 C12         1.6200   -0.6310    1.7560 c2        1 454      0.749100
     17 C13        -0.7440    1.2720    0.2010 ca        1 454     -0.074300
     18 C14        -0.7160    2.2500    1.2000 ca        1 454     -0.101250
     19 C15        -1.2650    3.5110    0.9630 ca        1 454     -0.140000
     20 C16        -1.8430    3.8080   -0.2700 ca        1 454     -0.124500
     21 C17        -1.8740    2.8360   -1.2700 ca        1 454     -0.140000
     22 C18        -1.3310    1.5750   -1.0370 ca        1 454     -0.101250
     23 H1         -3.8260   -3.8780   -0.8720 ha        1 454      0.128500
     24 H2         -4.4190   -1.9830    0.6430 ha        1 454      0.130000
     25 H3         -2.7120   -0.2540    1.2070 ha        1 454      0.145500
     26 HN4         3.1600   -1.5010    2.7420 hn        1 454      0.407300
     27 HN4A        1.9160   -0.9910    3.7230 hn        1 454      0.407300
     28 H5          0.1890   -2.3420   -1.2380 ha        1 454      0.145500
     29 H6         -1.5160   -4.0440   -1.8040 ha        1 454      0.130000
     30 H9          2.8350   -0.9370   -2.7050 h1        1 454      0.064200
     31 H9A         2.7060    0.8460   -3.0470 h1        1 454      0.064200
     32 H10         4.7520    0.0510   -1.6390 hc        1 454      0.058200
     33 H10A        3.7980    1.4500   -1.0000 hc        1 454      0.058200
     34 H11         4.0480    0.1930    0.9390 h1        1 454      0.050700
     35 H11A        4.0920   -1.3990    0.0560 h1        1 454      0.050700
     36 H14        -0.2730    2.0450    2.1860 ha        1 454      0.145500
     37 H15        -1.2400    4.2720    1.7560 ha        1 454      0.130000
     38 H16        -2.2720    4.8030   -0.4540 ha        1 454      0.128500
     39 H17        -2.3280    3.0630   -2.2450 ha        1 454      0.130000
     40 H18        -1.3580    0.8100   -1.8290 ha        1 454      0.145500
@<TRIPOS>BOND
     1    1    3 ar  
     2    1   10 ar  
     3    1   23 1   
     4    2   12 2   
     5    2   13 1   
     6    3    5 ar  
     7    3   24 1   
     8    4   12 1   
     9    4   15 1   
    10    4   16 1   
    11    5    7 ar  
    12    5   25 1   
    13    6   11 1   
    14    6   16 2   
    15    7    9 ar  
    16    7   11 1   
    17    8   16 1   
    18    8   26 1   
    19    8   27 1   
    20    9   10 ar  
    21    9   28 1   
    22   10   29 1   
    23   11   12 1   
    24   11   17 1   
    25   13   14 1   
    26   13   30 1   
    27   13   31 1   
    28   14   15 1   
    29   14   32 1   
    30   14   33 1   
    31   15   34 1   
    32   15   35 1   
    33   17   18 ar  
    34   17   22 ar  
    35   18   19 ar  
    36   18   36 1   
    37   19   20 ar  
    38   19   37 1   
    39   20   21 ar  
    40   20   38 1   
    41   21   22 ar  
    42   21   39 1   
    43   22   40 1   
@<TRIPOS>SUBSTRUCTURE
     1 454         1 TEMP              0 ****  ****    0 ROOT
