@<TRIPOS>MOLECULE
454
   41    44     1     0     0
SMALL
bcc


@<TRIPOS>ATOM
      1 C1         -0.1050   -0.0410   -0.0640 ca        1 454     -0.099000
      2 N1          0.3300    0.3730    5.4700 n2        1 454     -0.522900
      3 C2          1.0120   -0.8590    0.1150 ca        1 454     -0.128500
      4 N2          2.0250    2.0670    4.9890 nh        1 454     -0.717600
      5 C3          1.7160   -0.8270    1.3170 ca        1 454     -0.099000
      6 N3          3.3190    0.8890    3.4200 n2        1 454     -0.514900
      7 C4          1.3010    0.0230    2.3510 ca        1 454     -0.113800
      8 N4          4.2240    3.0250    4.2050 n4        1 454     -0.779600
      9 C5          0.1920    0.8530    2.1650 ca        1 454     -0.099000
     10 C6         -0.5120    0.8130    0.9610 ca        1 454     -0.128500
     11 C7          2.0980    0.0370    3.6340 c3        1 454      0.235500
     12 C8          1.3350    0.7890    4.7870 c2        1 454      0.536200
     13 C9         -0.0960    1.1710    6.5970 c3        1 454      0.092800
     14 C10         1.0260    1.9560    7.2820 c3        1 454     -0.116400
     15 C11         1.9640    2.6730    6.3000 c3        1 454      0.181800
     16 C12         3.2230    1.9350    4.2150 c2        1 454      0.594100
     17 C13         2.4240   -1.3620    4.1020 ca        1 454     -0.113800
     18 C14         3.7200   -1.7770    4.4210 ca        1 454     -0.099000
     19 C15         3.9490   -3.0810    4.8610 ca        1 454     -0.128500
     20 C16         2.8900   -3.9780    4.9860 ca        1 454     -0.099000
     21 C17         1.5960   -3.5700    4.6640 ca        1 454     -0.128500
     22 C18         1.3610   -2.2710    4.2200 ca        1 454     -0.099000
     23 H1         -0.6650   -0.0710   -1.0120 ha        1 454      0.149000
     24 H2          1.3370   -1.5330   -0.6920 ha        1 454      0.147750
     25 H3          2.5930   -1.4780    1.4600 ha        1 454      0.142000
     26 HN4         4.5430    3.2050    5.1640 hn        1 454      0.480800
     27 HN4A        3.7860    3.8730    3.8200 hn        1 454      0.480800
     28 H5         -0.1460    1.5340    2.9600 ha        1 454      0.142000
     29 H6         -1.3950    1.4570    0.8240 ha        1 454      0.147750
     30 H9         -0.9070    1.8770    6.2570 h1        1 454      0.094200
     31 H9A        -0.5530    0.4540    7.3370 h1        1 454      0.094200
     32 H10         0.5750    2.7240    7.9610 hc        1 454      0.078700
     33 H10A        1.6290    1.2530    7.9150 hc        1 454      0.078700
     34 H11         1.5900    3.7270    6.1410 h1        1 454      0.050200
     35 H11A        2.9850    2.7330    6.7750 h1        1 454      0.050200
     36 H14         4.5840   -1.1030    4.3220 ha        1 454      0.142000
     37 H15         4.9740   -3.4010    5.1050 ha        1 454      0.147750
     38 H16         3.0750   -5.0060    5.3340 ha        1 454      0.149000
     39 H17         0.7550   -4.2750    4.7560 ha        1 454      0.147750
     40 H18         0.3370   -1.9560    3.9610 ha        1 454      0.142000
     41 H43         5.0260    2.7570    3.6160 hn        1 454      0.480800
@<TRIPOS>BOND
     1    1    3 ar  
     2    1   10 ar  
     3    1   23 1   
     4    2   12 2   
     5    2   13 1   
     6    3    5 ar  
     7    3   24 1   
     8    4   12 1   
     9    4   15 1   
    10    4   16 1   
    11    5    7 ar  
    12    5   25 1   
    13    6   11 1   
    14    6   16 2   
    15    7    9 ar  
    16    7   11 1   
    17    8   16 1   
    18    8   26 1   
    19    8   27 1   
    20    8   41 1   
    21    9   10 ar  
    22    9   28 1   
    23   10   29 1   
    24   11   12 1   
    25   11   17 1   
    26   13   14 1   
    27   13   30 1   
    28   13   31 1   
    29   14   15 1   
    30   14   32 1   
    31   14   33 1   
    32   15   34 1   
    33   15   35 1   
    34   17   18 ar  
    35   17   22 ar  
    36   18   19 ar  
    37   18   36 1   
    38   19   20 ar  
    39   19   37 1   
    40   20   21 ar  
    41   20   38 1   
    42   21   22 ar  
    43   21   39 1   
    44   22   40 1   
@<TRIPOS>SUBSTRUCTURE
     1 454         1 TEMP              0 ****  ****    0 ROOT
