@<TRIPOS>MOLECULE
455
   58    61     1     0     0
SMALL
bcc


@<TRIPOS>ATOM
      1 S1          0.2780   -0.6700    0.4660 s6        1 455      1.513800
      2 C2          3.9280    0.3430    1.2680 c3        1 455     -0.153700
      3 C3          3.8960    0.3000   -0.2720 c3        1 455     -0.152700
      4 N4          1.6310    0.1100    0.5200 n3        1 455     -0.833500
      5 C5          4.6730    1.5800    1.7810 c         1 455      0.664100
      6 N6          7.7160    5.4890    6.1490 n         1 455     -0.270200
      7 C7          4.3570   -1.0780   -0.7550 c         1 455      0.680100
      8 C8          2.4140    0.5040   -0.6510 c3        1 455      0.220800
      9 C9          2.4450    0.3390    1.7120 c3        1 455      0.218800
     10 C10         8.7430    5.0610    7.0420 c         1 455      0.693700
     11 C11         6.9610    4.5510    5.3960 ca        1 455      0.067600
     12 N12         4.7020    1.7300    3.1510 n         1 455     -0.444100
     13 C13         6.5110    3.3540    5.9870 ca        1 455     -0.121000
     14 N14         5.6570   -1.1970   -1.1540 n         1 455     -0.416100
     15 C15         5.4640    2.6810    3.8630 ca        1 455     -0.009400
     16 C16         5.7790    2.4300    5.2330 ca        1 455      0.100900
     17 O17        -0.3260   -0.8440    1.7050 o         1 455     -0.557300
     18 O18        -0.4660   -0.4500   -0.6860 o         1 455     -0.557300
     19 C19         7.4650    6.8450    5.9780 cc        1 455      0.000600
     20 O20         5.1870    2.3780    0.9770 o         1 455     -0.577100
     21 O21         3.5310   -2.0270   -0.7420 o         1 455     -0.710100
     22 C22         9.5040    6.1160    7.7180 cc        1 455     -0.244200
     23 O23         8.9500    3.8460    7.2090 o         1 455     -0.625500
     24 C24         6.6520    4.7970    4.0420 ca        1 455     -0.142000
     25 C25         5.9150    3.8860    3.2970 ca        1 455     -0.107000
     26 C26         8.1810    7.8110    6.6290 cd        1 455     -0.225000
     27 C27         9.2350    7.4290    7.5190 cd        1 455     -0.037000
     28 C28         6.2900   -2.3540   -1.6680 ca        1 455      0.022600
     29 N29         0.8450   -2.4590    0.1320 n4        1 455     -0.805500
     30 F30         5.3580    1.2840    5.8270 f         1 455     -0.141900
     31 C31         7.6590   -4.5780   -2.6950 ca        1 455      0.015400
     32 CL          8.4820   -5.9200   -3.3150 cl        1 455     -0.054400
     33 C33         7.5260   -2.1910   -2.3380 ca        1 455     -0.137500
     34 C34         5.7570   -3.6480   -1.5220 ca        1 455     -0.137500
     35 C35         6.4400   -4.7480   -2.0340 ca        1 455     -0.100500
     36 C36         8.2000   -3.2950   -2.8440 ca        1 455     -0.100500
     37 H291        1.8510   -2.6060    0.2470 hn        1 455      0.466800
     38 H292        0.3660   -3.1050    0.7560 hn        1 455      0.466800
     39 H2          4.4480   -0.5690    1.6700 hc        1 455      0.100700
     40 H3          4.5100    1.1330   -0.7160 hc        1 455      0.143700
     41 H91C        2.2540   -0.4660    2.4740 h1        1 455      0.089200
     42 H92C        2.1560    1.3340    2.1570 h1        1 455      0.089200
     43 H81C        2.2230    1.5930   -0.8710 h1        1 455      0.096700
     44 H82C        2.1220   -0.1110   -1.5460 h1        1 455      0.096700
     45 H12         4.3450    0.9810    3.7060 hn        1 455      0.325500
     46 H19         6.6360    7.1020    5.2920 h4        1 455      0.157000
     47 H14         6.2190   -0.3700   -1.1570 hn        1 455      0.340500
     48 H22        10.2980    5.7560    8.3890 ha        1 455      0.172000
     49 H13         6.7550    3.1100    7.0360 ha        1 455      0.192000
     50 H24         7.0060    5.7160    3.5460 ha        1 455      0.154000
     51 H25         5.7020    4.1180    2.2390 ha        1 455      0.173000
     52 H26         7.9500    8.8730    6.4770 ha        1 455      0.159000
     53 H27         9.8080    8.2190    8.0300 ha        1 455      0.152000
     54 H33         7.9720   -1.1920   -2.4670 ha        1 455      0.150000
     55 H34         4.7980   -3.8100   -1.0060 ha        1 455      0.150000
     56 H35         6.0110   -5.7560   -1.9130 ha        1 455      0.161500
     57 H36         9.1620   -3.1560   -3.3640 ha        1 455      0.161500
     58 H293        0.6190   -2.7260   -0.8260 hn        1 455      0.466800
@<TRIPOS>BOND
     1    1    4 1   
     2    1   17 2   
     3    1   18 2   
     4    1   29 1   
     5    2    3 1   
     6    2    5 1   
     7    2    9 1   
     8    2   39 1   
     9    3    7 1   
    10    3    8 1   
    11    3   40 1   
    12    4    8 1   
    13    4    9 1   
    14    5   12 1   
    15    5   20 2   
    16    6   10 1   
    17    6   11 1   
    18    6   19 1   
    19    7   14 1   
    20    7   21 2   
    21    8   43 1   
    22    8   44 1   
    23    9   41 1   
    24    9   42 1   
    25   10   22 1   
    26   10   23 2   
    27   11   13 ar  
    28   11   24 ar  
    29   12   15 1   
    30   12   45 1   
    31   13   16 ar  
    32   13   49 1   
    33   14   28 1   
    34   14   47 1   
    35   15   16 ar  
    36   15   25 ar  
    37   16   30 1   
    38   19   26 2   
    39   19   46 1   
    40   22   27 2   
    41   22   48 1   
    42   24   25 ar  
    43   24   50 1   
    44   25   51 1   
    45   26   27 1   
    46   26   52 1   
    47   27   53 1   
    48   28   33 ar  
    49   28   34 ar  
    50   29   37 1   
    51   29   38 1   
    52   29   58 1   
    53   31   32 1   
    54   31   35 ar  
    55   31   36 ar  
    56   33   36 ar  
    57   33   54 1   
    58   34   35 ar  
    59   34   55 1   
    60   35   56 1   
    61   36   57 1   
@<TRIPOS>SUBSTRUCTURE
     1 455         1 TEMP              0 ****  ****    0 ROOT
