@<TRIPOS>MOLECULE
455
   60    63     1     0     0
SMALL
bcc


@<TRIPOS>ATOM
      1 S1          2.3090    2.7230   -0.8840 s6        1 455      1.514800
      2 C2          4.7840    0.4750    1.0930 c3        1 455     -0.140700
      3 C3          4.4200   -0.4300   -0.1100 c3        1 455     -0.148700
      4 N4          2.9000    1.4610   -0.0860 n3        1 455     -0.842500
      5 C5          6.1200    1.1500    0.8620 c         1 455      0.524100
      6 N6          6.5040    4.3090    6.6190 n         1 455     -0.270200
      7 C7          4.2760   -1.8760    0.3030 c         1 455      0.529100
      8 C8          3.0780    0.1350   -0.6560 c3        1 455      0.212800
      9 C9          3.6600    1.5470    1.1540 c3        1 455      0.213800
     10 C10         7.4820    5.3420    6.8970 c         1 455      0.703700
     11 C11         6.5530    3.5580    5.4470 ca        1 455      0.194600
     12 N12         7.1450    1.1190    1.9590 n4        1 455     -0.494200
     13 C13         6.1080    2.2040    5.4230 ca        1 455     -0.204000
     14 N14         4.1780   -2.9040   -0.7920 n4        1 455     -0.518200
     15 C15         6.8170    1.9770    3.0910 ca        1 455     -0.219400
     16 C16         6.2350    1.4320    4.2710 ca        1 455      0.180900
     17 O17         2.7890    3.9140   -0.3740 o         1 455     -0.519800
     18 O18         2.1290    2.4270   -2.2210 o         1 455     -0.519800
     19 C19         5.5560    3.9970    7.6100 cc        1 455     -0.064400
     20 O20         6.4360    1.7290   -0.1700 o         1 455     -0.400100
     21 O21         4.2430   -2.2930    1.4520 o         1 455     -0.380100
     22 C22         7.4200    5.9800    8.2150 cc        1 455     -0.210200
     23 O23         8.3220    5.6190    6.0300 o         1 455     -0.583500
     24 C24         7.0590    4.1050    4.2280 ca        1 455     -0.137000
     25 C25         7.2060    3.3340    3.0950 ca        1 455     -0.045000
     26 C26         5.5290    4.6160    8.8210 cd        1 455     -0.139000
     27 C27         6.4970    5.6310    9.1380 cd        1 455     -0.034000
     28 C28         5.4890   -3.2160   -1.3770 ca        1 455     -0.123400
     29 N29         0.5200    2.8000   -0.3030 n4        1 455     -0.809500
     30 F30         5.8240    0.1400    4.2670 f         1 455     -0.139900
     31 C31         7.9010   -3.9500   -2.5770 ca        1 455      0.079400
     32 CL          9.3380   -4.4000   -3.3060 cl        1 455      0.057600
     33 C33         6.3040   -4.1880   -0.7640 ca        1 455     -0.090000
     34 C34         5.8760   -2.6130   -2.5890 ca        1 455     -0.090000
     35 C35         7.0770   -2.9810   -3.1790 ca        1 455     -0.104000
     36 C36         7.5050   -4.5460   -1.3670 ca        1 455     -0.104000
     37 H291        0.2350    2.0950    0.3740 hn        1 455      0.480467
     38 H292        0.3290    3.7150    0.1220 hn        1 455      0.480467
     39 H2          4.7830   -0.1060    2.0620 hc        1 455      0.150700
     40 H3          5.2110   -0.3570   -0.9140 hc        1 455      0.138700
     41 H91C        2.9880    1.3120    2.0300 h1        1 455      0.112700
     42 H92C        4.0820    2.5850    1.2870 h1        1 455      0.112700
     43 H81C        2.2210   -0.5260   -0.3410 h1        1 455      0.098700
     44 H82C        3.1050    0.1920   -1.7840 h1        1 455      0.098700
     45 H12         7.2520    0.1540    2.3020 hn        1 455      0.483800
     46 H19         4.7970    3.2400    7.3410 h4        1 455      0.154000
     47 H14         3.5510   -2.5700   -1.5340 hn        1 455      0.480800
     48 H22         8.1880    6.7550    8.3830 ha        1 455      0.201000
     49 H13         5.7050    1.7160    6.3290 ha        1 455      0.196000
     50 H24         7.3770    5.1680    4.1840 ha        1 455      0.223000
     51 H25         7.6470    3.7960    2.1930 ha        1 455      0.171000
     52 H26         4.7590    4.3540    9.5650 ha        1 455      0.183000
     53 H27         6.4600    6.1090   10.1320 ha        1 455      0.184000
     54 H33         6.0050   -4.6890    0.1730 ha        1 455      0.160500
     55 H34         5.2340   -1.8770   -3.1000 ha        1 455      0.160500
     56 H35         7.3780   -2.5230   -4.1410 ha        1 455      0.201500
     57 H36         8.1400   -5.3210   -0.8960 ha        1 455      0.201500
     58 H122        8.0520    1.4410    1.5690 hn        1 455      0.483800
     59 H142        3.7900   -3.7790   -0.3920 hn        1 455      0.480800
     60 H293       -0.1150    2.7140   -1.1070 hn        1 455      0.480467
@<TRIPOS>BOND
     1    1    4 1   
     2    1   17 2   
     3    1   18 2   
     4    1   29 1   
     5    2    3 1   
     6    2    5 1   
     7    2    9 1   
     8    2   39 1   
     9    3    7 1   
    10    3    8 1   
    11    3   40 1   
    12    4    8 1   
    13    4    9 1   
    14    5   12 1   
    15    5   20 2   
    16    6   10 1   
    17    6   11 1   
    18    6   19 1   
    19    7   14 1   
    20    7   21 2   
    21    8   43 1   
    22    8   44 1   
    23    9   41 1   
    24    9   42 1   
    25   10   22 1   
    26   10   23 2   
    27   11   13 ar  
    28   11   24 ar  
    29   12   15 1   
    30   12   45 1   
    31   12   58 1   
    32   13   16 ar  
    33   13   49 1   
    34   14   28 1   
    35   14   47 1   
    36   14   59 1   
    37   15   16 ar  
    38   15   25 ar  
    39   16   30 1   
    40   19   26 2   
    41   19   46 1   
    42   22   27 2   
    43   22   48 1   
    44   24   25 ar  
    45   24   50 1   
    46   25   51 1   
    47   26   27 1   
    48   26   52 1   
    49   27   53 1   
    50   28   33 ar  
    51   28   34 ar  
    52   29   37 1   
    53   29   38 1   
    54   29   60 1   
    55   31   32 1   
    56   31   35 ar  
    57   31   36 ar  
    58   33   36 ar  
    59   33   54 1   
    60   34   35 ar  
    61   34   55 1   
    62   35   56 1   
    63   36   57 1   
@<TRIPOS>SUBSTRUCTURE
     1 455         1 TEMP              0 ****  ****    0 ROOT
