@<TRIPOS>MOLECULE
455
   57    60     1     0     0
SMALL
bcc


@<TRIPOS>ATOM
      1 S1         -2.3440    4.5590   -0.2200 s6        1 455      1.597800
      2 C2         -0.9350    0.8880    0.5480 c3        1 455     -0.142700
      3 C3         -2.1450    0.5760   -0.3440 c3        1 455     -0.145700
      4 N4         -2.0910    2.9620    0.0530 n3        1 455     -0.830500
      5 C5          0.3750    0.4240   -0.0850 c         1 455      0.679100
      6 N6          6.9090   -0.6500   -0.4730 n         1 455     -0.258200
      7 C7         -3.0380   -0.5070    0.2560 c         1 455      0.675100
      8 C8         -2.9210    1.9060   -0.4760 c3        1 455      0.233800
      9 C9         -0.9460    2.4220    0.7480 c3        1 455      0.233800
     10 C10         7.8100   -1.1040    0.5320 c         1 455      0.690700
     11 C11         5.5490   -0.3530   -0.1700 ca        1 455      0.031600
     12 N12         1.4990    0.5800    0.7130 n         1 455     -0.462100
     13 C13         5.2140    0.3680    0.9890 ca        1 455     -0.116000
     14 N14        -4.0650   -0.9400   -0.5690 n         1 455     -0.466100
     15 C15         2.8240    0.2560    0.3880 ca        1 455      0.039600
     16 C16         3.8750    0.6690    1.2660 ca        1 455      0.080900
     17 O17        -1.0880    5.2160   -0.1910 o         1 455     -0.647800
     18 O18        -3.1250    4.6820   -1.3970 o         1 455     -0.647800
     19 C19         7.3410   -0.5150   -1.7830 cc        1 455      0.013600
     20 O20         0.4150   -0.0700   -1.2260 o         1 455     -0.589100
     21 O21        -2.8520   -0.9470    1.4040 o         1 455     -0.588100
     22 C22         9.1670   -1.4380    0.0900 cc        1 455     -0.253200
     23 O23         7.4310   -1.1960    1.7140 o         1 455     -0.628500
     24 C24         4.5160   -0.7780   -1.0290 ca        1 455     -0.133000
     25 C25         3.1880   -0.4770   -0.7580 ca        1 455     -0.127000
     26 C26         8.6180   -0.8210   -2.1730 cd        1 455     -0.246000
     27 C27         9.5500   -1.3020   -1.2030 cd        1 455     -0.038000
     28 C28        -5.0220   -1.9330   -0.2990 ca        1 455      0.067600
     29 N29        -3.2150    5.0780    1.0260 n3        1 455     -1.025700
     30 F30         3.5850    1.3660    2.3960 f         1 455     -0.142900
     31 C31        -6.9970   -3.8880    0.1230 ca        1 455     -0.009600
     32 CL         -8.1910   -5.0680    0.3800 cl        1 455     -0.092400
     33 C33        -5.9580   -2.2510   -1.3150 ca        1 455     -0.160500
     34 C34        -5.1010   -2.6200    0.9300 ca        1 455     -0.160500
     35 C35        -6.0810   -3.5870    1.1330 ca        1 455     -0.097500
     36 C36        -6.9330   -3.2170   -1.1020 ca        1 455     -0.097500
     37 H291       -2.8210    5.4590    1.8490 hn        1 455      0.449800
     38 H292       -4.2040    5.0800    1.0420 hn        1 455      0.449800
     39 H2         -1.0560    0.3760    1.5440 hc        1 455      0.118700
     40 H3         -1.7880    0.2410   -1.3590 hc        1 455      0.117700
     41 H91C       -1.0190    2.6500    1.8500 h1        1 455      0.058700
     42 H92C       -0.0060    2.9010    0.3520 h1        1 455      0.058700
     43 H81C       -3.1620    2.1130   -1.5580 h1        1 455      0.058700
     44 H82C       -3.8890    1.8550    0.0980 h1        1 455      0.058700
     45 H12         1.3710    1.0080    1.6060 hn        1 455      0.330500
     46 H19         6.5920   -0.1320   -2.5030 h4        1 455      0.159000
     47 H14        -4.1090   -0.5410   -1.4820 hn        1 455      0.321500
     48 H22         9.8350   -1.8020    0.8830 ha        1 455      0.165000
     49 H13         5.9900    0.6820    1.7080 ha        1 455      0.181000
     50 H24         4.7460   -1.3680   -1.9310 ha        1 455      0.146000
     51 H25         2.4130   -0.8280   -1.4610 ha        1 455      0.181000
     52 H26         8.9260   -0.6950   -3.2180 ha        1 455      0.153000
     53 H27        10.5710   -1.5540   -1.5300 ha        1 455      0.142000
     54 H33        -5.9260   -1.7370   -2.2880 ha        1 455      0.156000
     55 H34        -4.3890   -2.4060    1.7450 ha        1 455      0.156000
     56 H35        -6.1260   -4.1150    2.0990 ha        1 455      0.150000
     57 H36        -7.6520   -3.4510   -1.9020 ha        1 455      0.150000
@<TRIPOS>BOND
     1    1    4 1   
     2    1   17 2   
     3    1   18 2   
     4    1   29 1   
     5    2    3 1   
     6    2    5 1   
     7    2    9 1   
     8    2   39 1   
     9    3    7 1   
    10    3    8 1   
    11    3   40 1   
    12    4    8 1   
    13    4    9 1   
    14    5   12 1   
    15    5   20 2   
    16    6   10 1   
    17    6   11 1   
    18    6   19 1   
    19    7   14 1   
    20    7   21 2   
    21    8   43 1   
    22    8   44 1   
    23    9   41 1   
    24    9   42 1   
    25   10   22 1   
    26   10   23 2   
    27   11   13 ar  
    28   11   24 ar  
    29   12   15 1   
    30   12   45 1   
    31   13   16 ar  
    32   13   49 1   
    33   14   28 1   
    34   14   47 1   
    35   15   16 ar  
    36   15   25 ar  
    37   16   30 1   
    38   19   26 2   
    39   19   46 1   
    40   22   27 2   
    41   22   48 1   
    42   24   25 ar  
    43   24   50 1   
    44   25   51 1   
    45   26   27 1   
    46   26   52 1   
    47   27   53 1   
    48   28   33 ar  
    49   28   34 ar  
    50   29   37 1   
    51   29   38 1   
    52   31   32 1   
    53   31   35 ar  
    54   31   36 ar  
    55   33   36 ar  
    56   33   54 1   
    57   34   35 ar  
    58   34   55 1   
    59   35   56 1   
    60   36   57 1   
@<TRIPOS>SUBSTRUCTURE
     1 455         1 TEMP              0 ****  ****    0 ROOT
