@<TRIPOS>MOLECULE
455
   57    54     1     0     0
SMALL
bcc


@<TRIPOS>ATOM
      1 S1         -5.3330   -0.6290   -1.9920 ss        1 455      2.829000
      2 C2         -1.8740   -0.8350   -0.4790 c3        1 455     -0.136000
      3 C3         -1.5350   -0.6950   -2.0500 c3        1 455     -0.128000
      4 N4         -3.7100   -0.3020   -1.7560 n2        1 455     -0.854000
      5 C5         -0.6870   -0.2000    0.3790 c2        1 455      0.315000
      6 N6          3.0800    2.7640    4.9490 n         1 455     -0.201000
      7 C7         -1.1240   -1.9670   -2.5600 c2        1 455      0.313000
      8 C8         -2.8550   -0.1750   -2.6400 c3        1 455     -0.005000
      9 C9         -2.9840   -0.2070   -0.3820 c3        1 455      0.000000
     10 C10         3.2180    2.2170    6.3210 c2        1 455      0.331000
     11 C11         2.0730    2.2310    4.0570 c2        1 455      0.064000
     12 N12        -0.9790    0.4680    1.6520 n         1 455     -0.323000
     13 C13         2.3810    1.1780    3.2220 c2        1 455     -0.177000
     14 N14        -0.2290   -2.0390   -3.6940 n         1 455     -0.322000
     15 C15         0.1080    1.1550    2.4000 c2        1 455      0.018000
     16 C16         1.3950    0.6330    2.3860 c2        1 455      0.112000
     17 O17        -5.5360   -1.5520   -3.1170 o         1 455     -0.927000
     18 O18        -5.8900   -1.4180   -0.8690 o         1 455     -0.927000
     19 C19         3.9630    3.8080    4.4960 c2        1 455      0.008000
     20 O20         0.4220   -0.1930   -0.0560 o         1 455     -0.358000
     21 O21        -1.5680   -2.9480   -2.1060 o         1 455     -0.345000
     22 C22         4.2640    2.7770    7.2600 c2        1 455     -0.232000
     23 O23         2.4870    1.3330    6.6940 o         1 455     -0.353000
     24 C24         0.7860    2.7520    4.0710 c1        1 455     -0.107000
     25 C25        -0.2000    2.2090    3.2360 c1        1 455     -0.125000
     26 C26         5.0180    4.3770    5.4380 c1        1 455     -0.241000
     27 C27         5.1570    3.8290    6.8080 c1        1 455     -0.038000
     28 C28         0.1110   -3.3200   -4.2610 c2        1 455      0.077000
     29 N29        -6.1540    0.7520   -2.2080 n2        1 455     -0.953000
     30 F30         2.2430   -0.3190    2.0300 f         1 455     -0.088000
     31 C31         1.5810   -4.0730   -6.5110 c1        1 455     -0.090000
     32 CL          2.5250   -4.5810   -7.9050 cl        1 455     -0.019000
     33 C33         1.4100   -2.8280   -4.4470 c2        1 455     -0.172000
     34 C34        -0.4460   -4.1850   -5.1980 c1        1 455     -0.151000
     35 C35         0.2930   -4.5630   -6.3280 c1        1 455     -0.100000
     36 C36         2.1410   -3.2030   -5.5670 c2        1 455     -0.099000
     37 H291       -6.2850    1.0830   -3.0640 hn        1 455      0.244000
     38 H292       -6.4390    1.2400   -1.4730 hn        1 455      0.244000
     39 H2         -1.9370   -1.7560   -0.0860 hc        1 455      0.142000
     40 H3         -0.7720   -0.1220   -2.3140 hc        1 455      0.141000
     41 H91C       -3.5270   -0.6060    0.3000 h1        1 455      0.094000
     42 H92C       -2.8160    0.7190   -0.1650 h1        1 455      0.094000
     43 H81C       -2.7610    0.7990   -2.8940 h1        1 455      0.112500
     44 H82C       -3.0970   -0.6910   -3.4050 h1        1 455      0.112500
     45 H12        -1.8390    0.4730    1.9830 hn        1 455      0.242000
     46 H19         3.8700    4.1660    3.5950 h4        1 455      0.160000
     47 H14         0.0890   -1.2960   -4.0560 hn        1 455      0.258000
     48 H22         4.3540    2.4110    8.1730 ha        1 455      0.167000
     49 H13         3.3190    0.7970    3.2140 ha        1 455      0.158000
     50 H24         0.5660    3.5060    4.6680 ha        1 455      0.173000
     51 H25        -1.0780    2.5630    3.2470 ha        1 455      0.146000
     52 H26         5.6070    5.0740    5.1360 ha        1 455      0.155000
     53 H27         5.8310    4.1900    7.4140 ha        1 455      0.144000
     54 H33         1.8060   -2.2140   -3.7820 ha        1 455      0.142000
     55 H34        -1.3760   -4.5380   -5.0650 ha        1 455      0.177000
     56 H35        -0.1060   -5.1830   -7.0010 ha        1 455      0.150000
     57 H36         3.0380   -2.8620   -5.6950 ha        1 455      0.147000
@<TRIPOS>BOND
     1    1   17 1   
     2    1   18 1   
     3    2    3 1   
     4    2    5 1   
     5    2    9 1   
     6    2   39 1   
     7    3    7 1   
     8    3    8 1   
     9    3   40 1   
    10    4    8 1   
    11    4    9 1   
    12    5   12 1   
    13    5   20 1   
    14    6   10 1   
    15    6   11 1   
    16    6   19 1   
    17    7   14 1   
    18    7   21 1   
    19    8   43 1   
    20    8   44 1   
    21    9   41 1   
    22    9   42 1   
    23   10   22 1   
    24   10   23 1   
    25   11   13 1   
    26   11   24 1   
    27   12   15 1   
    28   12   45 1   
    29   13   16 1   
    30   13   49 1   
    31   14   28 1   
    32   14   47 1   
    33   15   16 1   
    34   15   25 1   
    35   16   30 1   
    36   19   26 1   
    37   19   46 1   
    38   22   27 1   
    39   22   48 1   
    40   24   50 1   
    41   25   51 1   
    42   26   52 1   
    43   27   53 1   
    44   28   33 1   
    45   28   34 1   
    46   29   37 1   
    47   29   38 1   
    48   31   35 1   
    49   31   36 1   
    50   33   36 1   
    51   33   54 1   
    52   34   55 1   
    53   35   56 1   
    54   36   57 1   
@<TRIPOS>SUBSTRUCTURE
     1 455         1 TEMP              0 ****  ****    0 ROOT
