@<TRIPOS>MOLECULE
455
   58    61     1     0     0
SMALL
bcc


@<TRIPOS>ATOM
      1 S1          0.2770   -0.6520    0.4500 s6        1 455      1.513800
      2 C2          3.9280    0.3480    1.2630 c3        1 455     -0.153700
      3 C3          3.9000    0.3060   -0.2770 c3        1 455     -0.152700
      4 N4          1.6330    0.1230    0.5080 n3        1 455     -0.833500
      5 C5          4.6770    1.5830    1.7780 c         1 455      0.664100
      6 N6          7.7180    5.4790    6.1590 n         1 455     -0.270200
      7 C7          4.3590   -1.0740   -0.7580 c         1 455      0.680100
      8 C8          2.4200    0.5140   -0.6600 c3        1 455      0.220800
      9 C9          2.4440    0.3510    1.7030 c3        1 455      0.218800
     10 C10         8.7380    5.0470    7.0590 c         1 455      0.693700
     11 C11         6.9620    4.5440    5.4030 ca        1 455      0.067600
     12 N12         4.7010    1.7330    3.1480 ns        1 455     -0.444100
     13 C13         6.5020    3.3510    5.9930 ca        1 455     -0.121000
     14 N14         5.6580   -1.1970   -1.1550 ns        1 455     -0.416100
     15 C15         5.4640    2.6810    3.8630 ca        1 455     -0.009400
     16 C16         5.7690    2.4300    5.2360 ca        1 455      0.100900
     17 O17        -0.3320   -0.8230    1.6880 o         1 455     -0.557300
     18 O18        -0.4630   -0.4300   -0.7040 o         1 455     -0.557300
     19 C19         7.4770    6.8360    5.9840 cc        1 455      0.000600
     20 O20         5.1980    2.3770    0.9760 o         1 455     -0.577100
     21 O21         3.5290   -2.0200   -0.7470 o         1 455     -0.710100
     22 C22         9.5010    6.0980    7.7380 cc        1 455     -0.244200
     23 O23         8.9360    3.8300    7.2300 o         1 455     -0.625500
     24 C24         6.6640    4.7900    4.0470 ca        1 455     -0.142000
     25 C25         5.9250    3.8820    3.2980 ca        1 455     -0.107000
     26 C26         8.1950    7.7980    6.6380 cd        1 455     -0.225000
     27 C27         9.2410    7.4120    7.5350 cd        1 455     -0.037000
     28 C28         6.2890   -2.3560   -1.6680 ca        1 455      0.022600
     29 N29         0.8390   -2.4430    0.1200 nz        1 455     -0.805500
     30 F30         5.3380    1.2870    5.8290 f         1 455     -0.141900
     31 C31         7.6510   -4.5850   -2.6920 ca        1 455      0.015400
     32 Cl          8.4710   -5.9300   -3.3110 cl        1 455     -0.054400
     33 C33         7.5250   -2.1970   -2.3390 ca        1 455     -0.137500
     34 C34         5.7530   -3.6490   -1.5190 ca        1 455     -0.137500
     35 C35         6.4320   -4.7510   -2.0310 ca        1 455     -0.100500
     36 C36         8.1960   -3.3040   -2.8430 ca        1 455     -0.100500
     37 H291        1.8450   -2.5930    0.2390 hn        1 455      0.466800
     38 H292        0.6170   -2.7100   -0.8390 hn        1 455      0.466800
     39 H2          4.4430   -0.5660    1.6670 hc        1 455      0.100700
     40 H3          4.5190    1.1370   -0.7180 hc        1 455      0.143700
     41 H91C        2.1570    1.3470    2.1460 h1        1 455      0.089200
     42 H92C        2.2470   -0.4520    2.4650 h1        1 455      0.089200
     43 H81C        2.1290   -0.1000   -1.5560 h1        1 455      0.096700
     44 H82C        2.2340    1.6040   -0.8810 h1        1 455      0.096700
     45 H12         4.3370    0.9870    3.7030 hn        1 455      0.325500
     46 H19         6.6540    7.0970    5.2920 h4        1 455      0.157000
     47 H14         6.2230   -0.3720   -1.1570 hn        1 455      0.340500
     48 H22        10.2880    5.7340    8.4150 ha        1 455      0.172000
     49 H13         6.7380    3.1070    7.0440 ha        1 455      0.192000
     50 H24         7.0260    5.7060    3.5510 ha        1 455      0.154000
     51 H25         5.7200    4.1130    2.2390 ha        1 455      0.173000
     52 H26         7.9710    8.8620    6.4830 ha        1 455      0.159000
     53 H27         9.8160    8.1990    8.0480 ha        1 455      0.152000
     54 H33         7.9730   -1.2000   -2.4690 ha        1 455      0.150000
     55 H34         4.7930   -3.8070   -1.0030 ha        1 455      0.150000
     56 H35         6.0010   -5.7580   -1.9080 ha        1 455      0.161500
     57 H36         9.1580   -3.1680   -3.3630 ha        1 455      0.161500
     58 H293        0.3550   -3.0870    0.7420 hn        1 455      0.466800
@<TRIPOS>BOND
     1    1    4 1   
     2    1   17 2   
     3    1   18 2   
     4    1   29 1   
     5    2    3 1   
     6    2    5 1   
     7    2    9 1   
     8    2   39 1   
     9    3    7 1   
    10    3    8 1   
    11    3   40 1   
    12    4    8 1   
    13    4    9 1   
    14    5   12 1   
    15    5   20 2   
    16    6   10 1   
    17    6   11 1   
    18    6   19 1   
    19    7   14 1   
    20    7   21 2   
    21    8   43 1   
    22    8   44 1   
    23    9   41 1   
    24    9   42 1   
    25   10   22 1   
    26   10   23 2   
    27   11   13 ar  
    28   11   24 ar  
    29   12   15 1   
    30   12   45 1   
    31   13   16 ar  
    32   13   49 1   
    33   14   28 1   
    34   14   47 1   
    35   15   16 ar  
    36   15   25 ar  
    37   16   30 1   
    38   19   26 2   
    39   19   46 1   
    40   22   27 2   
    41   22   48 1   
    42   24   25 ar  
    43   24   50 1   
    44   25   51 1   
    45   26   27 1   
    46   26   52 1   
    47   27   53 1   
    48   28   33 ar  
    49   28   34 ar  
    50   29   37 1   
    51   29   38 1   
    52   29   58 1   
    53   31   32 1   
    54   31   35 ar  
    55   31   36 ar  
    56   33   36 ar  
    57   33   54 1   
    58   34   35 ar  
    59   34   55 1   
    60   35   56 1   
    61   36   57 1   
@<TRIPOS>SUBSTRUCTURE
     1 455         1 TEMP              0 ****  ****    0 ROOT
