@<TRIPOS>MOLECULE
458
   39    38     1     0     0
SMALL
bcc


@<TRIPOS>ATOM
      1 CAK        -1.9960    0.9660   -0.2460 c3        1 458     -0.153000
      2 CAJ        -0.4450    0.9820   -0.2420 c3        1 458     -0.089000
      3 CAO         0.2040    0.9600    1.0660 c2        1 458     -0.102000
      4 CAR         1.6850    1.1450    1.1720 c3        1 458     -0.180000
      5 CAQ        -0.6060    0.1410    2.2340 c1        1 458     -0.157000
      6 CAP        -2.0610    0.0970    2.0710 c2        1 458     -0.109000
      7 CAL        -2.4990    0.1070    0.4140 c3        1 458     -0.080000
      8 CAT        -4.0480    0.2540    0.3110 c3        1 458     -0.013000
      9 OAU        -4.6680   -0.8230    0.9700 oh        1 458     -0.328000
     10 CAM        -2.0570   -1.3810   -0.2520 c3        1 458     -0.008000
     11 OAH        -0.4910   -1.4640   -0.3660 os        1 458     -0.264000
     12 CAI         0.0270   -0.2410   -1.0150 c3        1 458      0.080000
     13 CAD         1.4730   -0.2770   -1.0290 c2        1 458     -0.106000
     14 CAC         2.1800    0.6230   -1.8220 c2        1 458     -0.099000
     15 CAB         3.5560    0.4810   -1.9780 c1        1 458     -0.160000
     16 CAA         4.2250   -0.5580   -1.3420 c1        1 458      0.078000
     17 OAG         5.5960   -0.7640   -1.5890 oh        1 458     -0.253000
     18 CAF         3.5140   -1.4660   -0.5410 c1        1 458     -0.218000
     19 CAE         2.1510   -1.3270   -0.3860 c1        1 458     -0.059000
     20 HAK1       -2.3130    1.8330    0.0830 hc        1 458      0.086000
     21 HAK2       -2.3010    0.8560   -1.1780 hc        1 458      0.086000
     22 HAJ        -0.1440    1.7870   -0.7210 hc        1 458      0.102000
     23 HAR1        2.0260    1.5250    0.3390 hc        1 458      0.082333
     24 HAR2        1.8860    1.7510    1.9120 hc        1 458      0.082333
     25 HAR3        2.1120    0.2780    1.3340 hc        1 458      0.082333
     26 HAQ        -0.1990    0.0340    3.1450 ha        1 458      0.123000
     27 HAP1       -2.6040    0.7080    2.6200 ha        1 458      0.096500
     28 HAP2       -2.3390   -0.7650    2.4550 ha        1 458      0.096500
     29 HAT1       -4.3280    1.1030    0.7320 h1        1 458      0.064000
     30 HAT2       -4.3100    0.2560   -0.6220 h1        1 458      0.064000
     31 HAU        -5.5350   -0.7960    0.8240 ho        1 458      0.200000
     32 HAM1       -2.3870   -2.1170    0.3330 h1        1 458      0.093500
     33 HAM2       -2.4590   -1.4710   -1.1540 h1        1 458      0.093500
     34 HAI        -0.3050   -0.1930   -1.9340 h1        1 458      0.079000
     35 HAC         1.7060    1.3580   -2.2730 ha        1 458      0.131000
     36 HAB         4.0480    1.1080   -2.5310 ha        1 458      0.149000
     37 HAG         6.0620   -0.5580   -0.8640 ho        1 458      0.218000
     38 HAF         3.9840   -2.1950   -0.0950 ha        1 458      0.134000
     39 HAE         1.6600   -1.9540    0.1660 ha        1 458      0.157000
@<TRIPOS>BOND
     1    1    2 1   
     2    1    7 1   
     3    1   20 1   
     4    1   21 1   
     5    2    3 1   
     6    2   12 1   
     7    2   22 1   
     8    3    4 1   
     9    3    5 1   
    10    4   23 1   
    11    4   24 1   
    12    4   25 1   
    13    5   26 1   
    14    6    7 1   
    15    6   27 1   
    16    6   28 1   
    17    7    8 1   
    18    7   10 1   
    19    8    9 1   
    20    8   29 1   
    21    8   30 1   
    22    9   31 1   
    23   10   11 1   
    24   10   32 1   
    25   10   33 1   
    26   11   12 1   
    27   12   13 1   
    28   12   34 1   
    29   13   14 1   
    30   13   19 1   
    31   14   15 1   
    32   14   35 1   
    33   15   36 1   
    34   16   17 1   
    35   16   18 1   
    36   17   37 1   
    37   18   38 1   
    38   19   39 1   
@<TRIPOS>SUBSTRUCTURE
     1 458         1 TEMP              0 ****  ****    0 ROOT
