@<TRIPOS>MOLECULE
458
   39    41     1     0     0
SMALL
bcc


@<TRIPOS>ATOM
      1 CAK        -2.0640   -0.0840   -1.4690 c3        1 458     -0.074400
      2 CAJ        -0.6060    0.2890   -1.2090 c3        1 458     -0.045500
      3 CAO        -0.5610    1.6120   -0.5090 c2        1 458     -0.110400
      4 CAR         0.6110    2.4700   -0.7870 c3        1 458     -0.057900
      5 CAQ        -1.5570    1.9860    0.3100 c2        1 458     -0.161200
      6 CAP        -2.7650    1.1700    0.5800 c3        1 458     -0.026200
      7 CAL        -2.7700   -0.1910   -0.1180 c3        1 458     -0.080000
      8 CAT        -4.2140   -0.6510   -0.3450 c3        1 458      0.137400
      9 OAU        -4.8520   -0.7400    0.9190 oh        1 458     -0.600800
     10 CAM        -2.0470   -1.2520    0.7240 c3        1 458      0.142400
     11 OAH        -0.6540   -1.0090    0.8710 os        1 458     -0.407600
     12 CAI         0.0230   -0.8510   -0.3820 c3        1 458      0.198400
     13 CAD         1.4820   -0.6530   -0.1080 ca        1 458     -0.113300
     14 CAC         2.3900   -0.7990   -1.1660 ca        1 458     -0.079000
     15 CAB         3.7560   -0.6470   -0.9580 ca        1 458     -0.189000
     16 CAA         4.2190   -0.3490    0.3360 ca        1 458      0.123100
     17 OAG         5.5800   -0.2110    0.4830 oh        1 458     -0.499100
     18 CAF         3.3220   -0.2060    1.4030 ca        1 458     -0.189000
     19 CAE         1.9570   -0.3590    1.1740 ca        1 458     -0.079000
     20 HAK1       -2.1230   -1.0600   -2.0150 hc        1 458      0.046700
     21 HAK2       -2.5550    0.6990   -2.1000 hc        1 458      0.046700
     22 HAJ        -0.0490    0.3580   -2.1830 hc        1 458      0.062700
     23 HAR1        0.6060    3.3900   -0.1520 hc        1 458      0.043033
     24 HAR2        1.5560    1.9030   -0.5870 hc        1 458      0.043033
     25 HAR3        0.6120    2.7830   -1.8620 hc        1 458      0.043033
     26 HAQ        -1.5280    2.9560    0.8320 ha        1 458      0.123000
     27 HAP1       -2.8720    1.0100    1.6870 hc        1 458      0.057200
     28 HAP2       -3.6670    1.7540    0.2470 hc        1 458      0.057200
     29 HAT1       -4.7530    0.0870   -0.9980 h1        1 458      0.024700
     30 HAT2       -4.2240   -1.6570   -0.8480 h1        1 458      0.024700
     31 HAU        -5.7640   -1.0030    0.7460 ho        1 458      0.401000
     32 HAM1       -2.4370   -1.2520    1.7770 h1        1 458      0.054200
     33 HAM2       -2.1980   -2.2630    0.2590 h1        1 458      0.054200
     34 HAI        -0.1040   -1.8100   -0.9700 h1        1 458      0.039700
     35 HAC         2.0190   -1.0380   -2.1740 ha        1 458      0.144000
     36 HAB         4.4750   -0.7580   -1.7800 ha        1 458      0.141500
     37 HAG         5.7600   -0.0210    1.4150 ho        1 458      0.419000
     38 HAF         3.6930    0.0240    2.4120 ha        1 458      0.141500
     39 HAE         1.2430   -0.2510    2.0060 ha        1 458      0.144000
@<TRIPOS>BOND
     1    1    2 1   
     2    1    7 1   
     3    1   20 1   
     4    1   21 1   
     5    2    3 1   
     6    2   12 1   
     7    2   22 1   
     8    3    4 1   
     9    3    5 2   
    10    4   23 1   
    11    4   24 1   
    12    4   25 1   
    13    5    6 1   
    14    5   26 1   
    15    6    7 1   
    16    6   27 1   
    17    6   28 1   
    18    7    8 1   
    19    7   10 1   
    20    8    9 1   
    21    8   29 1   
    22    8   30 1   
    23    9   31 1   
    24   10   11 1   
    25   10   32 1   
    26   10   33 1   
    27   11   12 1   
    28   12   13 1   
    29   12   34 1   
    30   13   14 ar  
    31   13   19 ar  
    32   14   15 ar  
    33   14   35 1   
    34   15   16 ar  
    35   15   36 1   
    36   16   17 1   
    37   16   18 ar  
    38   17   37 1   
    39   18   19 ar  
    40   18   38 1   
    41   19   39 1   
@<TRIPOS>SUBSTRUCTURE
     1 458         1 TEMP              0 ****  ****    0 ROOT
