@<TRIPOS>MOLECULE
458
   39    41     1     0     0
SMALL
bcc


@<TRIPOS>ATOM
      1 CAK        -0.0230   -0.0470   -0.0070 c3        1 458     -0.074400
      2 CAJ         1.5040    0.0030   -0.0180 c3        1 458     -0.045500
      3 CAO         1.9940    0.1680    1.3870 c2        1 458     -0.110400
      4 CAR         3.2520    0.9260    1.5660 c3        1 458     -0.057900
      5 CAQ         1.2980   -0.3380    2.4170 c2        1 458     -0.161200
      6 CAP         0.0140   -1.0660    2.2790 c3        1 458     -0.026200
      7 CAL        -0.4470   -1.2520    0.8320 c3        1 458     -0.080000
      8 CAT        -1.9730   -1.3790    0.7870 c3        1 458      0.137400
      9 OAU        -2.3460   -2.4990    1.5750 oh        1 458     -0.600800
     10 CAM         0.1660   -2.5160    0.2110 c3        1 458      0.142400
     11 OAH         1.5770   -2.4460    0.0570 os        1 458     -0.407600
     12 CAI         2.0050   -1.2960   -0.6820 c3        1 458      0.198400
     13 CAD         3.4950   -1.3550   -0.8250 ca        1 458     -0.113300
     14 CAC         4.1120   -0.5260   -1.7730 ca        1 458     -0.079000
     15 CAB         5.4890   -0.5600   -1.9590 ca        1 458     -0.189000
     16 CAA         6.2590   -1.4440   -1.1850 ca        1 458      0.123100
     17 OAG         7.6170   -1.4350   -1.4120 oh        1 458     -0.499100
     18 CAF         5.6550   -2.2810   -0.2370 ca        1 458     -0.189000
     19 CAE         4.2740   -2.2300   -0.0630 ca        1 458     -0.079000
     20 HAK1       -0.4360    0.8950    0.4340 hc        1 458      0.046700
     21 HAK2       -0.4150   -0.1460   -1.0510 hc        1 458      0.046700
     22 HAJ         1.8530    0.8690   -0.6440 hc        1 458      0.062700
     23 HAR1        3.1080    1.9900    1.2500 hc        1 458      0.043033
     24 HAR2        4.0600    0.4790    0.9320 hc        1 458      0.043033
     25 HAR3        3.5880    0.9160    2.6320 hc        1 458      0.043033
     26 HAQ         1.6560   -0.2240    3.4540 ha        1 458      0.123000
     27 HAP1        0.0990   -2.0750    2.7650 hc        1 458      0.057200
     28 HAP2       -0.7760   -0.4970    2.8440 hc        1 458      0.057200
     29 HAT1       -2.4470   -0.4460    1.1960 h1        1 458      0.024700
     30 HAT2       -2.3170   -1.5280   -0.2720 h1        1 458      0.024700
     31 HAU        -3.3090   -2.5390    1.5530 ho        1 458      0.401000
     32 HAM1       -0.3060   -2.7040   -0.7910 h1        1 458      0.054200
     33 HAM2        0.0070   -3.4020    0.8820 h1        1 458      0.054200
     34 HAI         1.5430   -1.3520   -1.7140 h1        1 458      0.039700
     35 HAC         3.5000    0.1600   -2.3790 ha        1 458      0.144000
     36 HAB         5.9820    0.0860   -2.6980 ha        1 458      0.141500
     37 HAG         8.0200   -2.0920   -0.8270 ho        1 458      0.419000
     38 HAF         6.2640   -2.9720    0.3620 ha        1 458      0.141500
     39 HAE         3.7870   -2.8860    0.6770 ha        1 458      0.144000
@<TRIPOS>BOND
     1    1    2 1   
     2    1    7 1   
     3    1   20 1   
     4    1   21 1   
     5    2    3 1   
     6    2   12 1   
     7    2   22 1   
     8    3    4 1   
     9    3    5 2   
    10    4   23 1   
    11    4   24 1   
    12    4   25 1   
    13    5    6 1   
    14    5   26 1   
    15    6    7 1   
    16    6   27 1   
    17    6   28 1   
    18    7    8 1   
    19    7   10 1   
    20    8    9 1   
    21    8   29 1   
    22    8   30 1   
    23    9   31 1   
    24   10   11 1   
    25   10   32 1   
    26   10   33 1   
    27   11   12 1   
    28   12   13 1   
    29   12   34 1   
    30   13   14 ar  
    31   13   19 ar  
    32   14   15 ar  
    33   14   35 1   
    34   15   16 ar  
    35   15   36 1   
    36   16   17 1   
    37   16   18 ar  
    38   17   37 1   
    39   18   19 ar  
    40   18   38 1   
    41   19   39 1   
@<TRIPOS>SUBSTRUCTURE
     1 458         1 TEMP              0 ****  ****    0 ROOT
