@<TRIPOS>MOLECULE
458
   39    41     1     0     0
SMALL
bcc


@<TRIPOS>ATOM
      1 CAK        -0.0210   -0.0480   -0.0130 c3        1 458     -0.074400
      2 CAJ         1.5060    0.0030   -0.0240 c3        1 458     -0.045500
      3 CAO         1.9950    0.1720    1.3810 c2        1 458     -0.110400
      4 CAR         3.2540    0.9300    1.5580 c3        1 458     -0.057900
      5 CAQ         1.2990   -0.3310    2.4130 c2        1 458     -0.161200
      6 CAP         0.0150   -1.0590    2.2760 c3        1 458     -0.026200
      7 CAL        -0.4450   -1.2500    0.8300 c3        1 458     -0.080000
      8 CAT        -1.9720   -1.3770    0.7850 c3        1 458      0.137400
      9 OAU        -2.3450   -2.4940    1.5750 oh        1 458     -0.600800
     10 CAM         0.1680   -2.5150    0.2130 c3        1 458      0.142400
     11 OAH         1.5790   -2.4470    0.0590 os        1 458     -0.407600
     12 CAI         2.0080   -1.2980   -0.6830 c3        1 458      0.198400
     13 CAD         3.4970   -1.3580   -0.8260 ca        1 458     -0.113300
     14 CAC         4.1150   -0.5320   -1.7750 ca        1 458     -0.079000
     15 CAB         5.4910   -0.5660   -1.9610 ca        1 458     -0.189000
     16 CAA         6.2610   -1.4490   -1.1840 ca        1 458      0.123100
     17 OAG         7.6190   -1.4400   -1.4110 oh        1 458     -0.499100
     18 CAF         5.6570   -2.2830   -0.2340 ca        1 458     -0.189000
     19 CAE         4.2760   -2.2320   -0.0610 ca        1 458     -0.079000
     20 HAK1       -0.4130   -0.1490   -1.0570 hc        1 458      0.046700
     21 HAK2       -0.4340    0.8960    0.4250 hc        1 458      0.046700
     22 HAJ         1.8560    0.8660   -0.6520 hc        1 458      0.062700
     23 HAR1        3.5900    0.9240    2.6230 hc        1 458      0.043033
     24 HAR2        4.0620    0.4820    0.9250 hc        1 458      0.043033
     25 HAR3        3.1090    1.9940    1.2400 hc        1 458      0.043033
     26 HAQ         1.6570   -0.2130    3.4490 ha        1 458      0.123000
     27 HAP1       -0.7750   -0.4890    2.8390 hc        1 458      0.057200
     28 HAP2        0.1000   -2.0670    2.7650 hc        1 458      0.057200
     29 HAT1       -2.3150   -1.5290   -0.2750 h1        1 458      0.024700
     30 HAT2       -2.4450   -0.4420    1.1910 h1        1 458      0.024700
     31 HAU        -3.3080   -2.5340    1.5540 ho        1 458      0.401000
     32 HAM1        0.0090   -3.4000    0.8870 h1        1 458      0.054200
     33 HAM2       -0.3040   -2.7070   -0.7890 h1        1 458      0.054200
     34 HAI         1.5460   -1.3580   -1.7160 h1        1 458      0.039700
     35 HAC         3.5030    0.1520   -2.3840 ha        1 458      0.144000
     36 HAB         5.9850    0.0780   -2.7010 ha        1 458      0.141500
     37 HAG         8.0220   -2.0960   -0.8230 ho        1 458      0.419000
     38 HAF         6.2660   -2.9720    0.3670 ha        1 458      0.141500
     39 HAE         3.7880   -2.8860    0.6800 ha        1 458      0.144000
@<TRIPOS>BOND
     1    1    2 1   
     2    1    7 1   
     3    1   20 1   
     4    1   21 1   
     5    2    3 1   
     6    2   12 1   
     7    2   22 1   
     8    3    4 1   
     9    3    5 2   
    10    4   23 1   
    11    4   24 1   
    12    4   25 1   
    13    5    6 1   
    14    5   26 1   
    15    6    7 1   
    16    6   27 1   
    17    6   28 1   
    18    7    8 1   
    19    7   10 1   
    20    8    9 1   
    21    8   29 1   
    22    8   30 1   
    23    9   31 1   
    24   10   11 1   
    25   10   32 1   
    26   10   33 1   
    27   11   12 1   
    28   12   13 1   
    29   12   34 1   
    30   13   14 ar  
    31   13   19 ar  
    32   14   15 ar  
    33   14   35 1   
    34   15   16 ar  
    35   15   36 1   
    36   16   17 1   
    37   16   18 ar  
    38   17   37 1   
    39   18   19 ar  
    40   18   38 1   
    41   19   39 1   
@<TRIPOS>SUBSTRUCTURE
     1 458         1 TEMP              0 ****  ****    0 ROOT
