@<TRIPOS>MOLECULE
459
   44    46     1     0     0
SMALL
bcc


@<TRIPOS>ATOM
      1 CAT        -0.0350    0.0100   -0.0690 c3        1 459     -0.095100
      2 CAK         1.4740    0.1010   -0.0300 c3        1 459     -0.061700
      3 CAJ         2.0200    0.0740    1.3990 c3        1 459     -0.073700
      4 CAN         3.5400   -0.0960    1.3890 c3        1 459     -0.057700
      5 CAQ         3.9370   -1.5020    0.9870 c3        1 459     -0.089100
      6 CAP         4.2300    0.9420    0.5140 c3        1 459     -0.074400
      7 CAO         3.5610    1.1700   -0.8240 c3        1 459     -0.060400
      8 CAL         2.0460    1.3530   -0.7100 c3        1 459     -0.073000
      9 CAR         1.4550    1.5050   -2.1160 c3        1 459      0.136400
     10 OAS         2.0700    2.6250   -2.7350 oh        1 459     -0.601800
     11 CAM         1.6970    2.6050    0.1030 c3        1 459      0.144400
     12 OAH         2.0590    2.5310    1.4750 os        1 459     -0.413600
     13 CAI         1.5760    1.3530    2.1310 c3        1 459      0.193400
     14 CAD         2.0390    1.3900    3.5570 ca        1 459     -0.114300
     15 CAC         3.1030    2.2000    3.9640 ca        1 459     -0.080000
     16 CAB         3.5040    2.2240    5.2980 ca        1 459     -0.188000
     17 CAA         2.8310    1.4230    6.2300 ca        1 459      0.123100
     18 OAG         3.1700    1.3900    7.5640 oh        1 459     -0.499100
     19 CAF         1.7600    0.6040    5.8360 ca        1 459     -0.188000
     20 CAE         1.3720    0.5980    4.5020 ca        1 459     -0.080000
     21 HAT1       -0.3790   -0.2450   -1.1010 hc        1 459      0.036033
     22 HAT2       -0.3900   -0.7900    0.6250 hc        1 459      0.036033
     23 HAT3       -0.5150    0.9730    0.2290 hc        1 459      0.036033
     24 HAK         1.8750   -0.8030   -0.5730 hc        1 459      0.055700
     25 HAJ         1.5700   -0.7980    1.9500 hc        1 459      0.055700
     26 HAN         3.8970    0.0680    2.4480 hc        1 459      0.056700
     27 HAQ1        3.7480   -1.6790   -0.0990 hc        1 459      0.032700
     28 HAQ2        5.0260   -1.6590    1.1790 hc        1 459      0.032700
     29 HAQ3        3.3630   -2.2570    1.5760 hc        1 459      0.032700
     30 HAP1        5.2930    0.6280    0.3400 hc        1 459      0.048200
     31 HAP2        4.2530    1.9160    1.0760 hc        1 459      0.048200
     32 HAO1        3.7640    0.2980   -1.5010 hc        1 459      0.047700
     33 HAO2        3.9970    2.0820   -1.3110 hc        1 459      0.047700
     34 HAR1        1.6550    0.5760   -2.7150 h1        1 459      0.025200
     35 HAR2        0.3450    1.6730   -2.0570 h1        1 459      0.025200
     36 HAS         1.7070    2.6760   -3.6270 ho        1 459      0.400000
     37 HAM1        0.5950    2.8120    0.0260 h1        1 459      0.054200
     38 HAM2        2.2760    3.4870   -0.2820 h1        1 459      0.054200
     39 HAI         0.4460    1.3880    2.1200 h1        1 459      0.041700
     40 HAC         3.6210    2.8270    3.2200 ha        1 459      0.142500
     41 HAB         4.3390    2.8640    5.6150 ha        1 459      0.141500
     42 HAG         3.9070    2.0030    7.6990 ho        1 459      0.419000
     43 HAF         1.2450   -0.0140    6.5840 ha        1 459      0.141500
     44 HAE         0.5310   -0.0370    4.1840 ha        1 459      0.142500
@<TRIPOS>BOND
     1    1    2 1   
     2    1   21 1   
     3    1   22 1   
     4    1   23 1   
     5    2    3 1   
     6    2    8 1   
     7    2   24 1   
     8    3    4 1   
     9    3   13 1   
    10    3   25 1   
    11    4    5 1   
    12    4    6 1   
    13    4   26 1   
    14    5   27 1   
    15    5   28 1   
    16    5   29 1   
    17    6    7 1   
    18    6   30 1   
    19    6   31 1   
    20    7    8 1   
    21    7   32 1   
    22    7   33 1   
    23    8    9 1   
    24    8   11 1   
    25    9   10 1   
    26    9   34 1   
    27    9   35 1   
    28   10   36 1   
    29   11   12 1   
    30   11   37 1   
    31   11   38 1   
    32   12   13 1   
    33   13   14 1   
    34   13   39 1   
    35   14   15 ar  
    36   14   20 ar  
    37   15   16 ar  
    38   15   40 1   
    39   16   17 ar  
    40   16   41 1   
    41   17   18 1   
    42   17   19 ar  
    43   18   42 1   
    44   19   20 ar  
    45   19   43 1   
    46   20   44 1   
@<TRIPOS>SUBSTRUCTURE
     1 459         1 TEMP              0 ****  ****    0 ROOT
