@<TRIPOS>MOLECULE
459
   44    46     1     0     0
SMALL
bcc


@<TRIPOS>ATOM
      1 CAT         2.1770   -1.7720    1.7170 c3        1 459     -0.095100
      2 CAK         1.9880   -0.3730    1.1770 c3        1 459     -0.061700
      3 CAJ         0.5120    0.0310    1.1160 c3        1 459     -0.073700
      4 CAN         0.3770    1.5250    0.8170 c3        1 459     -0.057700
      5 CAQ         0.7760    2.3660    2.0120 c3        1 459     -0.089100
      6 CAP         1.1510    1.9350   -0.4280 c3        1 459     -0.074400
      7 CAO         2.5420    1.3450   -0.5170 c3        1 459     -0.060400
      8 CAL         2.5730   -0.1570   -0.2260 c3        1 459     -0.073000
      9 CAR         4.0260   -0.6430   -0.2700 c3        1 459      0.136400
     10 OAS         4.5510   -0.3510   -1.5560 oh        1 459     -0.601800
     11 CAM         1.7650   -0.9410   -1.2660 c3        1 459      0.144400
     12 OAH         0.3660   -0.6930   -1.2290 os        1 459     -0.413600
     13 CAI        -0.2070   -0.8450    0.0750 c3        1 459      0.193400
     14 CAD        -1.6710   -0.5390   -0.0210 ca        1 459     -0.114300
     15 CAC        -2.2030    0.1850   -1.0910 ca        1 459     -0.080000
     16 CAB        -3.5700    0.4440   -1.1610 ca        1 459     -0.188000
     17 CAA        -4.4100   -0.0280   -0.1430 ca        1 459      0.123100
     18 OAG        -5.7690    0.1900   -0.1400 oh        1 459     -0.499100
     19 CAF        -3.8900   -0.7580    0.9390 ca        1 459     -0.188000
     20 CAE        -2.5240   -1.0100    0.9880 ca        1 459     -0.080000
     21 HAT1        1.9020   -2.5490    0.9630 hc        1 459      0.036033
     22 HAT2        3.2450   -1.9320    2.0070 hc        1 459      0.036033
     23 HAT3        1.5430   -1.9230    2.6250 hc        1 459      0.036033
     24 HAK         2.5120    0.3310    1.8850 hc        1 459      0.055700
     25 HAJ         0.0320   -0.1760    2.1130 hc        1 459      0.055700
     26 HAN        -0.7160    1.7210    0.6120 hc        1 459      0.056700
     27 HAQ1        0.4810    3.4310    1.8420 hc        1 459      0.032700
     28 HAQ2        0.2670    2.0030    2.9370 hc        1 459      0.032700
     29 HAQ3        1.8800    2.3350    2.1770 hc        1 459      0.032700
     30 HAP1        0.5640    1.6100   -1.3300 hc        1 459      0.048200
     31 HAP2        1.2280    3.0540   -0.4610 hc        1 459      0.048200
     32 HAO1        2.9590    1.5210   -1.5440 hc        1 459      0.047700
     33 HAO2        3.2190    1.8630    0.2130 hc        1 459      0.047700
     34 HAR1        4.6280   -0.1170    0.5190 h1        1 459      0.025200
     35 HAR2        4.0720   -1.7520   -0.0900 h1        1 459      0.025200
     36 HAS         5.4730   -0.6340   -1.5450 ho        1 459      0.400000
     37 HAM1        2.0670   -0.6290   -2.3030 h1        1 459      0.054200
     38 HAM2        1.9440   -2.0420   -1.1340 h1        1 459      0.054200
     39 HAI        -0.0860   -1.9270    0.3830 h1        1 459      0.041700
     40 HAC        -1.5310    0.5470   -1.8870 ha        1 459      0.142500
     41 HAB        -3.9850    1.0110   -2.0060 ha        1 459      0.141500
     42 HAG        -5.9920    0.6890   -0.9390 ho        1 459      0.419000
     43 HAF        -4.5670   -1.1200    1.7250 ha        1 459      0.141500
     44 HAE        -2.1090   -1.5850    1.8290 ha        1 459      0.142500
@<TRIPOS>BOND
     1    1    2 1   
     2    1   21 1   
     3    1   22 1   
     4    1   23 1   
     5    2    3 1   
     6    2    8 1   
     7    2   24 1   
     8    3    4 1   
     9    3   13 1   
    10    3   25 1   
    11    4    5 1   
    12    4    6 1   
    13    4   26 1   
    14    5   27 1   
    15    5   28 1   
    16    5   29 1   
    17    6    7 1   
    18    6   30 1   
    19    6   31 1   
    20    7    8 1   
    21    7   32 1   
    22    7   33 1   
    23    8    9 1   
    24    8   11 1   
    25    9   10 1   
    26    9   34 1   
    27    9   35 1   
    28   10   36 1   
    29   11   12 1   
    30   11   37 1   
    31   11   38 1   
    32   12   13 1   
    33   13   14 1   
    34   13   39 1   
    35   14   15 ar  
    36   14   20 ar  
    37   15   16 ar  
    38   15   40 1   
    39   16   17 ar  
    40   16   41 1   
    41   17   18 1   
    42   17   19 ar  
    43   18   42 1   
    44   19   20 ar  
    45   19   43 1   
    46   20   44 1   
@<TRIPOS>SUBSTRUCTURE
     1 459         1 TEMP              0 ****  ****    0 ROOT
