@<TRIPOS>MOLECULE
459
   44    44     1     0     0
SMALL
bcc


@<TRIPOS>ATOM
      1 CAT        -2.3810   -1.7430   -1.2270 c3        1 459     -0.216000
      2 CAK        -1.0760   -1.5830   -1.1670 c3        1 459     -0.092000
      3 CAJ        -0.5620   -1.4310    0.3390 c3        1 459     -0.112000
      4 CAN         0.9480   -1.2100    0.4370 c3        1 459     -0.103000
      5 CAQ         1.6500   -2.5880    0.8350 c3        1 459     -0.209000
      6 CAP         1.4730   -0.7680   -0.7660 c3        1 459     -0.153000
      7 CAO         0.8710    0.1310   -1.6100 c3        1 459     -0.144000
      8 CAL        -0.6140   -0.0870   -1.6840 c3        1 459     -0.070000
      9 CAR        -1.0630    0.0850   -3.1460 c3        1 459     -0.013000
     10 OAS        -0.2650    1.0730   -3.7720 oh        1 459     -0.331000
     11 CAM        -1.2860    0.9390   -0.8580 c3        1 459     -0.012000
     12 OAH        -2.0550    0.3460    0.0510 os        1 459     -0.273000
     13 CAI        -1.2640   -0.2780    0.9790 c3        1 459      0.073000
     14 CAD        -0.2120    0.7300    1.5300 c2        1 459     -0.124000
     15 CAC        -0.2990    2.0710    1.1890 c2        1 459     -0.080000
     16 CAB         0.5140    3.0050    1.8250 c1        1 459     -0.157000
     17 CAA         1.4100    2.5960    2.7980 c1        1 459      0.077000
     18 OAG         2.2150    3.5460    3.4600 oh        1 459     -0.252000
     19 CAF         1.4980    1.2530    3.1410 c1        1 459     -0.214000
     20 CAE         0.6880    0.3210    2.5080 c1        1 459     -0.090000
     21 HAT1       -2.7930   -0.9390   -1.6140 hc        1 459      0.079667
     22 HAT2       -2.7340   -1.8890   -0.3230 hc        1 459      0.079667
     23 HAT3       -2.5890   -2.5190   -1.7870 hc        1 459      0.079667
     24 HAK        -0.5970   -2.2920   -1.6420 hc        1 459      0.094000
     25 HAJ        -0.7890   -2.2430    0.8270 hc        1 459      0.096000
     26 HAN         1.1300   -0.5480    1.1270 hc        1 459      0.100000
     27 HAQ1        1.4030   -2.8270    1.7530 hc        1 459      0.074333
     28 HAQ2        1.3560   -3.2920    0.2240 hc        1 459      0.074333
     29 HAQ3        2.6250   -2.4880    0.7740 hc        1 459      0.074333
     30 HAP1        2.3500   -0.3890   -0.5530 hc        1 459      0.079000
     31 HAP2        1.6350   -1.5730   -1.3020 hc        1 459      0.079000
     32 HAO1        1.0440    1.0360   -1.2870 hc        1 459      0.089000
     33 HAO2        1.2530    0.0330   -2.5070 hc        1 459      0.089000
     34 HAR1       -0.9630   -0.7660   -3.6220 h1        1 459      0.067000
     35 HAR2       -2.0040    0.3630   -3.1680 h1        1 459      0.067000
     36 HAS        -0.5790    1.2330   -4.5940 ho        1 459      0.199000
     37 HAM1       -0.6130    1.4870   -0.4090 h1        1 459      0.095000
     38 HAM2       -1.8400    1.5070   -1.4320 h1        1 459      0.095000
     39 HAI        -1.8190   -0.6030    1.7140 h1        1 459      0.106000
     40 HAC        -0.9300    2.3600    0.5030 ha        1 459      0.147000
     41 HAB         0.4520    3.9530    1.5840 ha        1 459      0.150000
     42 HAG         1.9250    3.6510    4.2960 ho        1 459      0.217000
     43 HAF         2.1320    0.9630    3.8300 ha        1 459      0.132000
     44 HAE         0.7510   -0.6240    2.7490 ha        1 459      0.131000
@<TRIPOS>BOND
     1    1    2 1   
     2    1   21 1   
     3    1   22 1   
     4    1   23 1   
     5    2    3 1   
     6    2    8 1   
     7    2   24 1   
     8    3    4 1   
     9    3   13 1   
    10    3   25 1   
    11    4    5 1   
    12    4    6 1   
    13    4   26 1   
    14    5   27 1   
    15    5   28 1   
    16    5   29 1   
    17    6    7 1   
    18    6   30 1   
    19    6   31 1   
    20    7    8 1   
    21    7   32 1   
    22    7   33 1   
    23    8    9 1   
    24    8   11 1   
    25    9   10 1   
    26    9   34 1   
    27    9   35 1   
    28   10   36 1   
    29   11   12 1   
    30   11   37 1   
    31   11   38 1   
    32   12   13 1   
    33   13   14 1   
    34   13   39 1   
    35   14   15 1   
    36   14   20 1   
    37   15   16 1   
    38   15   40 1   
    39   16   41 1   
    40   17   18 1   
    41   17   19 1   
    42   18   42 1   
    43   19   43 1   
    44   20   44 1   
@<TRIPOS>SUBSTRUCTURE
     1 459         1 TEMP              0 ****  ****    0 ROOT
