@<TRIPOS>MOLECULE
459
   44    46     1     0     0
SMALL
bcc


@<TRIPOS>ATOM
      1 CAT        -0.0190   -0.0060   -0.0810 c3        1 459     -0.095100
      2 CAK         1.4890    0.0950   -0.0350 c3        1 459     -0.061700
      3 CAJ         2.0290    0.0710    1.3960 c3        1 459     -0.073700
      4 CAN         3.5510   -0.0870    1.3920 c3        1 459     -0.057700
      5 CAQ         3.9600   -1.4890    0.9910 c3        1 459     -0.089100
      6 CAP         4.2360    0.9580    0.5210 c3        1 459     -0.074400
      7 CAO         3.5710    1.1810   -0.8190 c3        1 459     -0.060400
      8 CAL         2.0540    1.3530   -0.7110 c3        1 459     -0.073000
      9 CAR         1.4680    1.5010   -2.1200 c3        1 459      0.136400
     10 OAS         2.0770    2.6270   -2.7350 oh        1 459     -0.601800
     11 CAM         1.6920    2.6010    0.1010 c3        1 459      0.144400
     12 OAH         2.0490    2.5290    1.4750 os        1 459     -0.413600
     13 CAI         1.5730    1.3460    2.1280 c3        1 459      0.193400
     14 CAD         2.0300    1.3850    3.5550 ca        1 459     -0.114300
     15 CAC         3.0850    2.2040    3.9670 ca        1 459     -0.080000
     16 CAB         3.4810    2.2290    5.3030 ca        1 459     -0.188000
     17 CAA         2.8100    1.4230    6.2320 ca        1 459      0.123100
     18 OAG         3.1440    1.3910    7.5670 oh        1 459     -0.499100
     19 CAF         1.7470    0.5960    5.8320 ca        1 459     -0.188000
     20 CAE         1.3650    0.5870    4.4960 ca        1 459     -0.080000
     21 HAT1       -0.3710   -0.8100    0.6110 hc        1 459      0.036033
     22 HAT2       -0.5080    0.9530    0.2160 hc        1 459      0.036033
     23 HAT3       -0.3570   -0.2640   -1.1150 hc        1 459      0.036033
     24 HAK         1.8990   -0.8050   -0.5780 hc        1 459      0.055700
     25 HAJ         1.5830   -0.8040    1.9440 hc        1 459      0.055700
     26 HAN         3.9010    0.0790    2.4530 hc        1 459      0.056700
     27 HAQ1        3.7770   -1.6670   -0.0960 hc        1 459      0.032700
     28 HAQ2        3.3890   -2.2490    1.5770 hc        1 459      0.032700
     29 HAQ3        5.0490   -1.6380    1.1880 hc        1 459      0.032700
     30 HAP1        4.2490    1.9310    1.0840 hc        1 459      0.048200
     31 HAP2        5.3020    0.6510    0.3510 hc        1 459      0.048200
     32 HAO1        4.0020    2.0970   -1.3040 hc        1 459      0.047700
     33 HAO2        3.7830    0.3110   -1.4960 hc        1 459      0.047700
     34 HAR1        1.6770    0.5750   -2.7190 h1        1 459      0.025200
     35 HAR2        0.3560    1.6600   -2.0650 h1        1 459      0.025200
     36 HAS         1.7170    2.6760   -3.6290 ho        1 459      0.400000
     37 HAM1        2.2670    3.4880   -0.2810 h1        1 459      0.054200
     38 HAM2        0.5890    2.8000    0.0200 h1        1 459      0.054200
     39 HAI         0.4420    1.3730    2.1120 h1        1 459      0.041700
     40 HAC         3.6010    2.8360    3.2260 ha        1 459      0.142500
     41 HAB         4.3090    2.8760    5.6240 ha        1 459      0.141500
     42 HAG         3.8760    2.0090    7.7050 ho        1 459      0.419000
     43 HAF         1.2340   -0.0270    6.5780 ha        1 459      0.141500
     44 HAE         0.5290   -0.0540    4.1750 ha        1 459      0.142500
@<TRIPOS>BOND
     1    1    2 1   
     2    1   21 1   
     3    1   22 1   
     4    1   23 1   
     5    2    3 1   
     6    2    8 1   
     7    2   24 1   
     8    3    4 1   
     9    3   13 1   
    10    3   25 1   
    11    4    5 1   
    12    4    6 1   
    13    4   26 1   
    14    5   27 1   
    15    5   28 1   
    16    5   29 1   
    17    6    7 1   
    18    6   30 1   
    19    6   31 1   
    20    7    8 1   
    21    7   32 1   
    22    7   33 1   
    23    8    9 1   
    24    8   11 1   
    25    9   10 1   
    26    9   34 1   
    27    9   35 1   
    28   10   36 1   
    29   11   12 1   
    30   11   37 1   
    31   11   38 1   
    32   12   13 1   
    33   13   14 1   
    34   13   39 1   
    35   14   15 ar  
    36   14   20 ar  
    37   15   16 ar  
    38   15   40 1   
    39   16   17 ar  
    40   16   41 1   
    41   17   18 1   
    42   17   19 ar  
    43   18   42 1   
    44   19   20 ar  
    45   19   43 1   
    46   20   44 1   
@<TRIPOS>SUBSTRUCTURE
     1 459         1 TEMP              0 ****  ****    0 ROOT
