@<TRIPOS>MOLECULE
45A
   38    39     1     0     0
SMALL
bcc


@<TRIPOS>ATOM
      1 P           0.6070   -0.1830   -1.1030 p5        1 45A      1.982000
      2 O4'        -2.9580    2.7090   -2.2450 os        1 45A     -0.310000
      3 C4'        -1.5460    2.4440   -2.2570 c3        1 45A     -0.060000
      4 C3'        -5.4250    5.2560   -3.2650 c1        1 45A      0.057000
      5 C2'        -4.7850    4.1300   -2.5000 c3        1 45A     -0.099000
      6 O3'        -6.5530    5.0780   -3.8580 oh        1 45A     -0.154000
      7 C6         -2.3910    3.6210   -7.9350 c2        1 45A      0.208000
      8 C1'        -3.3740    3.7880   -3.0690 c3        1 45A      0.160000
      9 C4         -2.7130    4.0360   -5.5220 c2        1 45A      0.072000
     10 N3         -1.9460    5.1660   -5.5550 n2        1 45A     -0.192000
     11 C2         -1.4540    5.4280   -6.7870 c2        1 45A      0.012000
     12 N1         -1.6090    4.7490   -7.9570 n2        1 45A     -0.266000
     13 C31         2.1970   -0.0270   -0.5790 c3        1 45A     -0.895000
     14 OP2        -0.2040   -0.9820   -0.1560 o         1 45A     -0.862500
     15 O5'         0.0920    1.4070   -0.8700 os        1 45A     -0.743000
     16 C5'        -1.2720    1.6030   -0.9990 c3        1 45A      0.057000
     17 O2'        -5.6380    2.9950   -2.5080 oh        1 45A     -0.374000
     18 N9         -3.4050    3.4160   -4.4690 na        1 45A     -0.211000
     19 C5         -2.9790    3.2090   -6.6970 c2        1 45A     -0.222000
     20 N7         -3.7850    2.1150   -6.3420 n2        1 45A     -0.129000
     21 C8         -4.0030    2.2570   -5.0280 c2        1 45A     -0.019000
     22 O1          0.5310   -0.3850   -2.5670 o         1 45A     -0.862500
     23 H4'        -1.2870    1.8780   -3.1880 h1        1 45A      0.094500
     24 H3'        -0.9710    3.4040   -2.2200 h1        1 45A      0.094500
     25 H2'        -4.6290    4.4800   -1.4380 h1        1 45A      0.133000
     26 H1         -6.9430    4.1770   -3.8170 ho        1 45A      0.193000
     27 H1'        -2.6910    4.6830   -2.9580 h2        1 45A      0.149000
     28 H2         -0.8150    6.3330   -6.8590 h5        1 45A      0.182000
     29 H327        2.9130   -0.3120   -1.3820 hc        1 45A      0.101667
     30 H337        2.4270    1.0220   -0.2850 hc        1 45A      0.101667
     31 H317        2.3940   -0.6730    0.3050 hc        1 45A      0.101667
     32 H5'1       -1.6490    2.1710   -0.1030 h1        1 45A      0.066500
     33 H5'2       -1.8170    0.6210   -1.0660 h1        1 45A      0.066500
     34 HO2'       -5.1710    2.2790   -2.0540 ho        1 45A      0.246000
     35 H8         -4.5830    1.5760   -4.3890 h5        1 45A      0.213000
     36 H61        -2.0730    3.0780   -9.8810 hn        1 45A      0.219500
     37 H62        -2.9930    1.9900   -8.9730 hn        1 45A      0.219500
     38 N6         -2.6650    2.9200   -9.0990 nh        1 45A     -0.332000
@<TRIPOS>BOND
     1    1   13 1   
     2    1   14 1   
     3    1   15 1   
     4    1   22 1   
     5    2    3 1   
     6    2    8 1   
     7    3   16 1   
     8    3   23 1   
     9    3   24 1   
    10    4    5 1   
    11    4    6 1   
    12    5    8 1   
    13    5   17 1   
    14    5   25 1   
    15    6   26 1   
    16    7   12 1   
    17    7   19 1   
    18    7   38 1   
    19    8   18 1   
    20    8   27 1   
    21    9   10 1   
    22    9   18 1   
    23    9   19 1   
    24   10   11 1   
    25   11   12 1   
    26   11   28 1   
    27   13   29 1   
    28   13   30 1   
    29   13   31 1   
    30   15   16 1   
    31   16   32 1   
    32   16   33 1   
    33   17   34 1   
    34   18   21 1   
    35   19   20 1   
    36   20   21 1   
    37   21   35 1   
    38   36   38 1   
    39   37   38 1   
@<TRIPOS>SUBSTRUCTURE
     1 45A         1 TEMP              0 ****  ****    0 ROOT
