@<TRIPOS>MOLECULE
45B
   72    76     1     0     0
SMALL
bcc


@<TRIPOS>ATOM
      1 Cl1         0.6180    1.2390   -0.0430 cl        1 45B     -0.107400
      2 C13         2.1350    0.4630    0.0720 ca        1 45B     -0.040600
      3 C12         2.7280    0.3620    1.3300 ca        1 45B     -0.097000
      4 C11         3.9630   -0.2630    1.4730 ca        1 45B     -0.152000
      5 C10         4.6020   -0.7880    0.3520 ca        1 45B     -0.102000
      6 C9          4.0230   -0.7000   -0.9090 ca        1 45B     -0.150000
      7 C8          2.7710   -0.0680   -1.0830 ca        1 45B      0.083600
      8 N1          2.1360    0.0320   -2.3280 ns        1 45B     -0.468100
      9 C7          2.6970   -0.2060   -3.5780 c         1 45B      0.686700
     10 O2          3.8800   -0.5600   -3.7380 o         1 45B     -0.584100
     11 C6          1.7910    0.0050   -4.7450 ca        1 45B     -0.166600
     12 C4          2.3260    0.5970   -5.8950 ca        1 45B     -0.071500
     13 C3          1.5280    0.8110   -7.0110 ca        1 45B     -0.154500
     14 C14         0.4550   -0.4000   -4.7350 ca        1 45B     -0.071500
     15 C15        -0.3530   -0.2060   -5.8510 ca        1 45B     -0.154500
     16 C2          0.1680    0.4170   -7.0050 ca        1 45B      0.170600
     17 N5         -0.5980    0.5770   -8.1760 nu        1 45B     -0.729300
     18 C1         -1.8780    1.1370   -8.2170 ca        1 45B      0.698200
     19 N6         -2.5790    1.3810   -7.0760 nb        1 45B     -0.792000
     20 C16        -2.4670    1.4130   -9.5090 ca        1 45B     -0.224700
     21 F4         -1.7880    1.2030  -10.6590 f         1 45B     -0.130900
     22 C17        -3.7860    1.9090   -9.5240 ca        1 45B      0.464200
     23 N4         -4.4970    2.1510   -8.4170 nb        1 45B     -0.738000
     24 C5         -3.8610    1.8950   -7.2090 ca        1 45B      0.899900
     25 N8         -4.5080    2.2230   -6.0030 nu        1 45B     -0.707300
     26 C          -5.9080    2.4170   -5.9280 ca        1 45B      0.133600
     27 C30        -6.6730    1.6340   -5.0340 ca        1 45B     -0.135000
     28 C29        -8.0360    1.8650   -4.8900 ca        1 45B     -0.098000
     29 C20        -8.6750    2.8650   -5.6330 ca        1 45B     -0.090300
     30 C19        -7.9180    3.6460   -6.5110 ca        1 45B     -0.098000
     31 C18        -6.5500    3.4360   -6.6600 ca        1 45B     -0.135000
     32 C21       -10.1460    3.0500   -5.5090 c3        1 45B     -0.096100
     33 C22       -10.5530    4.4720   -5.1590 c         1 45B      0.661100
     34 O1         -9.7750    5.4360   -5.2990 o         1 45B     -0.594100
     35 N         -11.8240    4.6880   -4.6270 n         1 45B     -0.474800
     36 C28       -12.2440    6.0280   -4.2720 c3        1 45B      0.065500
     37 C27       -13.4590    6.5360   -5.0800 c3        1 45B      0.066000
     38 N2        -14.5360    5.5730   -5.1730 n         1 45B     -0.471800
     39 C24       -14.1190    4.2430   -5.5340 c3        1 45B      0.066000
     40 C23       -12.8960    3.7310   -4.7260 c3        1 45B      0.065500
     41 C25       -15.7830    5.8560   -4.6250 c         1 45B      0.658100
     42 O3        -16.0130    6.9890   -4.1540 o         1 45B     -0.602100
     43 C26       -16.8700    4.8110   -4.6630 c3        1 45B     -0.170100
     44 H12         2.2150    0.7800    2.2100 ha        1 45B      0.147000
     45 H11         4.4290   -0.3380    2.4660 ha        1 45B      0.139000
     46 H10         5.5800   -1.2840    0.4590 ha        1 45B      0.139000
     47 H9          4.5560   -1.1250   -1.7760 ha        1 45B      0.177000
     48 HN1         1.2110    0.4080   -2.3160 hn        1 45B      0.329500
     49 H4          3.3890    0.8890   -5.9090 ha        1 45B      0.149500
     50 H3          1.9690    1.2850   -7.9020 ha        1 45B      0.149500
     51 H14         0.0260   -0.9000   -3.8520 ha        1 45B      0.149500
     52 H15        -1.3980   -0.5520   -5.8220 ha        1 45B      0.149500
     53 HN5        -0.0720    0.7050   -9.0170 hn        1 45B      0.447800
     54 H17        -4.2920    2.1200  -10.4850 h4        1 45B      0.043100
     55 HN8        -4.1000    1.8250   -5.1810 hn        1 45B      0.442800
     56 H30        -6.1980    0.8390   -4.4390 ha        1 45B      0.144500
     57 H29        -8.6130    1.2480   -4.1840 ha        1 45B      0.141500
     58 H19        -8.4060    4.4610   -7.0690 ha        1 45B      0.141500
     59 H18        -5.9800    4.0760   -7.3510 ha        1 45B      0.144500
     60 H21       -10.6270    2.7940   -6.4940 hc        1 45B      0.069700
     61 H21A      -10.5430    2.3400   -4.7330 hc        1 45B      0.069700
     62 H28       -11.3940    6.7510   -4.4310 h1        1 45B      0.064200
     63 H28A      -12.5060    6.0220   -3.1750 h1        1 45B      0.064200
     64 H27       -13.8340    7.4800   -4.5910 h1        1 45B      0.064700
     65 H27A      -13.1290    6.7850   -6.1290 h1        1 45B      0.064700
     66 H24       -13.8480    4.2520   -6.6300 h1        1 45B      0.064700
     67 H24A      -14.9510    3.5020   -5.3870 h1        1 45B      0.064700
     68 H23       -12.5530    2.7810   -5.2200 h1        1 45B      0.064200
     69 H23A      -13.2330    3.4800   -3.6790 h1        1 45B      0.064200
     70 H26       -17.8230    5.2820   -4.3150 hc        1 45B      0.066033
     71 H26A      -16.6190    3.9640   -3.9810 hc        1 45B      0.066033
     72 H26B      -17.0180    4.4230   -5.6990 hc        1 45B      0.066033
@<TRIPOS>BOND
     1    1    2 1   
     2    2    3 ar  
     3    2    7 ar  
     4    3    4 ar  
     5    3   44 1   
     6    4    5 ar  
     7    4   45 1   
     8    5    6 ar  
     9    5   46 1   
    10    6    7 ar  
    11    6   47 1   
    12    7    8 1   
    13    8    9 1   
    14    8   48 1   
    15    9   10 2   
    16    9   11 1   
    17   11   12 ar  
    18   11   14 ar  
    19   12   13 ar  
    20   12   49 1   
    21   13   16 ar  
    22   13   50 1   
    23   14   15 ar  
    24   14   51 1   
    25   15   16 ar  
    26   15   52 1   
    27   16   17 1   
    28   17   18 1   
    29   17   53 1   
    30   18   19 ar  
    31   18   20 ar  
    32   19   24 ar  
    33   20   21 1   
    34   20   22 ar  
    35   22   23 ar  
    36   22   54 1   
    37   23   24 ar  
    38   24   25 1   
    39   25   26 1   
    40   25   55 1   
    41   26   27 ar  
    42   26   31 ar  
    43   27   28 ar  
    44   27   56 1   
    45   28   29 ar  
    46   28   57 1   
    47   29   30 ar  
    48   29   32 1   
    49   30   31 ar  
    50   30   58 1   
    51   31   59 1   
    52   32   33 1   
    53   32   60 1   
    54   32   61 1   
    55   33   34 2   
    56   33   35 1   
    57   35   36 1   
    58   35   40 1   
    59   36   37 1   
    60   36   62 1   
    61   36   63 1   
    62   37   38 1   
    63   37   64 1   
    64   37   65 1   
    65   38   39 1   
    66   38   41 1   
    67   39   40 1   
    68   39   66 1   
    69   39   67 1   
    70   40   68 1   
    71   40   69 1   
    72   41   42 2   
    73   41   43 1   
    74   43   70 1   
    75   43   71 1   
    76   43   72 1   
@<TRIPOS>SUBSTRUCTURE
     1 45B         1 TEMP              0 ****  ****    0 ROOT
