@<TRIPOS>MOLECULE
45B
   75    79     1     0     0
SMALL
bcc


@<TRIPOS>ATOM
      1 CL1         2.7590   -2.5830   -3.0640 cl        1 45B     -0.065400
      2 C13         3.8910   -1.6650   -2.1900 ca        1 45B      0.026400
      3 C12         4.1760   -1.9900   -0.8640 ca        1 45B     -0.090000
      4 C11         5.1180   -1.2450   -0.1480 ca        1 45B     -0.043000
      5 C10         5.7750   -0.1720   -0.7520 ca        1 45B     -0.092000
      6 C9          5.5080    0.1650   -2.0780 ca        1 45B     -0.076000
      7 C8          4.5660   -0.5860   -2.8040 ca        1 45B     -0.088400
      8 N1          4.3370   -0.2810   -4.2230 n4        1 45B     -0.527200
      9 C7          3.5550    0.9960   -4.4080 c         1 45B      0.547700
     10 O2          4.1460    2.0390   -4.1720 o         1 45B     -0.360100
     11 C6          2.1500    0.9040   -4.8690 ca        1 45B     -0.115600
     12 C4          1.2480    1.8450   -4.3460 ca        1 45B     -0.048000
     13 C3         -0.0560    1.9230   -4.8370 ca        1 45B     -0.089500
     14 C14         1.7320    0.0120   -5.8620 ca        1 45B     -0.048000
     15 C15         0.4300    0.0770   -6.3620 ca        1 45B     -0.089500
     16 C2         -0.4540    1.0530   -5.8670 ca        1 45B     -0.015400
     17 N5         -1.7710    1.2270   -6.5050 n4        1 45B     -0.621100
     18 C1         -2.8900    0.5440   -5.8110 ca        1 45B      0.465200
     19 N6         -3.6710    1.2980   -4.9760 nb        1 45B     -0.651000
     20 C16        -3.1580   -0.8300   -6.0560 ca        1 45B     -0.003700
     21 F4         -2.4090   -1.5680   -6.8820 f         1 45B     -0.058900
     22 C17        -4.2970   -1.3940   -5.3770 ca        1 45B      0.483200
     23 N4         -5.0690   -0.6750   -4.5710 nb        1 45B     -0.584000
     24 C5         -4.7320    0.6620   -4.4060 ca        1 45B      0.759900
     25 N8         -5.6490    1.4740   -3.5410 n4        1 45B     -0.592100
     26 C          -6.8640    1.8750   -4.2610 ca        1 45B     -0.111400
     27 C30        -8.0230    1.0830   -4.1610 ca        1 45B     -0.092000
     28 C29        -9.2060    1.5500   -4.7270 ca        1 45B     -0.088000
     29 C20        -9.2480    2.7800   -5.4010 ca        1 45B      0.033700
     30 C19        -8.0640    3.5260   -5.5430 ca        1 45B     -0.088000
     31 C18        -6.8740    3.0890   -4.9760 ca        1 45B     -0.092000
     32 C21       -10.5350    3.2910   -5.9460 c3        1 45B     -0.140100
     33 C22       -10.8120    4.7290   -5.5000 c         1 45B      0.660100
     34 O1         -9.8860    5.4080   -4.9980 o         1 45B     -0.638100
     35 N         -12.0660    5.2560   -5.6800 n         1 45B     -0.440800
     36 C28       -12.3690    6.5710   -5.1350 c3        1 45B      0.057500
     37 C27       -13.3630    7.3780   -5.9960 c3        1 45B      0.078000
     38 N2        -14.5090    6.6120   -6.4250 n         1 45B     -0.475800
     39 C24       -14.1680    5.3660   -7.0500 c3        1 45B      0.078000
     40 C23       -13.1670    4.5030   -6.2330 c3        1 45B      0.057500
     41 C25       -15.7700    6.8610   -5.8600 c         1 45B      0.657100
     42 O3        -15.8980    7.7950   -5.0490 o         1 45B     -0.571100
     43 C26       -16.9520    6.0400   -6.3030 c3        1 45B     -0.171100
     44 H12         3.6660   -2.8440   -0.3830 ha        1 45B      0.194000
     45 H11         5.3460   -1.5160    0.9000 ha        1 45B      0.194000
     46 H10         6.5210    0.4140   -0.1840 ha        1 45B      0.194000
     47 H9          6.0380    1.0160   -2.5420 ha        1 45B      0.178000
     48 HN1         3.8470   -1.0740   -4.6610 hn        1 45B      0.477300
     49 H4          1.5760    2.5530   -3.5590 ha        1 45B      0.193000
     50 H3         -0.7380    2.6880   -4.4220 ha        1 45B      0.187500
     51 H14         2.4170   -0.7350   -6.3020 ha        1 45B      0.193000
     52 H15         0.1270   -0.6330   -7.1550 ha        1 45B      0.187500
     53 HN5        -1.7290    0.8440   -7.4660 hn        1 45B      0.497300
     54 H17        -4.5660   -2.4700   -5.5210 h4        1 45B      0.128100
     55 HN8        -5.9190    0.8990   -2.7230 hn        1 45B      0.493300
     56 H30        -8.0230    0.1180   -3.6280 ha        1 45B      0.157500
     57 H29       -10.1240    0.9450   -4.6210 ha        1 45B      0.194500
     58 H19        -8.0970    4.5030   -6.0630 ha        1 45B      0.194500
     59 H18        -5.9720    3.7150   -5.0650 ha        1 45B      0.157500
     60 H21       -10.4910    3.2780   -7.0710 hc        1 45B      0.098700
     61 H21A      -11.3790    2.6220   -5.6240 hc        1 45B      0.098700
     62 H28       -11.4150    7.1650   -5.0480 h1        1 45B      0.062200
     63 H28A      -12.7960    6.4330   -4.1000 h1        1 45B      0.062200
     64 H27       -13.7000    8.2670   -5.3880 h1        1 45B      0.076200
     65 H27A      -12.8340    7.7540   -6.9180 h1        1 45B      0.076200
     66 H24       -13.7010    5.5960   -8.0510 h1        1 45B      0.076200
     67 H24A      -15.0830    4.7360   -7.2260 h1        1 45B      0.076200
     68 H23       -13.7210    3.9960   -5.3910 h1        1 45B      0.062200
     69 H23A      -12.7830    3.7090   -6.9330 h1        1 45B      0.062200
     70 H26       -17.0250    6.0050   -7.4160 hc        1 45B      0.074700
     71 H26A      -17.8810    6.5140   -5.8960 hc        1 45B      0.074700
     72 H26B      -16.8770    5.0010   -5.9010 hc        1 45B      0.074700
     73 H121        5.2630   -0.1660   -4.6680 hn        1 45B      0.477300
     74 H52        -1.9680    2.2450   -6.5640 hn        1 45B      0.497300
     75 H82        -5.1580    2.3230   -3.2170 hn        1 45B      0.493300
@<TRIPOS>BOND
     1    1    2 1   
     2    2    3 ar  
     3    2    7 ar  
     4    3    4 ar  
     5    3   44 1   
     6    4    5 ar  
     7    4   45 1   
     8    5    6 ar  
     9    5   46 1   
    10    6    7 ar  
    11    6   47 1   
    12    7    8 1   
    13    8    9 1   
    14    8   48 1   
    15    8   73 1   
    16    9   10 2   
    17    9   11 1   
    18   11   12 ar  
    19   11   14 ar  
    20   12   13 ar  
    21   12   49 1   
    22   13   16 ar  
    23   13   50 1   
    24   14   15 ar  
    25   14   51 1   
    26   15   16 ar  
    27   15   52 1   
    28   16   17 1   
    29   17   18 1   
    30   17   53 1   
    31   17   74 1   
    32   18   19 ar  
    33   18   20 ar  
    34   19   24 ar  
    35   20   21 1   
    36   20   22 ar  
    37   22   23 ar  
    38   22   54 1   
    39   23   24 ar  
    40   24   25 1   
    41   25   26 1   
    42   25   55 1   
    43   25   75 1   
    44   26   27 ar  
    45   26   31 ar  
    46   27   28 ar  
    47   27   56 1   
    48   28   29 ar  
    49   28   57 1   
    50   29   30 ar  
    51   29   32 1   
    52   30   31 ar  
    53   30   58 1   
    54   31   59 1   
    55   32   33 1   
    56   32   60 1   
    57   32   61 1   
    58   33   34 2   
    59   33   35 1   
    60   35   36 1   
    61   35   40 1   
    62   36   37 1   
    63   36   62 1   
    64   36   63 1   
    65   37   38 1   
    66   37   64 1   
    67   37   65 1   
    68   38   39 1   
    69   38   41 1   
    70   39   40 1   
    71   39   66 1   
    72   39   67 1   
    73   40   68 1   
    74   40   69 1   
    75   41   42 2   
    76   41   43 1   
    77   43   70 1   
    78   43   71 1   
    79   43   72 1   
@<TRIPOS>SUBSTRUCTURE
     1 45B         1 TEMP              0 ****  ****    0 ROOT
