@<TRIPOS>MOLECULE
45B
   72    76     1     0     0
SMALL
bcc


@<TRIPOS>ATOM
      1 CL1         0.6020    1.2010   -0.0380 cl        1 45B     -0.107400
      2 C13         2.1190    0.4250    0.0760 ca        1 45B     -0.040600
      3 C12         2.7080    0.3140    1.3350 ca        1 45B     -0.097000
      4 C11         3.9440   -0.3090    1.4770 ca        1 45B     -0.152000
      5 C10         4.5880   -0.8240    0.3530 ca        1 45B     -0.102000
      6 C9          4.0130   -0.7250   -0.9090 ca        1 45B     -0.150000
      7 C8          2.7610   -0.0930   -1.0820 ca        1 45B      0.082600
      8 N1          2.1290    0.0170   -2.3270 n         1 45B     -0.468100
      9 C7          2.6950   -0.2100   -3.5780 c         1 45B      0.686700
     10 O2          3.8780   -0.5630   -3.7370 o         1 45B     -0.584100
     11 C6          1.7920    0.0100   -4.7460 ca        1 45B     -0.166600
     12 C4          2.3300    0.6120   -5.8890 ca        1 45B     -0.071500
     13 C3          1.5350    0.8350   -7.0060 ca        1 45B     -0.154500
     14 C14         0.4560   -0.3960   -4.7430 ca        1 45B     -0.071500
     15 C15        -0.3490   -0.1930   -5.8610 ca        1 45B     -0.154500
     16 C2          0.1750    0.4400   -7.0070 ca        1 45B      0.170600
     17 N5         -0.5870    0.6100   -8.1790 nh        1 45B     -0.729300
     18 C1         -1.8670    1.1700   -8.2200 ca        1 45B      0.698200
     19 N6         -2.5710    1.4030   -7.0780 nb        1 45B     -0.792000
     20 C16        -2.4520    1.4550   -9.5110 ca        1 45B     -0.224700
     21 F4         -1.7700    1.2550  -10.6610 f         1 45B     -0.130900
     22 C17        -3.7720    1.9500   -9.5250 ca        1 45B      0.464200
     23 N4         -4.4860    2.1830   -8.4180 nb        1 45B     -0.738000
     24 C5         -3.8530    1.9180   -7.2100 ca        1 45B      0.899900
     25 N8         -4.5040    2.2360   -6.0040 nh        1 45B     -0.707300
     26 C          -5.9040    2.4280   -5.9310 ca        1 45B      0.132600
     27 C30        -6.6700    1.6380   -5.0450 ca        1 45B     -0.135000
     28 C29        -8.0340    1.8660   -4.9020 ca        1 45B     -0.098000
     29 C20        -8.6720    2.8700   -5.6380 ca        1 45B     -0.090300
     30 C19        -7.9140    3.6590   -6.5090 ca        1 45B     -0.098000
     31 C18        -6.5450    3.4520   -6.6560 ca        1 45B     -0.135000
     32 C21       -10.1430    3.0530   -5.5170 c3        1 45B     -0.096100
     33 C22       -10.5530    4.4720   -5.1570 c         1 45B      0.661100
     34 O1         -9.7760    5.4380   -5.2880 o         1 45B     -0.594100
     35 N         -11.8250    4.6830   -4.6260 n         1 45B     -0.474800
     36 C28       -12.2470    6.0190   -4.2610 c3        1 45B      0.065000
     37 C27       -13.4630    6.5310   -5.0660 c3        1 45B      0.066000
     38 N2        -14.5370    5.5670   -5.1670 n         1 45B     -0.472800
     39 C24       -14.1180    4.2410   -5.5370 c3        1 45B      0.066000
     40 C23       -12.8950    3.7240   -4.7330 c3        1 45B      0.065000
     41 C25       -15.7860    5.8450   -4.6180 c         1 45B      0.658100
     42 O3        -16.0180    6.9740   -4.1400 o         1 45B     -0.602100
     43 C26       -16.8710    4.7980   -4.6640 c3        1 45B     -0.170100
     44 H12         2.1920    0.7240    2.2170 ha        1 45B      0.147000
     45 H11         4.4070   -0.3930    2.4710 ha        1 45B      0.139000
     46 H10         5.5660   -1.3190    0.4590 ha        1 45B      0.139000
     47 H9          4.5490   -1.1420   -1.7780 ha        1 45B      0.177000
     48 HN1         1.2040    0.3910   -2.3150 hn        1 45B      0.329500
     49 H4          3.3930    0.9040   -5.8970 ha        1 45B      0.149500
     50 H3          1.9790    1.3170   -7.8910 ha        1 45B      0.149500
     51 H14         0.0250   -0.9040   -3.8660 ha        1 45B      0.149500
     52 H15        -1.3930   -0.5400   -5.8370 ha        1 45B      0.149500
     53 HN5        -0.0580    0.7450   -9.0180 hn        1 45B      0.447800
     54 H17        -4.2750    2.1690  -10.4860 h4        1 45B      0.043100
     55 HN8        -4.0970    1.8310   -5.1840 hn        1 45B      0.442800
     56 H30        -6.1960    0.8390   -4.4550 ha        1 45B      0.144500
     57 H29        -8.6120    1.2430   -4.2020 ha        1 45B      0.141500
     58 H19        -8.4020    4.4780   -7.0620 ha        1 45B      0.141500
     59 H18        -5.9740    4.0980   -7.3410 ha        1 45B      0.144500
     60 H21       -10.6220    2.8040   -6.5050 hc        1 45B      0.069700
     61 H21A      -10.5410    2.3370   -4.7470 hc        1 45B      0.069700
     62 H28       -12.5100    6.0050   -3.1650 h1        1 45B      0.064200
     63 H28A      -11.3980    6.7450   -4.4150 h1        1 45B      0.064200
     64 H27       -13.1320    6.7880   -6.1130 h1        1 45B      0.064700
     65 H27A      -13.8390    7.4710   -4.5710 h1        1 45B      0.064700
     66 H24       -13.8470    4.2580   -6.6330 h1        1 45B      0.064700
     67 H24A      -14.9500    3.4970   -5.3970 h1        1 45B      0.064700
     68 H23       -13.2330    3.4650   -3.6870 h1        1 45B      0.064200
     69 H23A      -12.5500    2.7780   -5.2330 h1        1 45B      0.064200
     70 H26       -16.6180    3.9460   -3.9870 hc        1 45B      0.066033
     71 H26A      -17.0180    4.4170   -5.7030 hc        1 45B      0.066033
     72 H26B      -17.8240    5.2640   -4.3120 hc        1 45B      0.066033
@<TRIPOS>BOND
     1    1    2 1   
     2    2    3 ar  
     3    2    7 ar  
     4    3    4 ar  
     5    3   44 1   
     6    4    5 ar  
     7    4   45 1   
     8    5    6 ar  
     9    5   46 1   
    10    6    7 ar  
    11    6   47 1   
    12    7    8 1   
    13    8    9 1   
    14    8   48 1   
    15    9   10 2   
    16    9   11 1   
    17   11   12 ar  
    18   11   14 ar  
    19   12   13 ar  
    20   12   49 1   
    21   13   16 ar  
    22   13   50 1   
    23   14   15 ar  
    24   14   51 1   
    25   15   16 ar  
    26   15   52 1   
    27   16   17 1   
    28   17   18 1   
    29   17   53 1   
    30   18   19 ar  
    31   18   20 ar  
    32   19   24 ar  
    33   20   21 1   
    34   20   22 ar  
    35   22   23 ar  
    36   22   54 1   
    37   23   24 ar  
    38   24   25 1   
    39   25   26 1   
    40   25   55 1   
    41   26   27 ar  
    42   26   31 ar  
    43   27   28 ar  
    44   27   56 1   
    45   28   29 ar  
    46   28   57 1   
    47   29   30 ar  
    48   29   32 1   
    49   30   31 ar  
    50   30   58 1   
    51   31   59 1   
    52   32   33 1   
    53   32   60 1   
    54   32   61 1   
    55   33   34 2   
    56   33   35 1   
    57   35   36 1   
    58   35   40 1   
    59   36   37 1   
    60   36   62 1   
    61   36   63 1   
    62   37   38 1   
    63   37   64 1   
    64   37   65 1   
    65   38   39 1   
    66   38   41 1   
    67   39   40 1   
    68   39   66 1   
    69   39   67 1   
    70   40   68 1   
    71   40   69 1   
    72   41   42 2   
    73   41   43 1   
    74   43   70 1   
    75   43   71 1   
    76   43   72 1   
@<TRIPOS>SUBSTRUCTURE
     1 45B         1 TEMP              0 ****  ****    0 ROOT
