@<TRIPOS>MOLECULE
45B
   72    68     1     0     0
SMALL
bcc


@<TRIPOS>ATOM
      1 CL1         9.0100   -4.2810    2.0690 cl        1 45B     -0.028000
      2 C13        10.0740   -4.8480    0.7980 c2        1 45B     -0.119000
      3 C12        10.9130   -5.9340    1.0270 c2        1 45B     -0.097000
      4 C11        11.8410   -6.3200    0.0540 c1        1 45B     -0.152000
      5 C10        11.9250   -5.6190   -1.1390 c1        1 45B     -0.126000
      6 C9         11.0840   -4.5300   -1.3690 c1        1 45B     -0.126000
      7 C8         10.1590   -4.1450   -0.4000 c1        1 45B      0.090000
      8 N1          9.2900   -3.0040   -0.6360 n         1 45B     -0.322000
      9 C7          8.0020   -3.1940   -1.2420 c2        1 45B      0.360000
     10 O2          7.6350   -4.3140   -1.5600 o         1 45B     -0.345000
     11 C6          7.0810   -1.9860   -1.4850 c2        1 45B     -0.146000
     12 C4          6.3570   -1.4360   -0.4260 c2        1 45B     -0.087000
     13 C3          5.5610   -0.3100   -0.6350 c1        1 45B     -0.129000
     14 C14         7.0080   -1.4140   -2.7440 c1        1 45B     -0.057000
     15 C15         6.2050   -0.2800   -2.9540 c1        1 45B     -0.181000
     16 C2          5.4870    0.2660   -1.9010 c1        1 45B      0.088000
     17 N5          4.6480    1.4460   -2.1220 n3        1 45B     -0.250000
     18 C1          3.2190    1.3160   -2.1390 c2        1 45B      0.176000
     19 N6          2.5200    1.4050   -0.9920 n2        1 45B     -0.265000
     20 C16         2.5680    1.0600   -3.3210 c1        1 45B     -0.128000
     21 F4          3.2640    1.0210   -4.4840 f         1 45B     -0.096000
     22 C17         1.2150    0.8980   -3.3300 c2        1 45B     -0.001000
     23 N4          0.5200    0.9870   -2.1860 n1        1 45B     -0.212000
     24 C5          1.1700    1.2420   -1.0050 c1        1 45B      0.179000
     25 N8          0.4080    1.3870    0.2210 n3        1 45B     -0.225000
     26 C          -1.0090    1.4670    0.1700 c2        1 45B      0.049000
     27 C30        -1.7730    0.3150    0.2890 c2        1 45B     -0.166000
     28 C29        -3.1580    0.4010    0.3210 c1        1 45B     -0.109000
     29 C20        -3.7780    1.6390    0.2330 c1        1 45B     -0.083000
     30 C19        -3.0140    2.7890    0.1150 c1        1 45B     -0.087000
     31 C18        -1.6280    2.7020    0.0830 c1        1 45B     -0.104000
     32 C21        -5.3170    1.7310    0.1970 c3        1 45B     -0.132000
     33 C22        -5.8650    1.7490    1.6350 c2        1 45B      0.305000
     34 O1         -5.0940    1.7700    2.5790 o         1 45B     -0.355000
     35 N          -7.2960    1.5720    1.8680 n         1 45B     -0.333000
     36 C28        -7.8610    1.4170    3.1630 c3        1 45B     -0.050500
     37 C27        -9.0050    2.3870    3.4040 c3        1 45B     -0.050000
     38 N2         -9.9730    2.3510    2.3440 n         1 45B     -0.330000
     39 C24        -9.4100    2.5060    1.0560 c3        1 45B     -0.050000
     40 C23        -8.2640    1.5350    0.8130 c3        1 45B     -0.050500
     41 C25       -11.3530    2.1800    2.5630 c2        1 45B      0.302000
     42 O3        -11.7740    2.0530    3.6920 o         1 45B     -0.363000
     43 C26       -12.3380    2.3030    1.3870 c3        1 45B     -0.238000
     44 H12        10.8540   -6.4250    1.8630 ha        1 45B      0.147000
     45 H11        12.4350   -7.0890    0.2160 ha        1 45B      0.139000
     46 H10        12.5770   -5.8900   -1.8240 ha        1 45B      0.158000
     47 H9         11.1430   -4.0370   -2.2090 ha        1 45B      0.158000
     48 HN1         9.5470   -2.1720   -0.3650 hn        1 45B      0.243000
     49 H4          6.4090   -1.8410    0.4660 ha        1 45B      0.142000
     50 H3          5.0540    0.0750    0.1070 ha        1 45B      0.162000
     51 H14         7.5150   -1.7990   -3.4860 ha        1 45B      0.157000
     52 H15         6.1530    0.1250   -3.8450 ha        1 45B      0.140000
     53 HN5         5.0370    2.2500   -2.3450 hn        1 45B      0.242000
     54 H17         0.7520    0.7160   -4.1680 h4        1 45B      0.180000
     55 HN8         0.8360    1.4290    1.0180 hn        1 45B      0.238000
     56 H30        -1.3330   -0.5630    0.3510 ha        1 45B      0.133000
     57 H29        -3.6950   -0.4080    0.4040 ha        1 45B      0.130000
     58 H19        -3.4450    3.6520    0.0540 ha        1 45B      0.153000
     59 H18        -1.0880    3.5160   -0.0000 ha        1 45B      0.157000
     60 H21        -5.6790    0.9570   -0.2800 hc        1 45B      0.109000
     61 H21A       -5.5840    2.5560   -0.2660 hc        1 45B      0.109000
     62 H28        -8.1960    0.5020    3.2570 h1        1 45B      0.103500
     63 H28A       -7.1610    1.5730    3.8390 h1        1 45B      0.103500
     64 H27        -9.4580    2.1490    4.2650 h1        1 45B      0.104000
     65 H27A       -8.6460    3.2900    3.4740 h1        1 45B      0.104000
     66 H24        -9.0750    3.4190    0.9660 h1        1 45B      0.104000
     67 H24A      -10.1150    2.3520    0.3770 h1        1 45B      0.104000
     68 H23        -8.6270    0.6240    0.7420 h1        1 45B      0.103500
     69 H23A       -7.8230    1.7690   -0.0340 h1        1 45B      0.103500
     70 H26       -12.3190    1.4790    0.8570 hc        1 45B      0.105333
     71 H26A      -13.2450    2.4490    1.7330 hc        1 45B      0.105333
     72 H26B      -12.0770    3.0630    0.8200 hc        1 45B      0.105333
@<TRIPOS>BOND
     1    1    2 1   
     2    2    3 1   
     3    2    7 1   
     4    3    4 1   
     5    3   44 1   
     6    4   45 1   
     7    5    6 1   
     8    5   46 1   
     9    6   47 1   
    10    7    8 1   
    11    8    9 1   
    12    8   48 1   
    13    9   10 1   
    14    9   11 1   
    15   11   12 1   
    16   11   14 1   
    17   12   13 1   
    18   12   49 1   
    19   13   50 1   
    20   14   51 1   
    21   15   16 1   
    22   15   52 1   
    23   16   17 1   
    24   17   18 1   
    25   17   53 1   
    26   18   19 1   
    27   18   20 1   
    28   19   24 1   
    29   20   22 1   
    30   22   23 1   
    31   22   54 1   
    32   24   25 1   
    33   25   26 1   
    34   25   55 1   
    35   26   27 1   
    36   26   31 1   
    37   27   28 1   
    38   27   56 1   
    39   28   57 1   
    40   29   30 1   
    41   29   32 1   
    42   30   58 1   
    43   31   59 1   
    44   32   33 1   
    45   32   60 1   
    46   32   61 1   
    47   33   34 1   
    48   33   35 1   
    49   35   36 1   
    50   35   40 1   
    51   36   37 1   
    52   36   62 1   
    53   36   63 1   
    54   37   38 1   
    55   37   64 1   
    56   37   65 1   
    57   38   39 1   
    58   38   41 1   
    59   39   40 1   
    60   39   66 1   
    61   39   67 1   
    62   40   68 1   
    63   40   69 1   
    64   41   42 1   
    65   41   43 1   
    66   43   70 1   
    67   43   71 1   
    68   43   72 1   
@<TRIPOS>SUBSTRUCTURE
     1 45B         1 TEMP              0 ****  ****    0 ROOT
