@<TRIPOS>MOLECULE
45B
   72    76     1     0     0
SMALL
bcc


@<TRIPOS>ATOM
      1 CL1         5.7650    3.9290   -0.4680 cl        1 45B     -0.107400
      2 C13         7.4440    3.7730   -0.2010 ca        1 45B     -0.040600
      3 C12         8.2200    4.9320   -0.2010 ca        1 45B     -0.097000
      4 C11         9.5930    4.8550    0.0120 ca        1 45B     -0.152000
      5 C10        10.1870    3.6130    0.2290 ca        1 45B     -0.102000
      6 C9          9.4270    2.4480    0.2360 ca        1 45B     -0.150000
      7 C8          8.0320    2.4980    0.0190 ca        1 45B      0.083600
      8 N1          7.2180    1.3570    0.0340 n         1 45B     -0.468100
      9 C7          7.6330    0.0300   -0.0050 c         1 45B      0.686700
     10 O2          8.8290   -0.3090   -0.0500 o         1 45B     -0.584100
     11 C6          6.5420   -0.9890   -0.0040 ca        1 45B     -0.166600
     12 C4          6.6970   -2.1200   -0.8130 ca        1 45B     -0.071500
     13 C3          5.7150   -3.1010   -0.8460 ca        1 45B     -0.154500
     14 C14         5.4050   -0.8650    0.7980 ca        1 45B     -0.071500
     15 C15         4.4200   -1.8470    0.7880 ca        1 45B     -0.154500
     16 C2          4.5530   -2.9770   -0.0470 ca        1 45B      0.170600
     17 N5          3.6090   -4.0220   -0.0420 nh        1 45B     -0.729300
     18 C1          2.2290   -3.8460   -0.1760 ca        1 45B      0.698200
     19 N6          1.6650   -2.6080   -0.1080 nb        1 45B     -0.792000
     20 C16         1.3990   -5.0180   -0.3440 ca        1 45B     -0.224700
     21 F4          1.9300   -6.2580   -0.4380 f         1 45B     -0.130900
     22 C17         0.0050   -4.8180   -0.4030 ca        1 45B      0.464200
     23 N4         -0.5730   -3.6140   -0.3330 nb        1 45B     -0.738000
     24 C5          0.2830   -2.5280   -0.2040 ca        1 45B      0.899900
     25 N8         -0.2450   -1.2240   -0.2280 nh        1 45B     -0.707300
     26 C          -1.6110   -0.9590    0.0300 ca        1 45B      0.133600
     27 C30        -1.9630   -0.0720    1.0730 ca        1 45B     -0.135000
     28 C29        -3.2950    0.2600    1.2900 ca        1 45B     -0.098000
     29 C20        -4.3080   -0.2820    0.4920 ca        1 45B     -0.090300
     30 C19        -3.9600   -1.1530   -0.5450 ca        1 45B     -0.098000
     31 C18        -2.6310   -1.4890   -0.7850 ca        1 45B     -0.135000
     32 C21        -5.7300    0.0380    0.7840 c3        1 45B     -0.096100
     33 C22        -6.4870    0.5940   -0.4120 c         1 45B      0.661100
     34 O1         -6.0660    0.4660   -1.5780 o         1 45B     -0.594100
     35 N          -7.6680    1.2990   -0.1820 n         1 45B     -0.474800
     36 C28        -8.4100    1.8540   -1.2960 c3        1 45B      0.065500
     37 C27        -9.8330    1.2720   -1.4490 c3        1 45B      0.066000
     38 N2        -10.5700    1.2110   -0.2050 n         1 45B     -0.471800
     39 C24        -9.8350    0.6510    0.8980 c3        1 45B      0.066000
     40 C23        -8.4030    1.2300    1.0540 c3        1 45B      0.065500
     41 C25       -11.7410    1.9480   -0.0430 c         1 45B      0.658100
     42 O3        -12.2220    2.5710   -1.0110 o         1 45B     -0.602100
     43 C26       -12.4530    1.9340    1.2860 c3        1 45B     -0.170100
     44 H12         7.7420    5.9090   -0.3730 ha        1 45B      0.147000
     45 H11        10.2020    5.7700    0.0080 ha        1 45B      0.139000
     46 H10        11.2730    3.5450    0.3990 ha        1 45B      0.139000
     47 H9          9.9280    1.4800    0.4100 ha        1 45B      0.177000
     48 HN1         6.2350    1.5220   -0.0310 hn        1 45B      0.329500
     49 H4          7.6100   -2.2280   -1.4230 ha        1 45B      0.149500
     50 H3          5.8560   -3.9790   -1.4950 ha        1 45B      0.149500
     51 H14         5.2830    0.0010    1.4690 ha        1 45B      0.149500
     52 H15         3.5440   -1.7320    1.4440 ha        1 45B      0.149500
     53 HN5         3.9410   -4.9010   -0.3870 hn        1 45B      0.447800
     54 H17        -0.6790   -5.6820   -0.5120 h4        1 45B      0.043100
     55 HN8         0.3820   -0.5060    0.0780 hn        1 45B      0.442800
     56 H30        -1.1880    0.3680    1.7180 ha        1 45B      0.144500
     57 H29        -3.5480    0.9570    2.1040 ha        1 45B      0.141500
     58 H19        -4.7480   -1.5530   -1.2040 ha        1 45B      0.141500
     59 H18        -2.3890   -2.1680   -1.6170 ha        1 45B      0.144500
     60 H21        -6.2550   -0.9040    1.1080 hc        1 45B      0.069700
     61 H21A       -5.7750    0.7710    1.6350 hc        1 45B      0.069700
     62 H28        -8.4820    2.9680   -1.1340 h1        1 45B      0.063950
     63 H28A       -7.8540    1.6690   -2.2580 h1        1 45B      0.063950
     64 H27       -10.3920    1.9090   -2.1930 h1        1 45B      0.064700
     65 H27A       -9.7630    0.2240   -1.8580 h1        1 45B      0.064700
     66 H24       -10.3720    0.8180    1.8720 h1        1 45B      0.064700
     67 H24A       -9.7560   -0.4630    0.7300 h1        1 45B      0.064700
     68 H23        -7.8730    0.5920    1.8120 h1        1 45B      0.063950
     69 H23A       -8.4800    2.2770    1.4700 h1        1 45B      0.063950
     70 H26       -11.8520    2.4760    2.0550 hc        1 45B      0.066033
     71 H26A      -13.4340    2.4570    1.1640 hc        1 45B      0.066033
     72 H26B      -12.6420    0.8890    1.6300 hc        1 45B      0.066033
@<TRIPOS>BOND
     1    1    2 1   
     2    2    3 ar  
     3    2    7 ar  
     4    3    4 ar  
     5    3   44 1   
     6    4    5 ar  
     7    4   45 1   
     8    5    6 ar  
     9    5   46 1   
    10    6    7 ar  
    11    6   47 1   
    12    7    8 1   
    13    8    9 1   
    14    8   48 1   
    15    9   10 2   
    16    9   11 1   
    17   11   12 ar  
    18   11   14 ar  
    19   12   13 ar  
    20   12   49 1   
    21   13   16 ar  
    22   13   50 1   
    23   14   15 ar  
    24   14   51 1   
    25   15   16 ar  
    26   15   52 1   
    27   16   17 1   
    28   17   18 1   
    29   17   53 1   
    30   18   19 ar  
    31   18   20 ar  
    32   19   24 ar  
    33   20   21 1   
    34   20   22 ar  
    35   22   23 ar  
    36   22   54 1   
    37   23   24 ar  
    38   24   25 1   
    39   25   26 1   
    40   25   55 1   
    41   26   27 ar  
    42   26   31 ar  
    43   27   28 ar  
    44   27   56 1   
    45   28   29 ar  
    46   28   57 1   
    47   29   30 ar  
    48   29   32 1   
    49   30   31 ar  
    50   30   58 1   
    51   31   59 1   
    52   32   33 1   
    53   32   60 1   
    54   32   61 1   
    55   33   34 2   
    56   33   35 1   
    57   35   36 1   
    58   35   40 1   
    59   36   37 1   
    60   36   62 1   
    61   36   63 1   
    62   37   38 1   
    63   37   64 1   
    64   37   65 1   
    65   38   39 1   
    66   38   41 1   
    67   39   40 1   
    68   39   66 1   
    69   39   67 1   
    70   40   68 1   
    71   40   69 1   
    72   41   42 2   
    73   41   43 1   
    74   43   70 1   
    75   43   71 1   
    76   43   72 1   
@<TRIPOS>SUBSTRUCTURE
     1 45B         1 TEMP              0 ****  ****    0 ROOT
