@<TRIPOS>MOLECULE
45C
   14    14     1     0     0
SMALL
bcc


@<TRIPOS>ATOM
      1 C1          1.8390   -0.5600   -0.2150 ca        1 45C      0.086100
      2 C2          1.7720    0.8480   -0.1070 ca        1 45C      0.086100
      3 C3          0.5300    1.4750    0.0310 ca        1 45C     -0.143500
      4 C4         -0.6350    0.7020    0.0620 ca        1 45C      0.018900
      5 C5         -0.5650   -0.6950   -0.0450 ca        1 45C      0.018900
      6 C6          0.6750   -1.3280   -0.1840 ca        1 45C     -0.143500
      7 O7          3.1010   -1.0990   -0.3490 oh        1 45C     -0.499100
      8 O8          2.8840    1.6510   -0.1320 oh        1 45C     -0.499100
      9 CL9        -2.1270    1.4910    0.2310 cl        1 45C     -0.063900
     10 CL10       -1.9650   -1.6510   -0.0110 cl        1 45C     -0.063900
     11 H3          0.4870    2.5720    0.1150 ha        1 45C      0.163500
     12 H6          0.7320   -2.4240   -0.2690 ha        1 45C      0.163500
     13 HO7         3.0100   -2.0600   -0.4120 ho        1 45C      0.437500
     14 HO8         3.6640    1.0820   -0.2320 ho        1 45C      0.437500
@<TRIPOS>BOND
     1    1    2 ar  
     2    1    6 ar  
     3    1    7 1   
     4    2    3 ar  
     5    2    8 1   
     6    3    4 ar  
     7    3   11 1   
     8    4    5 ar  
     9    4    9 1   
    10    5    6 ar  
    11    5   10 1   
    12    6   12 1   
    13    7   13 1   
    14    8   14 1   
@<TRIPOS>SUBSTRUCTURE
     1 45C         1 TEMP              0 ****  ****    0 ROOT
