@<TRIPOS>MOLECULE
45C
   14    11     1     0     0
SMALL
bcc


@<TRIPOS>ATOM
      1 C1         -0.6930    0.0000   -0.8770 c1        1 45C      0.068000
      2 C2          0.6930    0.0000   -0.8770 c2        1 45C      0.068000
      3 C3          1.3860    0.0000    0.3230 c1        1 45C     -0.179000
      4 C4          0.6930    0.0000    1.5240 c1        1 45C     -0.057000
      5 C5         -0.6930    0.0000    1.5240 c1        1 45C     -0.057000
      6 C6         -1.3860    0.0000    0.3230 c1        1 45C     -0.179000
      7 O7         -1.3960    0.0180   -2.0950 o         1 45C     -0.222000
      8 O8          1.3960   -0.0180   -2.0950 oh        1 45C     -0.222000
      9 CL9         1.5650    0.0030    3.0340 cl        1 45C      0.013000
     10 CL10       -1.5650   -0.0030    3.0340 cl        1 45C      0.013000
     11 H3          2.3620    0.0000    0.3230 ha        1 45C      0.156000
     12 H6         -2.3620    0.0000    0.3230 ha        1 45C      0.156000
     13 HO7        -1.7720   -0.7750   -2.2320 ho        1 45C      0.219000
     14 HO8         1.7720    0.7750   -2.2320 ho        1 45C      0.219000
@<TRIPOS>BOND
     1    1    2 1   
     2    1    6 1   
     3    2    3 1   
     4    2    8 1   
     5    3   11 1   
     6    4    5 1   
     7    4    9 1   
     8    5   10 1   
     9    6   12 1   
    10    7   13 1   
    11    8   14 1   
@<TRIPOS>SUBSTRUCTURE
     1 45C         1 TEMP              0 ****  ****    0 ROOT
