@<TRIPOS>MOLECULE
45E
   55    57     1     0     0
SMALL
bcc


@<TRIPOS>ATOM
      1 O17         0.2710   -0.3530   -0.0450 o         1 45E     -0.565100
      2 C16         1.4990   -0.1650   -0.0110 c         1 45E      0.651100
      3 C18         2.2390    0.0050    1.3130 c3        1 45E      0.058400
      4 O19         1.2700   -0.2520    2.3300 os        1 45E     -0.295900
      5 C20         1.7290   -0.1180    3.6300 ca        1 45E      0.123100
      6 C26         0.7470   -0.3500    4.6110 ca        1 45E     -0.148000
      7 C24         1.0910   -0.2490    5.9580 ca        1 45E     -0.045300
      8 C25         0.0770   -0.4860    7.0130 c3        1 45E     -0.056800
      9 C23         2.4060    0.0830    6.3190 ca        1 45E     -0.164000
     10 C22         3.3660    0.3100    5.3400 ca        1 45E     -0.093000
     11 C21         3.0400    0.2130    3.9850 ca        1 45E     -0.212000
     12 N13         2.2560   -0.1780   -1.1820 n         1 45E     -0.465800
     13 C12         1.5830   -0.2420   -2.4650 c3        1 45E      0.058500
     14 C11         1.7070    1.0580   -3.2960 c3        1 45E      0.059000
     15 C14         3.6040    0.3360   -1.2520 c3        1 45E      0.058500
     16 C15         3.7330    1.6340   -2.0870 c3        1 45E      0.059000
     17 N10         3.0570    1.5710   -3.3650 n         1 45E     -0.447800
     18 C8          3.8120    1.5440   -4.5350 c         1 45E      0.680700
     19 O9          5.0380    1.7670   -4.5050 o         1 45E     -0.596100
     20 C7          3.1130    1.3470   -5.8420 ca        1 45E     -0.112600
     21 C6          2.8670    2.4610   -6.6520 ca        1 45E     -0.114000
     22 C5          2.2750    2.2970   -7.9010 ca        1 45E     -0.109000
     23 C4          1.9240    1.0280   -8.3610 ca        1 45E     -0.178000
     24 C27         2.7580    0.0650   -6.2830 ca        1 45E      0.096100
     25 O28         2.8980   -0.9970   -5.4060 os        1 45E     -0.340900
     26 C29         3.8270   -1.9970   -5.8310 c3        1 45E      0.114700
     27 C3          2.1610   -0.0920   -7.5580 ca        1 45E      0.098100
     28 O2          1.8600   -1.3890   -7.9200 os        1 45E     -0.321900
     29 C1          1.1940   -1.5550   -9.1680 c3        1 45E      0.111700
     30 H1          3.0800   -0.7320    1.3990 h1        1 45E      0.061200
     31 H2          2.6190    1.0570    1.4080 h1        1 45E      0.061200
     32 H3         -0.2750   -0.6090    4.2980 ha        1 45E      0.156000
     33 H4          0.4180   -1.2990    7.7010 hc        1 45E      0.047367
     34 H5         -0.0740    0.4430    7.6170 hc        1 45E      0.047367
     35 H6         -0.9060   -0.7840    6.5730 hc        1 45E      0.047367
     36 H7          2.6720    0.1620    7.3830 ha        1 45E      0.133000
     37 H8          4.3950    0.5700    5.6290 ha        1 45E      0.131000
     38 H9          3.8130    0.3950    3.2270 ha        1 45E      0.131000
     39 H10         2.0430   -1.0900   -3.0500 h1        1 45E      0.070200
     40 H11         0.4880   -0.4580   -2.3130 h1        1 45E      0.070200
     41 H12         1.0650    1.8600   -2.8320 h1        1 45E      0.069200
     42 H13         1.3130    0.8370   -4.3260 h1        1 45E      0.069200
     43 H14         4.2450   -0.4640   -1.7250 h1        1 45E      0.070200
     44 H15         4.0160    0.5480   -0.2290 h1        1 45E      0.070200
     45 H16         3.2820    2.4910   -1.5090 h1        1 45E      0.069200
     46 H17         4.8290    1.8430   -2.2400 h1        1 45E      0.069200
     47 H18         3.1540    3.4620   -6.2990 ha        1 45E      0.151000
     48 H19         2.0850    3.1750   -8.5360 ha        1 45E      0.141000
     49 H20         1.4600    0.9190   -9.3510 ha        1 45E      0.143000
     50 H21         3.4850   -2.4680   -6.7840 h1        1 45E      0.049033
     51 H22         4.8440   -1.5540   -5.9530 h1        1 45E      0.049033
     52 H23         3.8100   -2.7370   -4.9920 h1        1 45E      0.049033
     53 H24         1.8460   -1.2130  -10.0090 h1        1 45E      0.047700
     54 H25         0.2220   -1.0050   -9.1750 h1        1 45E      0.047700
     55 H26         1.0240   -2.6600   -9.2240 h1        1 45E      0.047700
@<TRIPOS>BOND
     1    1    2 2   
     2    2    3 1   
     3    2   12 1   
     4    3    4 1   
     5    3   30 1   
     6    3   31 1   
     7    4    5 1   
     8    5    6 ar  
     9    5   11 ar  
    10    6    7 ar  
    11    6   32 1   
    12    7    8 1   
    13    7    9 ar  
    14    8   33 1   
    15    8   34 1   
    16    8   35 1   
    17    9   10 ar  
    18    9   36 1   
    19   10   11 ar  
    20   10   37 1   
    21   11   38 1   
    22   12   13 1   
    23   12   15 1   
    24   13   14 1   
    25   13   39 1   
    26   13   40 1   
    27   14   17 1   
    28   14   41 1   
    29   14   42 1   
    30   15   16 1   
    31   15   43 1   
    32   15   44 1   
    33   16   17 1   
    34   16   45 1   
    35   16   46 1   
    36   17   18 1   
    37   18   19 2   
    38   18   20 1   
    39   20   21 ar  
    40   20   24 ar  
    41   21   22 ar  
    42   21   47 1   
    43   22   23 ar  
    44   22   48 1   
    45   23   27 ar  
    46   23   49 1   
    47   24   25 1   
    48   24   27 ar  
    49   25   26 1   
    50   26   50 1   
    51   26   51 1   
    52   26   52 1   
    53   27   28 1   
    54   28   29 1   
    55   29   53 1   
    56   29   54 1   
    57   29   55 1   
@<TRIPOS>SUBSTRUCTURE
     1 45E         1 TEMP              0 ****  ****    0 ROOT
