@<TRIPOS>MOLECULE
45E
   55    57     1     0     0
SMALL
bcc


@<TRIPOS>ATOM
      1 O17         0.2650   -0.3390   -0.0490 o         1 45E     -0.565100
      2 C16         1.4960   -0.1690   -0.0130 c         1 45E      0.651100
      3 C18         2.2370   -0.0190    1.3120 c3        1 45E      0.058400
      4 O19         1.2650   -0.2700    2.3270 os        1 45E     -0.295900
      5 C20         1.7250   -0.1450    3.6280 ca        1 45E      0.123100
      6 C26         0.7380   -0.3610    4.6080 ca        1 45E     -0.149000
      7 C24         1.0810   -0.2670    5.9560 ca        1 45E     -0.045300
      8 C25         0.0630   -0.4990    7.0070 c3        1 45E     -0.056800
      9 C23         2.4000    0.0430    6.3190 ca        1 45E     -0.164000
     10 C22         3.3660    0.2550    5.3410 ca        1 45E     -0.093000
     11 C21         3.0410    0.1630    3.9860 ca        1 45E     -0.212000
     12 N13         2.2520   -0.1850   -1.1840 n         1 45E     -0.465800
     13 C12         1.5790   -0.2300   -2.4670 c3        1 45E      0.058500
     14 C11         1.7220    1.0730   -3.2890 c3        1 45E      0.059000
     15 C14         3.6070    0.3090   -1.2500 c3        1 45E      0.058500
     16 C15         3.7560    1.6110   -2.0760 c3        1 45E      0.059000
     17 N10         3.0790    1.5670   -3.3550 n         1 45E     -0.447800
     18 C8          3.8330    1.5370   -4.5250 c         1 45E      0.680700
     19 O9          5.0630    1.7420   -4.4940 o         1 45E     -0.596100
     20 C7          3.1320    1.3600   -5.8330 ca        1 45E     -0.112600
     21 C6          2.9020    2.4830   -6.6350 ca        1 45E     -0.114000
     22 C5          2.3080    2.3360   -7.8850 ca        1 45E     -0.109000
     23 C4          1.9380    1.0760   -8.3540 ca        1 45E     -0.178000
     24 C27         2.7580    0.0860   -6.2830 ca        1 45E      0.096100
     25 O28         2.8820   -0.9840   -5.4140 os        1 45E     -0.340900
     26 C29         3.7960   -1.9950   -5.8460 c3        1 45E      0.114700
     27 C3          2.1590   -0.0530   -7.5590 ca        1 45E      0.098100
     28 O2          1.8380   -1.3430   -7.9310 os        1 45E     -0.321900
     29 C1          1.1700   -1.4890   -9.1800 c3        1 45E      0.111700
     30 H1          3.0690   -0.7690    1.3930 h1        1 45E      0.061200
     31 H2          2.6340    1.0260    1.4150 h1        1 45E      0.061200
     32 H3         -0.2880   -0.6010    4.2930 ha        1 45E      0.156000
     33 H4         -0.9670   -0.5400    6.5740 hc        1 45E      0.047033
     34 H5          0.2650   -1.4700    7.5260 hc        1 45E      0.047033
     35 H6          0.0950    0.3180    7.7690 hc        1 45E      0.047033
     36 H7          2.6660    0.1180    7.3830 ha        1 45E      0.133000
     37 H8          4.3990    0.4970    5.6320 ha        1 45E      0.131000
     38 H9          3.8170    0.3330    3.2290 ha        1 45E      0.131000
     39 H10         2.0260   -1.0810   -3.0580 h1        1 45E      0.070200
     40 H11         0.4810   -0.4320   -2.3170 h1        1 45E      0.070200
     41 H12         1.0910    1.8810   -2.8190 h1        1 45E      0.069200
     42 H13         1.3250    0.8650   -4.3210 h1        1 45E      0.069200
     43 H14         4.0230    0.5090   -0.2260 h1        1 45E      0.070200
     44 H15         4.2370   -0.4970   -1.7290 h1        1 45E      0.070200
     45 H16         3.3180    2.4700   -1.4930 h1        1 45E      0.069200
     46 H17         4.8550    1.8040   -2.2280 h1        1 45E      0.069200
     47 H18         3.2040    3.4780   -6.2750 ha        1 45E      0.151000
     48 H19         2.1310    3.2220   -8.5140 ha        1 45E      0.141000
     49 H20         1.4720    0.9810   -9.3450 ha        1 45E      0.143000
     50 H21         4.8200   -1.5660   -5.9650 h1        1 45E      0.049033
     51 H22         3.4480   -2.4540   -6.8030 h1        1 45E      0.049033
     52 H23         3.7680   -2.7400   -5.0130 h1        1 45E      0.049033
     53 H24         1.8250   -1.1510  -10.0190 h1        1 45E      0.047700
     54 H25         0.9830   -2.5910   -9.2430 h1        1 45E      0.047700
     55 H26         0.2060   -0.9250   -9.1810 h1        1 45E      0.047700
@<TRIPOS>BOND
     1    1    2 2   
     2    2    3 1   
     3    2   12 1   
     4    3    4 1   
     5    3   30 1   
     6    3   31 1   
     7    4    5 1   
     8    5    6 ar  
     9    5   11 ar  
    10    6    7 ar  
    11    6   32 1   
    12    7    8 1   
    13    7    9 ar  
    14    8   33 1   
    15    8   34 1   
    16    8   35 1   
    17    9   10 ar  
    18    9   36 1   
    19   10   11 ar  
    20   10   37 1   
    21   11   38 1   
    22   12   13 1   
    23   12   15 1   
    24   13   14 1   
    25   13   39 1   
    26   13   40 1   
    27   14   17 1   
    28   14   41 1   
    29   14   42 1   
    30   15   16 1   
    31   15   43 1   
    32   15   44 1   
    33   16   17 1   
    34   16   45 1   
    35   16   46 1   
    36   17   18 1   
    37   18   19 2   
    38   18   20 1   
    39   20   21 ar  
    40   20   24 ar  
    41   21   22 ar  
    42   21   47 1   
    43   22   23 ar  
    44   22   48 1   
    45   23   27 ar  
    46   23   49 1   
    47   24   25 1   
    48   24   27 ar  
    49   25   26 1   
    50   26   50 1   
    51   26   51 1   
    52   26   52 1   
    53   27   28 1   
    54   28   29 1   
    55   29   53 1   
    56   29   54 1   
    57   29   55 1   
@<TRIPOS>SUBSTRUCTURE
     1 45E         1 TEMP              0 ****  ****    0 ROOT
