@<TRIPOS>MOLECULE
45F
   22    21     1     0     0
SMALL
bcc


@<TRIPOS>ATOM
      1 CB         -0.1030    0.5910    0.0840 c3        1 45F     -0.142300
      2 CD          0.7300    0.0280    2.4100 c3        1 45F      0.141800
      3 C           1.9860    1.0470   -1.2830 c         1 45F      0.828600
      4 O           2.8780    1.4970   -0.4880 o         1 45F     -0.838300
      5 CA          1.0590    0.0950   -0.6400 c1        1 45F     -0.094100
      6 CG         -0.3370   -0.2570    1.3320 c3        1 45F      0.111100
      7 N           2.1040   -0.0450    1.9950 n8        1 45F     -0.921800
      8 O48        -1.6420    0.1020    1.8110 os        1 45F     -0.420600
      9 C49        -2.0700   -0.7070    2.9040 c3        1 45F      0.205500
     10 C50        -3.5080   -0.6500    2.9960 c1        1 45F     -0.117100
     11 C51        -4.6990   -0.6140    3.0890 c1        1 45F     -0.173500
     12 HB3        -0.9800    0.4820   -0.6170 hc        1 45F      0.071200
     13 HB2        -0.0470    1.6730    0.3850 hc        1 45F      0.071200
     14 HD2         0.5280    1.0490    2.8390 h1        1 45F      0.031200
     15 HD3         0.5820   -0.7250    3.2370 h1        1 45F      0.031200
     16 HA          2.2510   -0.8410    1.4000 hn        1 45F      0.380800
     17 HG2        -0.3300   -1.3490    1.0600 h1        1 45F      0.047700
     18 H49        -1.7390   -1.7750    2.7620 h1        1 45F      0.044200
     19 H50        -1.6090   -0.3040    3.8510 h1        1 45F      0.044200
     20 H51        -5.7540   -0.5820    3.1720 ha        1 45F      0.155500
     21 H           2.3790    0.7760    1.4750 hn        1 45F      0.380800
     22 OXT         1.9110    1.3360   -2.5100 o         1 45F     -0.838300
@<TRIPOS>BOND
     1    1    5 1   
     2    1    6 1   
     3    1   12 1   
     4    1   13 1   
     5    2    6 1   
     6    2    7 1   
     7    2   14 1   
     8    2   15 1   
     9    3    4 1   
    10    3    5 3   
    11    3   22 1   
    12    6    8 1   
    13    6   17 1   
    14    7   16 1   
    15    7   21 1   
    16    8    9 1   
    17    9   10 1   
    18    9   18 1   
    19    9   19 1   
    20   10   11 3   
    21   11   20 1   
@<TRIPOS>SUBSTRUCTURE
     1 45F         1 TEMP              0 ****  ****    0 ROOT
