@<TRIPOS>MOLECULE
45F
   22    21     1     0     0
SMALL
bcc


@<TRIPOS>ATOM
      1 CB         -0.1100    0.3440    0.0690 c3        1 45F     -0.142300
      2 CD          0.7020   -0.0750    2.4330 c3        1 45F      0.141800
      3 C           1.9920    0.7220   -1.3030 c         1 45F      0.828600
      4 O           2.8750    1.2220   -0.5270 o         1 45F     -0.838300
      5 CA          1.0610   -0.1920   -0.6120 c1        1 45F     -0.094100
      6 CG         -0.3540   -0.4280    1.3640 c3        1 45F      0.111100
      7 N           2.0790   -0.1700    2.0370 n3        1 45F     -0.921800
      8 O48        -1.6650   -0.0430    1.8070 os        1 45F     -0.420600
      9 C49        -2.1030   -0.7860    2.9430 c3        1 45F      0.205500
     10 C50        -3.5410   -0.7270    3.0170 c1        1 45F     -0.117100
     11 C51        -4.7340   -0.6870    3.0970 c1        1 45F     -0.173500
     12 HB3        -0.9800    0.1910   -0.6330 hc        1 45F      0.071200
     13 HB2        -0.0590    1.4420    0.3050 hc        1 45F      0.071200
     14 HD2         0.4930    0.9690    2.7980 h1        1 45F      0.031200
     15 HD3         0.5460   -0.7780    3.3030 h1        1 45F      0.031200
     16 HA          2.3570    0.6200    1.4700 hn        1 45F      0.380800
     17 HG2        -0.3420   -1.5340    1.1590 h1        1 45F      0.047700
     18 H49        -1.7690   -1.8600    2.8680 h1        1 45F      0.044200
     19 H50        -1.6510   -0.3270    3.8680 h1        1 45F      0.044200
     20 H51        -5.7890   -0.6520    3.1670 ha        1 45F      0.155500
     21 H           2.2330   -0.9990    1.4920 hn        1 45F      0.380800
     22 OXT         1.9290    0.9350   -2.5450 o         1 45F     -0.838300
@<TRIPOS>BOND
     1    1    5 1   
     2    1    6 1   
     3    1   12 1   
     4    1   13 1   
     5    2    6 1   
     6    2    7 1   
     7    2   14 1   
     8    2   15 1   
     9    3    4 1   
    10    3    5 3   
    11    3   22 1   
    12    6    8 1   
    13    6   17 1   
    14    7   16 1   
    15    7   21 1   
    16    8    9 1   
    17    9   10 1   
    18    9   18 1   
    19    9   19 1   
    20   10   11 3   
    21   11   20 1   
@<TRIPOS>SUBSTRUCTURE
     1 45F         1 TEMP              0 ****  ****    0 ROOT
