@<TRIPOS>MOLECULE
45I
   42    43     1     0     0
SMALL
bcc


@<TRIPOS>ATOM
      1 O18         1.1890    0.6640   -0.9590 os        1 45I     -0.502800
      2 C17         2.3030    0.0620   -0.4630 c         1 45I      0.750200
      3 O17         2.4290   -0.0610    0.7420 o         1 45I     -0.468500
      4 C10         3.1970   -0.3560   -1.5850 ca        1 45I      0.014400
      5 C9          4.4190   -1.0040   -1.4680 ca        1 45I     -0.098000
      6 C8          5.1060   -1.3290   -2.6380 ca        1 45I      0.047000
      7 C7          4.5840   -1.0180   -3.9130 ca        1 45I     -0.548500
      8 S1          5.4180   -1.3440   -5.2490 sy        1 45I      1.488200
      9 O6          6.7230   -1.7240   -5.0380 o         1 45I     -0.557300
     10 N7          4.6370   -3.0540   -5.6290 n4        1 45I     -0.791500
     11 O5          5.0140   -0.6540   -6.3690 o         1 45I     -0.557300
     12 C12         3.3440   -0.3340   -3.9820 ca        1 45I      0.117000
     13 C11         2.6480   -0.0120   -2.8370 ca        1 45I     -0.339500
     14 S13         1.0970    0.8050   -2.6770 sy        1 45I      1.656800
     15 O15         1.3060    2.1020   -3.0400 o         1 45I     -0.588800
     16 O14         0.1760   -0.0830   -3.1570 o         1 45I     -0.588800
     17 N16        -1.1740    1.8840   -1.7310 n3        1 45I     -0.977800
     18 C19        -1.5190    3.1540   -2.3340 c3        1 45I      0.141800
     19 C20        -2.6780    3.9080   -1.6770 c3        1 45I     -0.066100
     20 C21        -2.9300    5.1950   -2.3780 ca        1 45I     -0.089300
     21 C26        -4.0510    5.3460   -3.2030 ca        1 45I     -0.125000
     22 C25        -4.2890    6.5590   -3.8480 ca        1 45I     -0.125000
     23 C24        -3.4110    7.6290   -3.6750 ca        1 45I     -0.123000
     24 C23        -2.2940    7.4840   -2.8520 ca        1 45I     -0.125000
     25 C22        -2.0540    6.2730   -2.2060 ca        1 45I     -0.125000
     26 H9          4.8370   -1.2480   -0.4750 ha        1 45I      0.201000
     27 H8          6.0910   -1.8300   -2.5620 ha        1 45I      0.179000
     28 H12         2.9450   -0.0470   -4.9760 ha        1 45I      0.175000
     29 H7A         4.2030   -3.0480   -6.5520 hn        1 45I      0.460133
     30 H7B         3.9260   -3.3240   -4.9550 hn        1 45I      0.460133
     31 H16        -1.9100    1.2150   -1.8600 hn        1 45I      0.369800
     32 H191       -1.7740    2.9690   -3.4160 h1        1 45I      0.066700
     33 H192       -0.5970    3.8040   -2.3080 h1        1 45I      0.066700
     34 H201       -2.4330    4.1140   -0.5990 hc        1 45I      0.051700
     35 H202       -3.6030    3.2720   -1.6940 hc        1 45I      0.051700
     36 H26        -4.7500    4.5080   -3.3390 ha        1 45I      0.130000
     37 H22        -1.1750    6.1630   -1.5540 ha        1 45I      0.130000
     38 H25        -5.1740    6.6720   -4.4920 ha        1 45I      0.136500
     39 H24        -3.6020    8.5870   -4.1820 ha        1 45I      0.138000
     40 H23        -1.6020    8.3280   -2.7100 ha        1 45I      0.136500
     41 H73         5.3540   -3.7790   -5.6320 hn        1 45I      0.460133
     42 H162       -1.0100    1.9900   -0.7460 hn        1 45I      0.369800
@<TRIPOS>BOND
     1    1    2 1   
     2    1   14 1   
     3    2    3 2   
     4    2    4 1   
     5    4    5 ar  
     6    4   13 ar  
     7    5    6 ar  
     8    5   26 1   
     9    6    7 ar  
    10    6   27 1   
    11    7    8 1   
    12    7   12 ar  
    13    8    9 2   
    14    8   10 1   
    15    8   11 2   
    16   10   29 1   
    17   10   30 1   
    18   10   41 1   
    19   12   13 ar  
    20   12   28 1   
    21   13   14 1   
    22   14   15 2   
    23   14   16 2   
    24   17   18 1   
    25   17   31 1   
    26   17   42 1   
    27   18   19 1   
    28   18   32 1   
    29   18   33 1   
    30   19   20 1   
    31   19   34 1   
    32   19   35 1   
    33   20   21 ar  
    34   20   25 ar  
    35   21   22 ar  
    36   21   36 1   
    37   22   23 ar  
    38   22   38 1   
    39   23   24 ar  
    40   23   39 1   
    41   24   25 ar  
    42   24   40 1   
    43   25   37 1   
@<TRIPOS>SUBSTRUCTURE
     1 45I         1 TEMP              0 ****  ****    0 ROOT
