@<TRIPOS>MOLECULE
45I
   42    43     1     0     0
SMALL
bcc


@<TRIPOS>ATOM
      1 O18         1.2850    0.7700   -0.9250 os        1 45I     -0.502800
      2 C17         2.4260    0.2090   -0.4450 c         1 45I      0.750200
      3 O17         2.6020    0.1470    0.7580 o         1 45I     -0.468500
      4 C10         3.2820   -0.2530   -1.5800 ca        1 45I      0.014400
      5 C9          4.5180   -0.8770   -1.4810 ca        1 45I     -0.098000
      6 C8          5.1620   -1.2510   -2.6590 ca        1 45I      0.047000
      7 C7          4.5870   -1.0100   -3.9260 ca        1 45I     -0.548500
      8 S1          5.3720   -1.3910   -5.2770 sy        1 45I      1.488200
      9 O6          6.6910   -1.7430   -5.1000 o         1 45I     -0.557300
     10 N7          4.6030   -3.1280   -5.5410 nz        1 45I     -0.791500
     11 O5          4.9140   -0.7630   -6.4130 o         1 45I     -0.557300
     12 C12         3.3340   -0.3480   -3.9800 ca        1 45I      0.117000
     13 C11         2.6790    0.0220   -2.8240 ca        1 45I     -0.339500
     14 S13         1.1230    0.8250   -2.6430 sy        1 45I      1.656800
     15 O15         1.2980    2.1040   -3.0780 o         1 45I     -0.588800
     16 O14         0.1970   -0.0980   -3.0420 o         1 45I     -0.588800
     17 N16        -1.1250    1.9190   -1.6610 n8        1 45I     -0.977800
     18 C19        -1.5120    3.1530   -2.3100 c3        1 45I      0.141800
     19 C20        -2.6560    3.9240   -1.6450 c3        1 45I     -0.066100
     20 C21        -2.9550    5.1720   -2.3960 ca        1 45I     -0.089300
     21 C26        -4.1070    5.2680   -3.1840 ca        1 45I     -0.125000
     22 C25        -4.3880    6.4460   -3.8760 ca        1 45I     -0.125000
     23 C24        -3.5210    7.5340   -3.7880 ca        1 45I     -0.123000
     24 C23        -2.3710    7.4440   -3.0030 ca        1 45I     -0.125000
     25 C22        -2.0890    6.2690   -2.3090 ca        1 45I     -0.125000
     26 H9          4.9780   -1.0660   -0.4940 ha        1 45I      0.201000
     27 H8          6.1580   -1.7340   -2.5990 ha        1 45I      0.179000
     28 H12         2.8920   -0.1160   -4.9700 ha        1 45I      0.175000
     29 H7A         3.9240   -3.3740   -4.8270 hn        1 45I      0.460133
     30 H7B         4.1330   -3.1730   -6.4450 hn        1 45I      0.460133
     31 H16        -1.8560    1.2350   -1.7280 hn        1 45I      0.369800
     32 H191       -1.8060    2.9130   -3.3710 h1        1 45I      0.066700
     33 H192       -0.6000    3.8170   -2.3510 h1        1 45I      0.066700
     34 H201       -2.3740    4.1840   -0.5890 hc        1 45I      0.051700
     35 H202       -3.5710    3.2750   -1.5960 hc        1 45I      0.051700
     36 H26        -4.7980    4.4150   -3.2540 ha        1 45I      0.130000
     37 H22        -1.1840    6.2020   -1.6870 ha        1 45I      0.130000
     38 H25        -5.2980    6.5160   -4.4910 ha        1 45I      0.136500
     39 H24        -3.7450    8.4630   -4.3320 ha        1 45I      0.138000
     40 H23        -1.6880    8.3030   -2.9270 ha        1 45I      0.136500
     41 H73         5.3310   -3.8430   -5.5380 hn        1 45I      0.460133
     42 H162       -0.9240    2.0750   -0.6890 hn        1 45I      0.369800
@<TRIPOS>BOND
     1    1    2 1   
     2    1   14 1   
     3    2    3 2   
     4    2    4 1   
     5    4    5 ar  
     6    4   13 ar  
     7    5    6 ar  
     8    5   26 1   
     9    6    7 ar  
    10    6   27 1   
    11    7    8 1   
    12    7   12 ar  
    13    8    9 2   
    14    8   10 1   
    15    8   11 2   
    16   10   29 1   
    17   10   30 1   
    18   10   41 1   
    19   12   13 ar  
    20   12   28 1   
    21   13   14 1   
    22   14   15 2   
    23   14   16 2   
    24   17   18 1   
    25   17   31 1   
    26   17   42 1   
    27   18   19 1   
    28   18   32 1   
    29   18   33 1   
    30   19   20 1   
    31   19   34 1   
    32   19   35 1   
    33   20   21 ar  
    34   20   25 ar  
    35   21   22 ar  
    36   21   36 1   
    37   22   23 ar  
    38   22   38 1   
    39   23   24 ar  
    40   23   39 1   
    41   24   25 ar  
    42   24   40 1   
    43   25   37 1   
@<TRIPOS>SUBSTRUCTURE
     1 45I         1 TEMP              0 ****  ****    0 ROOT
