@<TRIPOS>MOLECULE
45K
   39    43     1     0     0
SMALL
bcc


@<TRIPOS>ATOM
      1 N1         -0.1840   -0.1570   -0.1100 nc        1 45K     -0.506100
      2 N2          2.3810    0.1020    6.3140 nh        1 45K     -0.622400
      3 N3         -1.8250    0.1530    5.2050 n         1 45K     -0.468100
      4 OAA        -0.4520    0.2050    7.1070 o         1 45K     -0.646500
      5 OAB         8.3270    0.7670   10.1180 o         1 45K     -0.642300
      6 OAC         8.3520   -1.5910    9.7370 o         1 45K     -0.642300
      7 CAD         1.8300    0.0470    5.0660 c2        1 45K      0.194000
      8 CAE         4.7380    0.2490    5.5910 ca        1 45K     -0.174000
      9 CAF         6.0950    0.2120    5.9140 ca        1 45K     -0.066000
     10 CAG        -2.1190   -0.0230    1.4680 ca        1 45K     -0.044000
     11 CAH        -2.5590    0.0550    2.7850 ca        1 45K     -0.161000
     12 CAI         1.1230   -0.1900   -0.0220 cd        1 45K      0.366100
     13 CAJ         4.1660   -0.1420    7.9320 ca        1 45K     -0.143000
     14 CAK         7.8810   -0.0620    7.7270 c3        1 45K     -0.250300
     15 CAL         6.0920   -0.3800    9.5820 c3        1 45K     -0.259300
     16 SAP         1.7920   -0.1290    1.5790 ss        1 45K     -0.092100
     17 CAQ         3.7560    0.0680    6.5860 ca        1 45K      0.164600
     18 CAR         6.4900    0.0020    7.2260 ca        1 45K     -0.098300
     19 CAS         5.5140   -0.1720    8.2340 ca        1 45K     -0.032300
     20 CAT        -0.5800    0.1520    5.8730 c         1 45K      0.722700
     21 CAU         0.4880    0.0720    4.8320 cc        1 45K     -0.263400
     22 CAV        -0.7460   -0.0770    1.1810 ca        1 45K      0.049400
     23 CAW        -1.6150    0.0790    3.8180 ca        1 45K      0.067600
     24 CAX         0.2330   -0.0510    2.2430 ca        1 45K     -0.035100
     25 CAY        -0.2010    0.0260    3.5500 ca        1 45K     -0.039800
     26 SAZ         7.8150   -0.3380    9.4330 s6        1 45K      1.303000
     27 H1         -2.7080    0.2000    5.6400 hn        1 45K      0.343500
     28 H2          2.5280   -0.0240    4.2040 h4        1 45K      0.160000
     29 H3          4.4580    0.4330    4.5430 ha        1 45K      0.141000
     30 H4          6.8480    0.3530    5.1240 ha        1 45K      0.145000
     31 H5         -2.8500   -0.0440    0.6440 ha        1 45K      0.155000
     32 H6         -3.6350    0.0960    3.0060 ha        1 45K      0.145000
     33 H7          1.7680   -0.2530   -0.9040 h5        1 45K      0.062800
     34 H8          3.4220   -0.2800    8.7330 ha        1 45K      0.152000
     35 H9          8.4430   -0.8780    7.1990 h1        1 45K      0.131700
     36 H10         8.4220    0.8910    7.4840 h1        1 45K      0.131700
     37 H11         5.7380   -1.3590   10.0040 h1        1 45K      0.135200
     38 H12         5.7190    0.4100   10.2860 h1        1 45K      0.135200
     39 H14         1.7610    0.1220    7.1040 hn        1 45K      0.476800
@<TRIPOS>BOND
     1    1   12 2   
     2    1   22 1   
     3    2    7 1   
     4    2   17 1   
     5    2   39 1   
     6    3   20 1   
     7    3   23 1   
     8    3   27 1   
     9    4   20 2   
    10    5   26 2   
    11    6   26 2   
    12    7   21 2   
    13    7   28 1   
    14    8    9 ar  
    15    8   17 ar  
    16    8   29 1   
    17    9   18 ar  
    18    9   30 1   
    19   10   11 ar  
    20   10   22 ar  
    21   10   31 1   
    22   11   23 ar  
    23   11   32 1   
    24   12   16 1   
    25   12   33 1   
    26   13   17 ar  
    27   13   19 ar  
    28   13   34 1   
    29   14   18 1   
    30   14   26 1   
    31   14   35 1   
    32   14   36 1   
    33   15   19 1   
    34   15   26 1   
    35   15   37 1   
    36   15   38 1   
    37   16   24 1   
    38   18   19 ar  
    39   20   21 1   
    40   21   25 1   
    41   22   24 ar  
    42   23   25 ar  
    43   24   25 ar  
@<TRIPOS>SUBSTRUCTURE
     1 45K         1 TEMP              0 ****  ****    0 ROOT
