@<TRIPOS>MOLECULE
45K
   40    44     1     0     0
SMALL
bcc


@<TRIPOS>ATOM
      1 N1          0.0750   -1.0390    0.1970 nc        1 45K     -0.479100
      2 N2          2.4510    1.7210    6.1950 n4        1 45K     -0.517200
      3 N3         -1.4720   -0.0830    5.4700 n         1 45K     -0.443100
      4 OAA        -0.1570    0.9350    7.1440 o         1 45K     -0.614500
      5 OAB         7.6430   -1.1450   10.1760 o         1 45K     -0.616800
      6 OAC         7.4390   -2.8310    8.4750 o         1 45K     -0.616800
      7 CAD         1.9380    1.1250    4.9660 c2        1 45K     -0.090000
      8 CAE         4.9190    1.7020    5.9110 ca        1 45K     -0.099000
      9 CAF         6.1790    1.2160    6.2650 ca        1 45K     -0.086000
     10 CAG        -1.7320   -1.2440    1.9080 ca        1 45K      0.019000
     11 CAH        -2.1480   -1.0180    3.2190 ca        1 45K     -0.160000
     12 CAI         1.2970   -0.5730    0.1400 cd        1 45K      0.392100
     13 CAJ         3.8720    0.2000    7.5460 ca        1 45K     -0.077000
     14 CAK         7.5400   -0.3800    7.7290 c3        1 45K     -0.277300
     15 CAL         5.4250   -1.3040    8.8980 c3        1 45K     -0.269300
     16 SAP         1.9240    0.1140    1.6160 ss        1 45K     -0.051100
     17 CAQ         3.7760    1.1960    6.5530 ca        1 45K     -0.047400
     18 CAR         6.2890    0.2360    7.2450 ca        1 45K     -0.000300
     19 CAS         5.1320   -0.2700    7.8840 ca        1 45K     -0.033300
     20 CAT        -0.3290    0.5250    5.9860 c         1 45K      0.698700
     21 CAU         0.7050    0.6010    4.8630 cc        1 45K     -0.014400
     22 CAV        -0.4460   -0.8590    1.4930 ca        1 45K      0.048400
     23 CAW        -1.2650   -0.4040    4.1100 ca        1 45K      0.106600
     24 CAX         0.4740   -0.2230    2.4080 ca        1 45K     -0.012100
     25 CAY         0.0580    0.0010    3.7100 ca        1 45K     -0.137800
     26 SAZ         7.1470   -1.5580    8.9460 s6        1 45K      1.316000
     27 H1         -2.3070   -0.2560    5.9730 hn        1 45K      0.374500
     28 H2          2.6650    1.1330    4.1300 hx        1 45K      0.205000
     29 H3          4.8420    2.4800    5.1340 ha        1 45K      0.157000
     30 H4          7.0800    1.6130    5.7680 ha        1 45K      0.175000
     31 H5         -2.4170   -1.7280    1.1890 ha        1 45K      0.182000
     32 H6         -3.1570   -1.3220    3.5380 ha        1 45K      0.170000
     33 H7          1.9030   -0.6050   -0.7740 h5        1 45K      0.086800
     34 H8          2.9800   -0.2040    8.0540 ha        1 45K      0.169000
     35 H9          8.0990   -0.8490    6.8730 h1        1 45K      0.151200
     36 H10         8.2290    0.4120    8.1360 h1        1 45K      0.151200
     37 H11         5.0350   -0.9860    9.9030 h1        1 45K      0.145200
     38 H12         4.8820   -2.2570    8.6520 h1        1 45K      0.145200
     39 H14         2.5280    2.7380    6.0480 hn        1 45K      0.475300
     40 H22         1.7960    1.5530    6.9850 hn        1 45K      0.475300
@<TRIPOS>BOND
     1    1   12 2   
     2    1   22 1   
     3    2    7 1   
     4    2   17 1   
     5    2   39 1   
     6    2   40 1   
     7    3   20 1   
     8    3   23 1   
     9    3   27 1   
    10    4   20 2   
    11    5   26 2   
    12    6   26 2   
    13    7   21 2   
    14    7   28 1   
    15    8    9 ar  
    16    8   17 ar  
    17    8   29 1   
    18    9   18 ar  
    19    9   30 1   
    20   10   11 ar  
    21   10   22 ar  
    22   10   31 1   
    23   11   23 ar  
    24   11   32 1   
    25   12   16 1   
    26   12   33 1   
    27   13   17 ar  
    28   13   19 ar  
    29   13   34 1   
    30   14   18 1   
    31   14   26 1   
    32   14   35 1   
    33   14   36 1   
    34   15   19 1   
    35   15   26 1   
    36   15   37 1   
    37   15   38 1   
    38   16   24 1   
    39   18   19 ar  
    40   20   21 1   
    41   21   25 1   
    42   22   24 ar  
    43   23   25 ar  
    44   24   25 ar  
@<TRIPOS>SUBSTRUCTURE
     1 45K         1 TEMP              0 ****  ****    0 ROOT
