@<TRIPOS>MOLECULE
45K
   39    43     1     0     0
SMALL
bcc


@<TRIPOS>ATOM
      1 N1         -0.1980   -0.1630   -0.1020 nc        1 45K     -0.506100
      2 N2          2.3840    0.1050    6.3150 nu        1 45K     -0.622400
      3 N3         -1.8250    0.1630    5.2160 ns        1 45K     -0.468100
      4 OAA        -0.4480    0.2160    7.1140 o         1 45K     -0.646500
      5 OAB         8.3410    0.7630   10.1030 o         1 45K     -0.642300
      6 OAC         8.3600   -1.5960    9.7250 o         1 45K     -0.642300
      7 CAD         1.8290    0.0490    5.0690 c2        1 45K      0.194000
      8 CAE         4.7390    0.2470    5.5850 ca        1 45K     -0.174000
      9 CAF         6.0970    0.2070    5.9050 ca        1 45K     -0.066000
     10 CAG        -2.1280   -0.0210    1.4800 ca        1 45K     -0.044000
     11 CAH        -2.5650    0.0600    2.7980 ca        1 45K     -0.161000
     12 CAI         1.1090   -0.1990   -0.0180 cd        1 45K      0.366100
     13 CAJ         4.1720   -0.1410    7.9290 ca        1 45K     -0.143000
     14 CAK         7.8860   -0.0680    7.7140 c3        1 45K     -0.250300
     15 CAL         6.1020   -0.3810    9.5730 c3        1 45K     -0.259300
     16 SAP         1.7820   -0.1360    1.5820 ss        1 45K     -0.092100
     17 CAQ         3.7590    0.0680    6.5840 ca        1 45K      0.164600
     18 CAR         6.4950   -0.0020    7.2170 ca        1 45K     -0.098300
     19 CAS         5.5210   -0.1720    8.2270 ca        1 45K     -0.032300
     20 CAT        -0.5790    0.1600    5.8810 c         1 45K      0.722700
     21 CAU         0.4870    0.0760    4.8380 cc        1 45K     -0.263400
     22 CAV        -0.7560   -0.0780    1.1900 ca        1 45K      0.049400
     23 CAW        -1.6190    0.0850    3.8290 ca        1 45K      0.067600
     24 CAX         0.2250   -0.0530    2.2490 ca        1 45K     -0.035100
     25 CAY        -0.2050    0.0290    3.5570 ca        1 45K     -0.039800
     26 SAZ         7.8250   -0.3410    9.4200 s6        1 45K      1.303000
     27 H1         -2.7070    0.2130    5.6530 hn        1 45K      0.343500
     28 H2          2.5240   -0.0260    4.2050 h4        1 45K      0.160000
     29 H3          4.4560    0.4310    4.5380 ha        1 45K      0.141000
     30 H4          6.8480    0.3460    5.1130 ha        1 45K      0.145000
     31 H5         -2.8620   -0.0420    0.6580 ha        1 45K      0.155000
     32 H6         -3.6410    0.1050    3.0220 ha        1 45K      0.145000
     33 H7          1.7520   -0.2650   -0.9010 h5        1 45K      0.062800
     34 H8          3.4300   -0.2770    8.7310 ha        1 45K      0.152000
     35 H9          8.4290    0.8840    7.4680 h1        1 45K      0.131700
     36 H10         8.4460   -0.8850    7.1850 h1        1 45K      0.131700
     37 H11         5.7320    0.4120   10.2780 h1        1 45K      0.135200
     38 H12         5.7470   -1.3580    9.9980 h1        1 45K      0.135200
     39 H14         1.7650    0.1280    7.1060 hn        1 45K      0.476800
@<TRIPOS>BOND
     1    1   12 2   
     2    1   22 1   
     3    2    7 1   
     4    2   17 1   
     5    2   39 1   
     6    3   20 1   
     7    3   23 1   
     8    3   27 1   
     9    4   20 2   
    10    5   26 2   
    11    6   26 2   
    12    7   21 2   
    13    7   28 1   
    14    8    9 ar  
    15    8   17 ar  
    16    8   29 1   
    17    9   18 ar  
    18    9   30 1   
    19   10   11 ar  
    20   10   22 ar  
    21   10   31 1   
    22   11   23 ar  
    23   11   32 1   
    24   12   16 1   
    25   12   33 1   
    26   13   17 ar  
    27   13   19 ar  
    28   13   34 1   
    29   14   18 1   
    30   14   26 1   
    31   14   35 1   
    32   14   36 1   
    33   15   19 1   
    34   15   26 1   
    35   15   37 1   
    36   15   38 1   
    37   16   24 1   
    38   18   19 ar  
    39   20   21 1   
    40   21   25 1   
    41   22   24 ar  
    42   23   25 ar  
    43   24   25 ar  
@<TRIPOS>SUBSTRUCTURE
     1 45K         1 TEMP              0 ****  ****    0 ROOT
