@<TRIPOS>MOLECULE
45K
   39    43     1     0     0
SMALL
bcc


@<TRIPOS>ATOM
      1 N1          5.9100   -2.3090   -0.2500 nc        1 45K     -0.506100
      2 N2         -0.1610    0.9840    0.2140 nh        1 45K     -0.622400
      3 N3          3.7790    2.8260    0.1070 n         1 45K     -0.468100
      4 OAA         1.5100    3.4080    0.2400 o         1 45K     -0.646500
      5 OAB        -7.1350    0.1020    1.1350 o         1 45K     -0.642300
      6 OAC        -6.9940   -0.2280   -1.2270 o         1 45K     -0.642300
      7 CAD         1.0590    0.3780    0.1180 c2        1 45K      0.194000
      8 CAE        -1.5000   -1.0800    0.4280 ca        1 45K     -0.174000
      9 CAF        -2.7500   -1.7010    0.4410 ca        1 45K     -0.066000
     10 CAG         6.3900    0.1420   -0.1500 ca        1 45K     -0.044000
     11 CAH         5.8880    1.4360   -0.0610 ca        1 45K     -0.161000
     12 CAI         4.8500   -3.0790   -0.2390 cd        1 45K      0.366100
     13 CAJ        -2.5740    1.0810    0.0550 ca        1 45K     -0.143000
     14 CAK        -5.2910   -1.4550    0.2540 c3        1 45K     -0.250300
     15 CAL        -5.1170    1.1110   -0.0940 c3        1 45K     -0.259300
     16 SAP         3.3140   -2.2770   -0.1260 ss        1 45K     -0.092100
     17 CAQ        -1.3910    0.3120    0.2300 ca        1 45K      0.164600
     18 CAR        -3.9010   -0.9490    0.2650 ca        1 45K     -0.098300
     19 CAS        -3.8030    0.4490    0.0750 ca        1 45K     -0.032300
     20 CAT         2.3970    2.5420    0.1590 c         1 45K      0.722700
     21 CAU         2.2400    1.0580    0.0950 cc        1 45K     -0.263400
     22 CAV         5.5180   -0.9580   -0.1640 ca        1 45K      0.049400
     23 CAW         4.5030    1.6260    0.0140 ca        1 45K      0.067600
     24 CAX         4.0880   -0.7690   -0.0860 ca        1 45K     -0.035100
     25 CAY         3.5870    0.5130    0.0020 ca        1 45K     -0.039800
     26 SAZ        -6.3420   -0.1060    0.0030 s6        1 45K      1.303000
     27 H1          4.1810    3.7250    0.1340 hn        1 45K      0.343500
     28 H2          1.0730   -0.7310    0.0540 h4        1 45K      0.160000
     29 H3         -0.6080   -1.7030    0.5870 ha        1 45K      0.141000
     30 H4         -2.8160   -2.7890    0.5950 ha        1 45K      0.145000
     31 H5          7.4770   -0.0230   -0.2090 ha        1 45K      0.155000
     32 H6          6.5740    2.2950   -0.0510 ha        1 45K      0.145000
     33 H7          4.9170   -4.1700   -0.2970 h5        1 45K      0.062800
     34 H8         -2.5220    2.1710   -0.0950 ha        1 45K      0.152000
     35 H9         -5.4120   -2.2290   -0.5500 h1        1 45K      0.131700
     36 H10        -5.5160   -1.9800    1.2210 h1        1 45K      0.131700
     37 H11        -5.2540    1.8990    0.6950 h1        1 45K      0.135200
     38 H12        -5.1510    1.6540   -1.0770 h1        1 45K      0.135200
     39 H14        -0.1890    1.9880    0.2290 hn        1 45K      0.476800
@<TRIPOS>BOND
     1    1   12 2   
     2    1   22 1   
     3    2    7 1   
     4    2   17 1   
     5    2   39 1   
     6    3   20 1   
     7    3   23 1   
     8    3   27 1   
     9    4   20 2   
    10    5   26 2   
    11    6   26 2   
    12    7   21 2   
    13    7   28 1   
    14    8    9 ar  
    15    8   17 ar  
    16    8   29 1   
    17    9   18 ar  
    18    9   30 1   
    19   10   11 ar  
    20   10   22 ar  
    21   10   31 1   
    22   11   23 ar  
    23   11   32 1   
    24   12   16 1   
    25   12   33 1   
    26   13   17 ar  
    27   13   19 ar  
    28   13   34 1   
    29   14   18 1   
    30   14   26 1   
    31   14   35 1   
    32   14   36 1   
    33   15   19 1   
    34   15   26 1   
    35   15   37 1   
    36   15   38 1   
    37   16   24 1   
    38   18   19 ar  
    39   20   21 1   
    40   21   25 1   
    41   22   24 ar  
    42   23   25 ar  
    43   24   25 ar  
@<TRIPOS>SUBSTRUCTURE
     1 45K         1 TEMP              0 ****  ****    0 ROOT
