@<TRIPOS>MOLECULE
45K
   39    37     1     0     0
SMALL
bcc


@<TRIPOS>ATOM
      1 N1         -3.9210    0.5180   -4.5330 n2        1 45K     -0.079000
      2 N2         -0.2170    0.2130    1.2790 n3        1 45K     -0.254000
      3 N3         -4.4980   -0.0790    1.2370 n         1 45K     -0.322000
      4 OAA        -2.6060   -0.0680    2.6400 o         1 45K     -0.371000
      5 OAB         6.7830    1.0520    0.1630 o         1 45K     -0.921500
      6 OAC         7.0030    0.0580    2.2090 o         1 45K     -0.921500
      7 CAD        -1.0460    0.1300    0.1300 c2        1 45K      0.112000
      8 CAE         1.4900   -1.5390    1.1520 c1        1 45K     -0.174000
      9 CAF         2.8370   -1.9200    1.1260 c1        1 45K     -0.104500
     10 CAG        -5.6670    0.3690   -2.4490 c1        1 45K     -0.044000
     11 CAH        -5.8060    0.2370   -1.0570 c1        1 45K     -0.161000
     12 CAI        -2.4970    0.4540   -4.5670 c1        1 45K     -0.275000
     13 CAJ         2.1440    0.8090    1.2180 c1        1 45K     -0.104500
     14 CAK         5.2850   -1.0680    0.5700 c3        1 45K     -0.801500
     15 CAL         4.7000    1.2230    1.7460 c3        1 45K     -0.801500
     16 SAP        -1.9980    0.2370   -3.1250 ss        1 45K      0.359000
     17 CAQ         1.1420   -0.1680    1.1980 c1        1 45K      0.083000
     18 CAR         3.8310   -0.9540    1.1460 c1        1 45K     -0.058000
     19 CAS         3.4790    0.4340    1.1930 c1        1 45K     -0.058000
     20 CAT        -3.1000   -0.0770    1.5320 c2        1 45K      0.361000
     21 CAU        -2.3760   -0.0030    0.2700 c2        1 45K     -0.256000
     22 CAV        -4.3940    0.3390   -3.0320 c1        1 45K     -0.090000
     23 CAW        -4.6590    0.0720   -0.2420 c2        1 45K      0.075000
     24 CAX        -3.2370    0.1730   -2.2110 c1        1 45K     -0.262000
     25 CAY        -3.3760    0.0410   -0.8260 c2        1 45K     -0.028000
     26 SAZ         6.0480    0.3440    1.1740 s6        1 45K      2.783000
     27 H1         -5.1740   -0.1310    1.8460 hn        1 45K      0.257000
     28 H2         -0.6510    0.1710   -0.7620 h4        1 45K      0.160000
     29 H3          0.7900   -2.2200    1.1330 ha        1 45K      0.141000
     30 H4          3.0750   -2.8640    1.0940 ha        1 45K      0.148500
     31 H5         -6.4550    0.5060   -3.0060 ha        1 45K      0.155000
     32 H6         -6.6930    0.2650   -0.6510 ha        1 45K      0.145000
     33 H7         -1.9360    0.5530   -5.3600 DU        1 45K      0.192000
     34 H8          1.9030    1.7530    1.2800 ha        1 45K      0.148500
     35 H9          5.8280   -1.8740    0.6880 h1        1 45K      0.172750
     36 H10         5.1810   -1.0140   -0.4010 h1        1 45K      0.172750
     37 H11         4.5610    1.3530    2.7050 h1        1 45K      0.172750
     38 H12         4.7820    2.1440    1.4310 h1        1 45K      0.172750
     39 H14        -0.5560    0.5310    2.0640 hn        1 45K      0.272000
@<TRIPOS>BOND
     1    1   12 1   
     2    1   22 1   
     3    2    7 1   
     4    2   17 1   
     5    2   39 1   
     6    3   20 1   
     7    3   23 1   
     8    3   27 1   
     9    4   20 1   
    10    5   26 1   
    11    6   26 1   
    12    7   21 1   
    13    7   28 1   
    14    8   17 1   
    15    8   29 1   
    16    9   18 1   
    17    9   30 1   
    18   10   22 1   
    19   10   31 1   
    20   11   23 1   
    21   11   32 1   
    22   12   16 1   
    23   13   19 1   
    24   13   34 1   
    25   14   18 1   
    26   14   26 1   
    27   14   35 1   
    28   14   36 1   
    29   15   19 1   
    30   15   26 1   
    31   15   37 1   
    32   15   38 1   
    33   16   24 1   
    34   20   21 1   
    35   21   25 1   
    36   23   25 1   
    37   24   25 1   
@<TRIPOS>SUBSTRUCTURE
     1 45K         1 TEMP              0 ****  ****    0 ROOT
