@<TRIPOS>MOLECULE
45P
   44    47     1     0     0
SMALL
bcc


@<TRIPOS>ATOM
      1 N1         -0.1490   -0.4950   -0.0770 n4        1 45P     -0.819300
      2 C2          1.3250   -0.2350   -0.0850 ca        1 45P      0.764900
      3 N3          1.8140    0.2510    1.1330 nb        1 45P     -0.808000
      4 C4          3.1320    0.5020    1.1940 ca        1 45P      0.813600
      5 O5          3.7260    0.9720    2.3090 oh        1 45P     -0.538300
      6 C6          3.9830    0.2760    0.0500 ca        1 45P     -0.330600
      7 N7          5.3110    0.4190   -0.2190 nc        1 45P     -0.118400
      8 N8          5.4360    0.0200   -1.4980 na        1 45P      0.391000
      9 N9          4.3120   -0.3840   -2.1310 nc        1 45P     -0.163400
     10 C10         3.3220   -0.2430   -1.1810 ca        1 45P      0.280300
     11 N11         1.9620   -0.5000   -1.2370 nb        1 45P     -0.607000
     12 C12         6.7240    0.0160   -2.1660 ca        1 45P     -0.002200
     13 C13         7.9000   -0.2030   -1.4200 ca        1 45P     -0.029000
     14 C14         9.1320   -0.1910   -2.0740 ca        1 45P     -0.109000
     15 C15         9.2150    0.0220   -3.4470 ca        1 45P     -0.071000
     16 C16         8.0440    0.2320   -4.1900 ca        1 45P     -0.191600
     17 C17         6.7910    0.2380   -3.5530 ca        1 45P     -0.021000
     18 C18         8.0300    0.4800   -5.6390 c         1 45P      0.560700
     19 O19         7.0720    0.8530   -6.3050 o         1 45P     -0.408100
     20 N20         9.3180    0.2460   -6.3880 n4        1 45P     -0.676800
     21 C21         9.1610    0.3100   -7.8860 c3        1 45P      0.180100
     22 C22        10.4720    0.0800   -8.5540 ca        1 45P     -0.178300
     23 C23        11.2790    1.1720   -8.8890 ca        1 45P     -0.108000
     24 C24        12.4880    0.9540   -9.5600 ca        1 45P      0.027400
     25 CL1        13.4640    2.2690   -9.9690 cl        1 45P     -0.018400
     26 C26        12.8890   -0.3440   -9.8970 ca        1 45P     -0.070000
     27 C27        12.0710   -1.4280   -9.5570 ca        1 45P      0.027400
     28 CL2        12.5440   -2.9980   -9.9620 cl        1 45P     -0.018400
     29 C29        10.8610   -1.2220   -8.8860 ca        1 45P     -0.108000
     30 H30        -0.3610   -1.1910    0.6500 hn        1 45P      0.489133
     31 H31        -0.4570   -0.8480   -0.9950 hn        1 45P      0.489133
     32 H32         3.0800    1.1000    3.0360 ho        1 45P      0.488000
     33 H34         7.8710   -0.3790   -0.3280 ha        1 45P      0.194000
     34 H33        10.0550   -0.3550   -1.4880 ha        1 45P      0.188000
     35 H36        10.2140    0.0310   -3.9110 ha        1 45P      0.146000
     36 H35         5.8810    0.4180   -4.1570 ha        1 45P      0.197000
     37 H37         9.6930   -0.6750   -6.1320 hn        1 45P      0.462300
     38 H38         8.7390    1.3250   -8.1430 hx        1 45P      0.121700
     39 H39         8.4050   -0.4740   -8.1810 hx        1 45P      0.121700
     40 H42        10.9600    2.2000   -8.6520 ha        1 45P      0.154500
     41 H41        13.8410   -0.5110  -10.4340 ha        1 45P      0.192000
     42 H40        10.2110   -2.0790   -8.6480 ha        1 45P      0.154500
     43 H13        -0.6420    0.3830    0.1390 hn        1 45P      0.489133
     44 H202       10.0030    0.9560   -6.0990 hn        1 45P      0.462300
@<TRIPOS>BOND
     1    1    2 1   
     2    1   30 1   
     3    1   31 1   
     4    1   43 1   
     5    2    3 ar  
     6    2   11 ar  
     7    3    4 ar  
     8    4    5 1   
     9    4    6 ar  
    10    5   32 1   
    11    6    7 2   
    12    6   10 ar  
    13    7    8 1   
    14    8    9 1   
    15    8   12 1   
    16    9   10 2   
    17   10   11 ar  
    18   12   13 ar  
    19   12   17 ar  
    20   13   14 ar  
    21   13   33 1   
    22   14   15 ar  
    23   14   34 1   
    24   15   16 ar  
    25   15   35 1   
    26   16   17 ar  
    27   16   18 1   
    28   17   36 1   
    29   18   19 2   
    30   18   20 1   
    31   20   21 1   
    32   20   37 1   
    33   20   44 1   
    34   21   22 1   
    35   21   38 1   
    36   21   39 1   
    37   22   23 ar  
    38   22   29 ar  
    39   23   24 ar  
    40   23   40 1   
    41   24   25 1   
    42   24   26 ar  
    43   26   27 ar  
    44   26   41 1   
    45   27   28 1   
    46   27   29 ar  
    47   29   42 1   
@<TRIPOS>SUBSTRUCTURE
     1 45P         1 TEMP              0 ****  ****    0 ROOT
