@<TRIPOS>MOLECULE
45P
   43    46     1     0     0
SMALL
bcc


@<TRIPOS>ATOM
      1 N1          0.0880   -0.7050   -1.0960 nv        1 45P     -0.938500
      2 C2          1.4370   -0.5470   -0.8790 ca        1 45P      0.959900
      3 N3          1.8570   -0.6690    0.4820 nb        1 45P     -0.822000
      4 C4          3.1460   -0.5310    0.7490 ca        1 45P      0.777600
      5 O5          3.6310   -0.6340    2.0170 oh        1 45P     -0.583300
      6 C6          4.1220   -0.2640   -0.2830 ca        1 45P     -0.368600
      7 N7          5.4590   -0.0780   -0.3310 nc        1 45P     -0.138400
      8 N8          5.7170    0.1310   -1.6390 na        1 45P      0.323000
      9 N9          4.6430    0.1000   -2.4930 nc        1 45P     -0.265400
     10 C10         3.5690   -0.1530   -1.6770 ca        1 45P      0.362300
     11 N11         2.2360   -0.2940   -1.9650 nb        1 45P     -0.767000
     12 C12         7.0420    0.3800   -2.1240 ca        1 45P      0.059800
     13 C13         8.1700    0.0280   -1.3510 ca        1 45P     -0.064000
     14 C14         9.4520    0.2710   -1.8450 ca        1 45P     -0.107000
     15 C15         9.6430    0.8360   -3.1010 ca        1 45P     -0.110000
     16 C16         8.5230    1.1820   -3.8700 ca        1 45P     -0.192600
     17 C17         7.2230    0.9810   -3.3880 ca        1 45P     -0.052000
     18 C18         8.6530    1.8170   -5.1840 c         1 45P      0.576700
     19 O19         8.0230    2.7480   -5.6600 o         1 45P     -0.404100
     20 N20         9.7030    1.2140   -6.1040 ny        1 45P     -0.685800
     21 C21         9.0590    0.3740   -7.1720 c3        1 45P      0.175100
     22 C22        10.0770   -0.1550   -8.1240 ca        1 45P     -0.167300
     23 C23        10.4710    0.6240   -9.2160 ca        1 45P     -0.106500
     24 C24        11.4000    0.1110  -10.1270 ca        1 45P      0.026900
     25 Cl1        11.8790    1.0470  -11.4500 cl        1 45P     -0.028400
     26 C26        11.9320   -1.1730   -9.9540 ca        1 45P     -0.077000
     27 C27        11.5270   -1.9420   -8.8570 ca        1 45P      0.026900
     28 Cl2        12.1600   -3.4940   -8.6400 cl        1 45P     -0.028400
     29 C29        10.5990   -1.4380   -7.9390 ca        1 45P     -0.106500
     30 H30        -0.2770   -0.6220   -2.0140 hn        1 45P      0.462300
     31 H31        -0.5230   -0.8750   -0.3350 hn        1 45P      0.462300
     32 H32         2.9050   -0.8100    2.6450 ho        1 45P      0.462000
     33 H34         8.0580   -0.4320   -0.3520 ha        1 45P      0.191000
     34 H33        10.3260    0.0080   -1.2240 ha        1 45P      0.171000
     35 H36        10.6670    1.0380   -3.4490 ha        1 45P      0.137000
     36 H35         6.3610    1.2990   -4.0020 ha        1 45P      0.193000
     37 H37        10.2330    1.9670   -6.5600 hn        1 45P      0.457300
     38 H38         8.5070   -0.4670   -6.6610 hx        1 45P      0.117200
     39 H39         8.3100    1.0300   -7.7080 hx        1 45P      0.117200
     40 H42        10.0400    1.6260   -9.3740 ha        1 45P      0.157000
     41 H41        12.6610   -1.5760  -10.6790 ha        1 45P      0.187000
     42 H40        10.2730   -2.0600   -7.0900 ha        1 45P      0.157000
     43 H202       10.3550    0.6340   -5.5660 hn        1 45P      0.457300
@<TRIPOS>BOND
     1    1    2 1   
     2    1   30 1   
     3    1   31 1   
     4    2    3 ar  
     5    2   11 ar  
     6    3    4 ar  
     7    4    5 1   
     8    4    6 ar  
     9    5   32 1   
    10    6    7 2   
    11    6   10 ar  
    12    7    8 1   
    13    8    9 1   
    14    8   12 1   
    15    9   10 2   
    16   10   11 ar  
    17   12   13 ar  
    18   12   17 ar  
    19   13   14 ar  
    20   13   33 1   
    21   14   15 ar  
    22   14   34 1   
    23   15   16 ar  
    24   15   35 1   
    25   16   17 ar  
    26   16   18 1   
    27   17   36 1   
    28   18   19 2   
    29   18   20 1   
    30   20   21 1   
    31   20   37 1   
    32   20   43 1   
    33   21   22 1   
    34   21   38 1   
    35   21   39 1   
    36   22   23 ar  
    37   22   29 ar  
    38   23   24 ar  
    39   23   40 1   
    40   24   25 1   
    41   24   26 ar  
    42   26   27 ar  
    43   26   41 1   
    44   27   28 1   
    45   27   29 ar  
    46   29   42 1   
@<TRIPOS>SUBSTRUCTURE
     1 45P         1 TEMP              0 ****  ****    0 ROOT
