@<TRIPOS>MOLECULE
45P
   42    37     1     0     0
SMALL
bcc


@<TRIPOS>ATOM
      1 N1          1.7910    8.0220    0.2220 n3        1 45P     -0.329000
      2 C2          0.9420    6.9900   -0.2940 c2        1 45P      0.201000
      3 N3          0.1210    7.3420   -1.3210 n2        1 45P     -0.306000
      4 C4         -0.7650    6.4550   -1.8100 c1        1 45P      0.271000
      5 O5         -1.6900    7.2270   -2.5460 o         1 45P     -0.218000
      6 C6         -0.8420    5.1780   -1.2670 c1        1 45P     -0.255000
      7 N7         -1.5780    4.0800   -1.6130 n1        1 45P      0.022000
      8 N8         -1.2110    3.0590   -0.8040 n3        1 45P     -0.031000
      9 N9         -0.2550    3.5150    0.0390 n2        1 45P     -0.060000
     10 C10        -0.0290    4.8310   -0.2520 c1        1 45P      0.002000
     11 N11         0.8690    5.7350    0.2420 n1        1 45P     -0.215000
     12 C12        -0.8270    1.7970   -1.0990 c1        1 45P      0.056000
     13 C13        -0.1500    1.5400   -2.2840 c1        1 45P     -0.111500
     14 C14         0.3670    0.2760   -2.5280 c1        1 45P     -0.111500
     15 C15         0.2070   -0.7360   -1.5850 c1        1 45P     -0.099000
     16 C16        -0.4690   -0.4810   -0.4020 c1        1 45P     -0.115000
     17 C17        -0.9870    0.7880   -0.1580 c1        1 45P     -0.055000
     18 C18        -0.5460   -1.5560    0.6810 c2        1 45P      0.342000
     19 O19        -1.1390   -1.3320    1.7190 o         1 45P     -0.354000
     20 N20         0.0660   -2.8420    0.4640 n         1 45P     -0.367000
     21 C21         0.8310   -3.4660    1.5200 c3        1 45P      0.008000
     22 C22         0.4310   -4.9550    1.6370 c2        1 45P     -0.101000
     23 C23         1.0600   -5.9060    0.8480 c2        1 45P     -0.114000
     24 C24         0.7200   -7.2510    0.9760 c1        1 45P     -0.057500
     25 CL1         1.4670   -8.4430   -0.0600 cl        1 45P     -0.004000
     26 C26        -0.2430   -7.6370    1.8890 c2        1 45P     -0.117000
     27 C27        -0.8750   -6.6830    2.6810 c1        1 45P     -0.057500
     28 CL2        -2.0230   -7.1810    3.9040 cl        1 45P     -0.004000
     29 C29        -0.5380   -5.3440    2.5540 c2        1 45P     -0.114000
     30 H30         2.6070    7.8060    0.5870 hn        1 45P      0.232500
     31 H31         1.5200    8.8960    0.1910 hn        1 45P      0.232500
     32 H32        -1.5290    7.1300   -3.4250 ho        1 45P      0.248000
     33 H34        -0.0370    2.2500   -2.9470 ha        1 45P      0.155500
     34 H33         0.8380    0.0980   -3.3520 ha        1 45P      0.155500
     35 H36         0.5720   -1.6270   -1.7570 ha        1 45P      0.142000
     36 H35        -1.4630    0.9680    0.6740 ha        1 45P      0.185000
     37 H37         0.0200   -3.2340   -0.3560 hn        1 45P      0.225000
     38 H38         0.6470   -3.0110    2.3700 h1        1 45P      0.115000
     39 H39         1.7890   -3.3990    1.3140 h1        1 45P      0.115000
     40 H42         1.7940   -5.6430    0.2600 ha        1 45P      0.162000
     41 H41        -0.4810   -8.5830    1.9790 ha        1 45P      0.163000
     42 H40        -0.9820   -4.6730    3.1110 ha        1 45P      0.162000
@<TRIPOS>BOND
     1    1    2 1   
     2    1   30 1   
     3    1   31 1   
     4    2    3 1   
     5    2   11 1   
     6    3    4 1   
     7    4    6 1   
     8    5   32 1   
     9    6   10 1   
    10    7    8 1   
    11    8    9 1   
    12    8   12 1   
    13    9   10 1   
    14   12   17 1   
    15   13   14 1   
    16   13   33 1   
    17   14   34 1   
    18   15   16 1   
    19   15   35 1   
    20   16   18 1   
    21   17   36 1   
    22   18   19 1   
    23   18   20 1   
    24   20   21 1   
    25   20   37 1   
    26   21   22 1   
    27   21   38 1   
    28   21   39 1   
    29   22   23 1   
    30   22   29 1   
    31   23   24 1   
    32   23   40 1   
    33   24   26 1   
    34   26   27 1   
    35   26   41 1   
    36   27   29 1   
    37   29   42 1   
@<TRIPOS>SUBSTRUCTURE
     1 45P         1 TEMP              0 ****  ****    0 ROOT
