@<TRIPOS>MOLECULE
45P
   43    46     1     0     0
SMALL
bcc


@<TRIPOS>ATOM
      1 N1          0.0760    0.6700   -1.1170 nh        1 45P     -0.938500
      2 C2          1.4250    0.5240   -0.8960 ca        1 45P      0.959900
      3 N3          1.8410    0.6610    0.4660 nb        1 45P     -0.822000
      4 C4          3.1300    0.5350    0.7360 ca        1 45P      0.777600
      5 O5          3.6120    0.6520    2.0040 oh        1 45P     -0.583300
      6 C6          4.1110    0.2670   -0.2910 ca        1 45P     -0.368600
      7 N7          5.4490    0.0910   -0.3350 nc        1 45P     -0.138400
      8 N8          5.7120   -0.1270   -1.6410 na        1 45P      0.323000
      9 N9          4.6400   -0.1110   -2.4970 nc        1 45P     -0.265400
     10 C10         3.5620    0.1400   -1.6850 ca        1 45P      0.362300
     11 N11         2.2280    0.2690   -1.9780 nb        1 45P     -0.767000
     12 C12         7.0400   -0.3690   -2.1200 ca        1 45P      0.059800
     13 C13         8.1630   -0.0020   -1.3490 ca        1 45P     -0.064000
     14 C14         9.4480   -0.2390   -1.8370 ca        1 45P     -0.107000
     15 C15         9.6460   -0.8140   -3.0880 ca        1 45P     -0.110000
     16 C16         8.5310   -1.1750   -3.8560 ca        1 45P     -0.192600
     17 C17         7.2290   -0.9800   -3.3780 ca        1 45P     -0.052000
     18 C18         8.6690   -1.8210   -5.1640 c         1 45P      0.576700
     19 O19         8.0470   -2.7610   -5.6340 o         1 45P     -0.404100
     20 N20         9.7160   -1.2170   -6.0880 n4        1 45P     -0.685800
     21 C21         9.0670   -0.3960   -7.1670 c3        1 45P      0.175100
     22 C22        10.0830    0.1320   -8.1210 ca        1 45P     -0.167300
     23 C23        10.5910    1.4230   -7.9500 ca        1 45P     -0.106500
     24 C24        11.5170    1.9250   -8.8710 ca        1 45P      0.026900
     25 CL1        12.1330    3.4860   -8.6710 cl        1 45P     -0.028400
     26 C26        11.9350    1.1470   -9.9570 ca        1 45P     -0.077000
     27 C27        11.4160   -0.1430  -10.1170 ca        1 45P      0.026900
     28 CL2        11.9100   -1.0910  -11.4260 cl        1 45P     -0.028400
     29 C29        10.4890   -0.6560   -9.2030 ca        1 45P     -0.106500
     30 H30        -0.5380    0.8420   -0.3590 hn        1 45P      0.462300
     31 H31        -0.2860    0.5770   -2.0350 hn        1 45P      0.462300
     32 H32         2.8830    0.8280    2.6300 ho        1 45P      0.462000
     33 H34         8.0460    0.4660   -0.3540 ha        1 45P      0.191000
     34 H33        10.3190    0.0360   -1.2170 ha        1 45P      0.171000
     35 H36        10.6730   -1.0110   -3.4320 ha        1 45P      0.137000
     36 H35         6.3700   -1.3100   -3.9910 ha        1 45P      0.193000
     37 H37        10.3610   -0.6260   -5.5540 hn        1 45P      0.457300
     38 H38         8.5060    0.4460   -6.6670 hx        1 45P      0.117200
     39 H39         8.3260   -1.0640   -7.6970 hx        1 45P      0.117200
     40 H42        10.2550    2.0520   -7.1100 ha        1 45P      0.157000
     41 H41        12.6620    1.5500  -10.6850 ha        1 45P      0.187000
     42 H40        10.0700   -1.6640   -9.3500 ha        1 45P      0.157000
     43 H202       10.2550   -1.9700   -6.5330 hn        1 45P      0.457300
@<TRIPOS>BOND
     1    1    2 1   
     2    1   30 1   
     3    1   31 1   
     4    2    3 ar  
     5    2   11 ar  
     6    3    4 ar  
     7    4    5 1   
     8    4    6 ar  
     9    5   32 1   
    10    6    7 2   
    11    6   10 ar  
    12    7    8 1   
    13    8    9 1   
    14    8   12 1   
    15    9   10 2   
    16   10   11 ar  
    17   12   13 ar  
    18   12   17 ar  
    19   13   14 ar  
    20   13   33 1   
    21   14   15 ar  
    22   14   34 1   
    23   15   16 ar  
    24   15   35 1   
    25   16   17 ar  
    26   16   18 1   
    27   17   36 1   
    28   18   19 2   
    29   18   20 1   
    30   20   21 1   
    31   20   37 1   
    32   20   43 1   
    33   21   22 1   
    34   21   38 1   
    35   21   39 1   
    36   22   23 ar  
    37   22   29 ar  
    38   23   24 ar  
    39   23   40 1   
    40   24   25 1   
    41   24   26 ar  
    42   26   27 ar  
    43   26   41 1   
    44   27   28 1   
    45   27   29 ar  
    46   29   42 1   
@<TRIPOS>SUBSTRUCTURE
     1 45P         1 TEMP              0 ****  ****    0 ROOT
