@<TRIPOS>MOLECULE
45P
   42    45     1     0     0
SMALL
bcc


@<TRIPOS>ATOM
      1 N1         -2.3440   -0.5350    8.5790 nh        1 45P     -0.933500
      2 C2         -1.3620   -0.4170    7.6000 ca        1 45P      0.921900
      3 N3         -0.0460   -0.7770    8.0120 nb        1 45P     -0.832000
      4 C4          0.9100   -0.7760    7.0910 ca        1 45P      0.769600
      5 O5          2.1960   -1.1110    7.4060 oh        1 45P     -0.589300
      6 C6          0.6570   -0.4160    5.7230 ca        1 45P     -0.386600
      7 N7          1.3920   -0.3200    4.5800 nc        1 45P     -0.157400
      8 N8          0.5110    0.0880    3.6570 na        1 45P      0.373000
      9 N9         -0.7710    0.2810    4.0670 nc        1 45P     -0.239400
     10 C10        -0.7500   -0.0320    5.4090 ca        1 45P      0.331300
     11 N11        -1.7520   -0.0220    6.3530 nb        1 45P     -0.742000
     12 C12         0.8980    0.3090    2.2810 ca        1 45P      0.010800
     13 C13         2.2000    0.7550    1.9800 ca        1 45P     -0.092000
     14 C14         2.5600    0.9620    0.6500 ca        1 45P     -0.131000
     15 C15         1.6450    0.7500   -0.3790 ca        1 45P     -0.099000
     16 C16         0.3520    0.3140   -0.0750 ca        1 45P     -0.135600
     17 C17        -0.0300    0.0780    1.2480 ca        1 45P     -0.055000
     18 C18        -0.6500    0.0480   -1.1500 c         1 45P      0.668700
     19 O19        -1.3660   -0.9720   -1.1390 o         1 45P     -0.592100
     20 N20        -0.7890    1.0160   -2.1300 n         1 45P     -0.557900
     21 C21        -1.6490    0.8290   -3.2660 c3        1 45P      0.131300
     22 C22        -0.9810    0.2100   -4.4650 ca        1 45P     -0.108300
     23 C23        -0.7260    0.9770   -5.6030 ca        1 45P     -0.114000
     24 C24        -0.1310    0.3770   -6.7180 ca        1 45P      0.020900
     25 CL1         0.1780    1.3070   -8.1060 cl        1 45P     -0.081900
     26 C26         0.2150   -0.9770   -6.7060 ca        1 45P     -0.117000
     27 C27        -0.0450   -1.7300   -5.5560 ca        1 45P      0.020900
     28 CL2         0.3710   -3.3760   -5.5280 cl        1 45P     -0.081900
     29 C29        -0.6420   -1.1470   -4.4360 ca        1 45P     -0.114000
     30 H30        -2.0510   -0.5920    9.5250 hn        1 45P      0.438300
     31 H31        -3.2270   -0.1170    8.3960 hn        1 45P      0.438300
     32 H32         2.2570   -1.3470    8.3490 ho        1 45P      0.449000
     33 H34         2.9400    0.9360    2.7760 ha        1 45P      0.164000
     34 H33         3.5810    1.2990    0.4150 ha        1 45P      0.147000
     35 H36         1.9530    0.9090   -1.4230 ha        1 45P      0.142000
     36 H35        -1.0500   -0.2920    1.4540 ha        1 45P      0.185000
     37 H37        -0.1050    1.7330   -2.1900 hn        1 45P      0.310500
     38 H38        -2.0630    1.8400   -3.5500 h1        1 45P      0.075700
     39 H39        -2.5100    0.1650   -2.9560 h1        1 45P      0.075700
     40 H42        -0.9970    2.0440   -5.6270 ha        1 45P      0.162000
     41 H41         0.6830   -1.4430   -7.5870 ha        1 45P      0.163000
     42 H40        -0.8530   -1.7410   -3.5300 ha        1 45P      0.162000
@<TRIPOS>BOND
     1    1    2 1   
     2    1   30 1   
     3    1   31 1   
     4    2    3 ar  
     5    2   11 ar  
     6    3    4 ar  
     7    4    5 1   
     8    4    6 ar  
     9    5   32 1   
    10    6    7 2   
    11    6   10 ar  
    12    7    8 1   
    13    8    9 1   
    14    8   12 1   
    15    9   10 2   
    16   10   11 ar  
    17   12   13 ar  
    18   12   17 ar  
    19   13   14 ar  
    20   13   33 1   
    21   14   15 ar  
    22   14   34 1   
    23   15   16 ar  
    24   15   35 1   
    25   16   17 ar  
    26   16   18 1   
    27   17   36 1   
    28   18   19 2   
    29   18   20 1   
    30   20   21 1   
    31   20   37 1   
    32   21   22 1   
    33   21   38 1   
    34   21   39 1   
    35   22   23 ar  
    36   22   29 ar  
    37   23   24 ar  
    38   23   40 1   
    39   24   25 1   
    40   24   26 ar  
    41   26   27 ar  
    42   26   41 1   
    43   27   28 1   
    44   27   29 ar  
    45   29   42 1   
@<TRIPOS>SUBSTRUCTURE
     1 45P         1 TEMP              0 ****  ****    0 ROOT
