@<TRIPOS>MOLECULE
45R
   50    53     1     0     0
SMALL
bcc


@<TRIPOS>ATOM
      1 C1          1.4450    2.4020    0.7660 c3        1 45R      0.116700
      2 O2          2.4500    1.3980    0.6400 os        1 45R     -0.357900
      3 C3          2.4910    0.4340    1.6290 ca        1 45R      0.170100
      4 C4          1.7500    0.5330    2.8130 ca        1 45R     -0.213000
      5 C5          1.8320   -0.4730    3.7870 ca        1 45R      0.100000
      6 C6          2.6590   -1.5870    3.5480 ca        1 45R     -0.175000
      7 C7          3.3850   -1.6840    2.3710 ca        1 45R     -0.037000
      8 C8          3.3270   -0.6760    1.3960 ca        1 45R     -0.203600
      9 C9          4.1350   -0.8910    0.1670 c         1 45R      0.707700
     10 O10         4.2660   -2.0260   -0.3310 o         1 45R     -0.597100
     11 N11         4.7920    0.2230   -0.3640 ns        1 45R     -0.459100
     12 C12         5.5810    0.2570   -1.5130 ca        1 45R      0.118600
     13 C13         5.9170    1.5140   -2.0790 ca        1 45R     -0.176000
     14 C14         6.7150    1.5870   -3.2100 ca        1 45R     -0.074000
     15 C15         7.2110    0.4320   -3.8260 ca        1 45R     -0.163300
     16 C16         8.0730    0.5600   -5.0270 c3        1 45R     -0.039100
     17 C17         7.4540   -0.0880   -6.2630 c3        1 45R      0.107800
     18 N18         7.6450   -1.5690   -6.3250 ny        1 45R     -0.761000
     19 C19         6.9040   -2.3250   -5.2690 c3        1 45R      0.109800
     20 C20         7.4250   -2.0790   -3.8580 c3        1 45R     -0.053100
     21 C21         6.8970   -0.8170   -3.2700 ca        1 45R     -0.077300
     22 C22         6.0960   -0.9070   -2.1320 ca        1 45R     -0.152000
     23 C23         1.0810   -0.3670    5.0040 cc        1 45R     -0.245300
     24 C24         0.3580    0.7910    5.5040 cc        1 45R      0.320200
     25 N25        -0.2270    0.4980    6.6910 nd        1 45R     -0.501800
     26 N26         0.0790   -0.7720    6.9700 na        1 45R     -0.008600
     27 C27         0.8720   -1.3580    5.9900 cd        1 45R     -0.104300
     28 HN18        7.3320   -1.9000   -7.2440 hn        1 45R      0.447300
     29 HN1A        8.6470   -1.7720   -6.2290 hn        1 45R      0.447300
     30 HN26       -0.2560   -1.1960    7.8050 hn        1 45R      0.331700
     31 H1          0.4320    1.9420    0.8610 h1        1 45R      0.053367
     32 H1A         1.6650    3.0630    1.6390 h1        1 45R      0.053367
     33 H1B         1.5320    2.9740   -0.1940 h1        1 45R      0.053367
     34 H4          1.0950    1.3980    2.9920 ha        1 45R      0.149000
     35 H6          2.7290   -2.3860    4.3010 ha        1 45R      0.143000
     36 H7          4.0180   -2.5670    2.1810 ha        1 45R      0.156000
     37 HN11        4.5450    1.1130    0.0210 hn        1 45R      0.342500
     38 H13         5.5470    2.4470   -1.6240 ha        1 45R      0.152000
     39 H14         6.9630    2.5770   -3.6260 ha        1 45R      0.141000
     40 H16         8.2230    1.6480   -5.2800 hc        1 45R      0.081700
     41 H16A        9.0920    0.1330   -4.8190 hc        1 45R      0.081700
     42 H17         6.3460    0.1200   -6.2880 hx        1 45R      0.104700
     43 H17A        7.9300    0.3410   -7.1920 hx        1 45R      0.104700
     44 H19         7.0060   -3.4210   -5.5230 hx        1 45R      0.107200
     45 H19A        5.8160   -2.0340   -5.3310 hx        1 45R      0.107200
     46 H20         7.0970   -2.9610   -3.2370 hc        1 45R      0.088200
     47 H20A        8.5500   -2.0680   -3.8370 hc        1 45R      0.088200
     48 H22         5.8680   -1.9020   -1.7110 ha        1 45R      0.183000
     49 H24         0.2710    1.7750    5.0440 h4        1 45R      0.046100
     50 H27         1.2130   -2.3910    6.0510 h4        1 45R      0.184000
@<TRIPOS>BOND
     1    1    2 1   
     2    1   31 1   
     3    1   32 1   
     4    1   33 1   
     5    2    3 1   
     6    3    4 ar  
     7    3    8 ar  
     8    4    5 ar  
     9    4   34 1   
    10    5    6 ar  
    11    5   23 1   
    12    6    7 ar  
    13    6   35 1   
    14    7    8 ar  
    15    7   36 1   
    16    8    9 1   
    17    9   10 2   
    18    9   11 1   
    19   11   12 1   
    20   11   37 1   
    21   12   13 ar  
    22   12   22 ar  
    23   13   14 ar  
    24   13   38 1   
    25   14   15 ar  
    26   14   39 1   
    27   15   16 1   
    28   15   21 ar  
    29   16   17 1   
    30   16   40 1   
    31   16   41 1   
    32   17   18 1   
    33   17   42 1   
    34   17   43 1   
    35   18   19 1   
    36   18   28 1   
    37   18   29 1   
    38   19   20 1   
    39   19   44 1   
    40   19   45 1   
    41   20   21 1   
    42   20   46 1   
    43   20   47 1   
    44   21   22 ar  
    45   22   48 1   
    46   23   24 1   
    47   23   27 2   
    48   24   25 2   
    49   24   49 1   
    50   25   26 1   
    51   26   27 1   
    52   26   30 1   
    53   27   50 1   
@<TRIPOS>SUBSTRUCTURE
     1 45R         1 TEMP              0 ****  ****    0 ROOT
