@<TRIPOS>MOLECULE
45R
   50    53     1     0     0
SMALL
bcc


@<TRIPOS>ATOM
      1 C1          1.4520    2.4040    0.7780 c3        1 45R      0.116700
      2 O2          2.4510    1.3960    0.6470 os        1 45R     -0.357900
      3 C3          2.4820    0.4210    1.6250 ca        1 45R      0.170100
      4 C4          1.7350    0.5100    2.8060 ca        1 45R     -0.213000
      5 C5          1.8060   -0.5080    3.7680 ca        1 45R      0.100000
      6 C6          2.6280   -1.6230    3.5220 ca        1 45R     -0.175000
      7 C7          3.3610   -1.7110    2.3480 ca        1 45R     -0.037000
      8 C8          3.3130   -0.6920    1.3840 ca        1 45R     -0.203600
      9 C9          4.1270   -0.8970    0.1580 c         1 45R      0.707700
     10 O10         4.2550   -2.0270   -0.3520 o         1 45R     -0.597100
     11 N11         4.7940    0.2190   -0.3580 n         1 45R     -0.459100
     12 C12         5.5890    0.2620   -1.5010 ca        1 45R      0.118600
     13 C13         5.9340    1.5240   -2.0520 ca        1 45R     -0.176000
     14 C14         6.7390    1.6050   -3.1780 ca        1 45R     -0.074000
     15 C15         7.2330    0.4540   -3.8030 ca        1 45R     -0.163300
     16 C16         8.1030    0.5910   -4.9980 c3        1 45R     -0.039100
     17 C17         7.4880   -0.0400   -6.2430 c3        1 45R      0.107800
     18 N18         7.6720   -1.5220   -6.3210 n4        1 45R     -0.761000
     19 C19         6.9210   -2.2860   -5.2770 c3        1 45R      0.109800
     20 C20         7.4360   -2.0570   -3.8610 c3        1 45R     -0.053100
     21 C21         6.9100   -0.7990   -3.2620 ca        1 45R     -0.077300
     22 C22         6.1030   -0.8970   -2.1300 ca        1 45R     -0.152000
     23 C23         1.0480   -0.4120    4.9820 cc        1 45R     -0.245300
     24 C24         0.3300    0.7450    5.4930 cc        1 45R      0.320200
     25 N25        -0.2640    0.4420    6.6720 nd        1 45R     -0.501800
     26 N26         0.0320   -0.8340    6.9370 na        1 45R     -0.008600
     27 C27         0.8260   -1.4130    5.9550 cd        1 45R     -0.104300
     28 HN18        8.6730   -1.7310   -6.2210 hn        1 45R      0.447300
     29 HN1A        7.3620   -1.8420   -7.2450 hn        1 45R      0.447300
     30 HN26       -0.3110   -1.2650    7.7650 hn        1 45R      0.331700
     31 H1          0.4360    1.9480    0.8620 h1        1 45R      0.053367
     32 H1A         1.5470    2.9860   -0.1740 h1        1 45R      0.053367
     33 H1B         1.6710    3.0540    1.6600 h1        1 45R      0.053367
     34 H4          1.0840    1.3760    2.9910 ha        1 45R      0.149000
     35 H6          2.6900   -2.4310    4.2660 ha        1 45R      0.143000
     36 H7          3.9900   -2.5960    2.1510 ha        1 45R      0.156000
     37 HN11        4.5490    1.1060    0.0360 hn        1 45R      0.342500
     38 H13         5.5660    2.4530   -1.5890 ha        1 45R      0.152000
     39 H14         6.9940    2.5990   -3.5810 ha        1 45R      0.141000
     40 H16         8.2590    1.6810   -5.2370 hc        1 45R      0.081700
     41 H16A        9.1180    0.1570   -4.7880 hc        1 45R      0.081700
     42 H17         7.9710    0.3950   -7.1660 hx        1 45R      0.104700
     43 H17A        6.3800    0.1730   -6.2730 hx        1 45R      0.104700
     44 H19         7.0190   -3.3790   -5.5420 hx        1 45R      0.107200
     45 H19A        5.8350   -1.9890   -5.3420 hx        1 45R      0.107200
     46 H20         7.1000   -2.9440   -3.2510 hc        1 45R      0.088200
     47 H20A        8.5600   -2.0510   -3.8330 hc        1 45R      0.088200
     48 H22         5.8670   -1.8960   -1.7210 ha        1 45R      0.183000
     49 H24         0.2520    1.7360    5.0440 h4        1 45R      0.046100
     50 H27         1.1610   -2.4490    6.0050 h4        1 45R      0.184000
@<TRIPOS>BOND
     1    1    2 1   
     2    1   31 1   
     3    1   32 1   
     4    1   33 1   
     5    2    3 1   
     6    3    4 ar  
     7    3    8 ar  
     8    4    5 ar  
     9    4   34 1   
    10    5    6 ar  
    11    5   23 1   
    12    6    7 ar  
    13    6   35 1   
    14    7    8 ar  
    15    7   36 1   
    16    8    9 1   
    17    9   10 2   
    18    9   11 1   
    19   11   12 1   
    20   11   37 1   
    21   12   13 ar  
    22   12   22 ar  
    23   13   14 ar  
    24   13   38 1   
    25   14   15 ar  
    26   14   39 1   
    27   15   16 1   
    28   15   21 ar  
    29   16   17 1   
    30   16   40 1   
    31   16   41 1   
    32   17   18 1   
    33   17   42 1   
    34   17   43 1   
    35   18   19 1   
    36   18   28 1   
    37   18   29 1   
    38   19   20 1   
    39   19   44 1   
    40   19   45 1   
    41   20   21 1   
    42   20   46 1   
    43   20   47 1   
    44   21   22 ar  
    45   22   48 1   
    46   23   24 1   
    47   23   27 2   
    48   24   25 2   
    49   24   49 1   
    50   25   26 1   
    51   26   27 1   
    52   26   30 1   
    53   27   50 1   
@<TRIPOS>SUBSTRUCTURE
     1 45R         1 TEMP              0 ****  ****    0 ROOT
