@<TRIPOS>MOLECULE
45R
   50    53     1     0     0
SMALL
bcc


@<TRIPOS>ATOM
      1 C1          1.4140    2.3810    0.7380 c3        1 45R      0.116700
      2 O2          2.4300    1.3870    0.6230 os        1 45R     -0.357900
      3 C3          2.4810    0.4330    1.6210 ca        1 45R      0.170100
      4 C4          1.7380    0.5340    2.8030 ca        1 45R     -0.213000
      5 C5          1.8300   -0.4620    3.7860 ca        1 45R      0.100000
      6 C6          2.6690   -1.5690    3.5580 ca        1 45R     -0.175000
      7 C7          3.3980   -1.6690    2.3830 ca        1 45R     -0.037000
      8 C8          3.3300   -0.6710    1.3990 ca        1 45R     -0.203600
      9 C9          4.1410   -0.8880    0.1730 c         1 45R      0.707700
     10 O10         4.2850   -2.0260   -0.3140 o         1 45R     -0.597100
     11 N11         4.7870    0.2280   -0.3680 n         1 45R     -0.459100
     12 C12         5.5770    0.2600   -1.5160 ca        1 45R      0.118600
     13 C13         5.8990    1.5160   -2.0940 ca        1 45R     -0.176000
     14 C14         6.6990    1.5870   -3.2240 ca        1 45R     -0.074000
     15 C15         7.2070    0.4320   -3.8290 ca        1 45R     -0.163300
     16 C16         8.0700    0.5590   -5.0300 c3        1 45R     -0.039100
     17 C17         7.4590   -0.1060   -6.2600 c3        1 45R      0.107800
     18 N18         7.6670   -1.5860   -6.3090 n4        1 45R     -0.761000
     19 C19         6.9320   -2.3410   -5.2470 c3        1 45R      0.109800
     20 C20         7.4490   -2.0760   -3.8380 c3        1 45R     -0.053100
     21 C21         6.9070   -0.8150   -3.2610 ca        1 45R     -0.077300
     22 C22         6.1050   -0.9030   -2.1240 ca        1 45R     -0.152000
     23 C23         1.0750   -0.3530    5.0010 cc        1 45R     -0.245300
     24 C24         0.3420    0.8020    5.4910 cc        1 45R      0.320200
     25 N25        -0.2420    0.5140    6.6790 nd        1 45R     -0.501800
     26 N26         0.0750   -0.7510    6.9690 na        1 45R     -0.008600
     27 C27         0.8740   -1.3380    5.9950 cd        1 45R     -0.104300
     28 HN18        7.3580   -1.9290   -7.2260 hn        1 45R      0.447300
     29 HN1A        8.6710   -1.7780   -6.2100 hn        1 45R      0.447300
     30 HN26       -0.2570   -1.1710    7.8070 hn        1 45R      0.331700
     31 H1          0.4070    1.9090    0.8360 h1        1 45R      0.053367
     32 H1A         1.4960    2.9440   -0.2270 h1        1 45R      0.053367
     33 H1B         1.6260    3.0520    1.6050 h1        1 45R      0.053367
     34 H4          1.0730    1.3930    2.9730 ha        1 45R      0.149000
     35 H6          2.7470   -2.3600    4.3180 ha        1 45R      0.143000
     36 H7          4.0400   -2.5470    2.2010 ha        1 45R      0.156000
     37 HN11        4.5300    1.1190    0.0080 hn        1 45R      0.342500
     38 H13         5.5190    2.4490   -1.6470 ha        1 45R      0.152000
     39 H14         6.9360    2.5770   -3.6480 ha        1 45R      0.141000
     40 H16         9.0930    0.1440   -4.8160 hc        1 45R      0.081700
     41 H16A        8.2080    1.6460   -5.2920 hc        1 45R      0.081700
     42 H17         6.3490    0.0890   -6.2890 hx        1 45R      0.104700
     43 H17A        7.9320    0.3180   -7.1930 hx        1 45R      0.104700
     44 H19         7.0460   -3.4370   -5.4910 hx        1 45R      0.107200
     45 H19A        5.8410   -2.0620   -5.3130 hx        1 45R      0.107200
     46 H20         7.1290   -2.9560   -3.2100 hc        1 45R      0.088200
     47 H20A        8.5730   -2.0530   -3.8150 hc        1 45R      0.088200
     48 H22         5.8870   -1.8970   -1.6940 ha        1 45R      0.183000
     49 H24         0.2470    1.7820    5.0220 h4        1 45R      0.046100
     50 H27         1.2250   -2.3670    6.0650 h4        1 45R      0.184000
@<TRIPOS>BOND
     1    1    2 1   
     2    1   31 1   
     3    1   32 1   
     4    1   33 1   
     5    2    3 1   
     6    3    4 ar  
     7    3    8 ar  
     8    4    5 ar  
     9    4   34 1   
    10    5    6 ar  
    11    5   23 1   
    12    6    7 ar  
    13    6   35 1   
    14    7    8 ar  
    15    7   36 1   
    16    8    9 1   
    17    9   10 2   
    18    9   11 1   
    19   11   12 1   
    20   11   37 1   
    21   12   13 ar  
    22   12   22 ar  
    23   13   14 ar  
    24   13   38 1   
    25   14   15 ar  
    26   14   39 1   
    27   15   16 1   
    28   15   21 ar  
    29   16   17 1   
    30   16   40 1   
    31   16   41 1   
    32   17   18 1   
    33   17   42 1   
    34   17   43 1   
    35   18   19 1   
    36   18   28 1   
    37   18   29 1   
    38   19   20 1   
    39   19   44 1   
    40   19   45 1   
    41   20   21 1   
    42   20   46 1   
    43   20   47 1   
    44   21   22 ar  
    45   22   48 1   
    46   23   24 1   
    47   23   27 2   
    48   24   25 2   
    49   24   49 1   
    50   25   26 1   
    51   26   27 1   
    52   26   30 1   
    53   27   50 1   
@<TRIPOS>SUBSTRUCTURE
     1 45R         1 TEMP              0 ****  ****    0 ROOT
