@<TRIPOS>MOLECULE
45S
   51    53     1     0     0
SMALL
bcc


@<TRIPOS>ATOM
      1 C10        -0.8020    0.0530   -0.7960 c         1 45S      0.714700
      2 C12         0.4500    0.4930   -0.2350 cc        1 45S     -0.273900
      3 O11        -1.8880    0.2450   -0.1800 o         1 45S     -0.689100
      4 C22         0.5390    1.4030    0.8590 cd        1 45S     -0.038000
      5 C23         1.9110    1.5980    1.1370 cd        1 45S     -0.209000
      6 C24         2.6500    0.8020    0.2200 cc        1 45S     -0.003600
      7 N25         1.7590    0.1440   -0.6100 na        1 45S     -0.158100
      8 C26         4.1150    0.6730    0.1250 c3        1 45S     -0.064800
      9 N3         -0.9010   -0.6930   -1.9940 n         1 45S     -0.479800
     10 C4         -2.2150   -0.7880   -2.6150 c3        1 45S      0.033700
     11 C6         -3.0470   -1.9790   -2.1130 c         1 45S      0.560100
     12 O8         -3.8080   -2.6780   -2.7680 o         1 45S     -0.472100
     13 C5         -2.0300   -0.8860   -4.1470 c3        1 45S     -0.085400
     14 C1         -0.5280   -0.9060   -4.3900 c3        1 45S     -0.097400
     15 C2          0.1360   -0.6760   -3.0230 c3        1 45S      0.065000
     16 N7         -2.9840   -2.2490   -0.6280 ny        1 45S     -0.688800
     17 C9         -4.0060   -3.2010   -0.0990 c3        1 45S      0.158100
     18 C13        -5.2780   -2.5170    0.3070 ca        1 45S     -0.105300
     19 C14        -6.5050   -2.6680   -0.3590 ca        1 45S     -0.158300
     20 C20        -6.6930   -3.4830   -1.5970 c3        1 45S      0.158100
     21 N21        -7.5050   -4.7150   -1.3340 nz        1 45S     -0.841600
     22 C15        -7.6320   -1.9830    0.1210 ca        1 45S     -0.102000
     23 C16        -7.5610   -1.1700    1.2480 ca        1 45S     -0.081000
     24 C17        -6.3380   -1.0260    1.9190 ca        1 45S      0.061400
     25 Cl         -6.2260   -0.0540    3.2840 cl        1 45S      0.027600
     26 C18        -5.2050   -1.6990    1.4420 ca        1 45S     -0.119000
     27 H19        -0.3140    1.8570    1.3610 ha        1 45S      0.179000
     28 H20         2.3420    2.2390    1.9040 ha        1 45S      0.186000
     29 H21         2.0070   -0.5040   -1.3120 hn        1 45S      0.301700
     30 H22         4.5910    1.2150    0.9810 hc        1 45S      0.076033
     31 H23         4.4910    1.1220   -0.8300 hc        1 45S      0.076033
     32 H24         4.4340   -0.4000    0.1620 hc        1 45S      0.076033
     33 H5         -2.8560    0.1140   -2.3470 h1        1 45S      0.127700
     34 H6         -2.5230   -1.7980   -4.5670 hc        1 45S      0.089700
     35 H7         -2.5020    0.0100   -4.6250 hc        1 45S      0.089700
     36 H1         -0.2040   -1.8870   -4.8210 hc        1 45S      0.086200
     37 H2         -0.2260   -0.1040   -5.1090 hc        1 45S      0.086200
     38 H3          0.6790    0.3090   -3.0300 h1        1 45S      0.073200
     39 H4          0.8640   -1.5050   -2.8020 h1        1 45S      0.073200
     40 H13        -3.0700   -1.3280   -0.1400 hn        1 45S      0.491800
     41 H8         -3.5570   -3.6980    0.8150 hx        1 45S      0.108700
     42 H9         -4.1760   -3.9990   -0.8740 hx        1 45S      0.108700
     43 H14        -5.7160   -3.8030   -2.0630 hx        1 45S      0.124200
     44 H15        -7.2560   -2.8720   -2.3670 hx        1 45S      0.124200
     45 H16        -7.0120   -5.3440   -0.6920 hn        1 45S      0.466800
     46 H17        -8.4020   -4.4570   -0.9040 hn        1 45S      0.466800
     47 H10        -8.5950   -2.0650   -0.4100 ha        1 45S      0.153000
     48 H11        -8.4610   -0.6370    1.6070 ha        1 45S      0.195000
     49 H12        -4.2480   -1.5850    1.9830 ha        1 45S      0.171000
     50 H72        -2.0440   -2.6150   -0.4230 hn        1 45S      0.491800
     51 H213       -7.6860   -5.2110   -2.2150 hn        1 45S      0.466800
@<TRIPOS>BOND
     1    1    2 1   
     2    1    3 2   
     3    1    9 1   
     4    2    4 2   
     5    2    7 1   
     6    4    5 1   
     7    4   27 1   
     8    5    6 2   
     9    5   28 1   
    10    6    7 1   
    11    6    8 1   
    12    7   29 1   
    13    8   30 1   
    14    8   31 1   
    15    8   32 1   
    16    9   10 1   
    17    9   15 1   
    18   10   11 1   
    19   10   13 1   
    20   10   33 1   
    21   11   12 2   
    22   11   16 1   
    23   13   14 1   
    24   13   34 1   
    25   13   35 1   
    26   14   15 1   
    27   14   36 1   
    28   14   37 1   
    29   15   38 1   
    30   15   39 1   
    31   16   17 1   
    32   16   40 1   
    33   16   50 1   
    34   17   18 1   
    35   17   41 1   
    36   17   42 1   
    37   18   19 ar  
    38   18   26 ar  
    39   19   20 1   
    40   19   22 ar  
    41   20   21 1   
    42   20   43 1   
    43   20   44 1   
    44   21   45 1   
    45   21   46 1   
    46   21   51 1   
    47   22   23 ar  
    48   22   47 1   
    49   23   24 ar  
    50   23   48 1   
    51   24   25 1   
    52   24   26 ar  
    53   26   49 1   
@<TRIPOS>SUBSTRUCTURE
     1 45S         1 TEMP              0 ****  ****    0 ROOT
