@<TRIPOS>MOLECULE
45S
   51    53     1     0     0
SMALL
bcc


@<TRIPOS>ATOM
      1 C10        -0.8060    0.0450   -0.7160 c         1 45S      0.714700
      2 C12         0.4510    0.4480   -0.1360 cc        1 45S     -0.273900
      3 O11        -1.8850    0.1880   -0.0770 o         1 45S     -0.689100
      4 C22         0.5480    1.2760    1.0200 cd        1 45S     -0.038000
      5 C23         1.9220    1.4560    1.2990 cd        1 45S     -0.209000
      6 C24         2.6540    0.7320    0.3190 cc        1 45S     -0.003600
      7 N25         1.7570    0.1330   -0.5480 na        1 45S     -0.158100
      8 C26         4.1190    0.6150    0.2010 c3        1 45S     -0.064800
      9 N3         -0.9130   -0.6100   -1.9650 n         1 45S     -0.479800
     10 C4         -2.2330   -0.6640   -2.5790 c3        1 45S      0.033700
     11 C6         -3.0570   -1.8910   -2.1580 c         1 45S      0.560100
     12 O8         -3.8230   -2.5420   -2.8540 o         1 45S     -0.472100
     13 C5         -2.0630   -0.6490   -4.1160 c3        1 45S     -0.085400
     14 C1         -0.5630   -0.6460   -4.3730 c3        1 45S     -0.097400
     15 C2          0.1130   -0.5150   -3.0000 c3        1 45S      0.065000
     16 N7         -2.9780   -2.2710   -0.6980 n4        1 45S     -0.688800
     17 C9         -3.9920   -3.2620   -0.2300 c3        1 45S      0.158100
     18 C13        -5.2610   -2.6150    0.2390 ca        1 45S     -0.105300
     19 C14        -6.4950   -2.7200   -0.4230 ca        1 45S     -0.158300
     20 C20        -6.6940   -3.4400   -1.7170 c3        1 45S      0.158100
     21 N21        -7.5010   -4.6910   -1.5380 n4        1 45S     -0.841600
     22 C15        -7.6180   -2.0750    0.1180 ca        1 45S     -0.102000
     23 C16        -7.5370   -1.3480    1.3010 ca        1 45S     -0.081000
     24 C17        -6.3080   -1.2520    1.9690 ca        1 45S      0.061400
     25 CL         -6.1830   -0.3840    3.4010 cl        1 45S      0.027600
     26 C18        -5.1780   -1.8840    1.4310 ca        1 45S     -0.119000
     27 H19        -0.3020    1.6890    1.5620 ha        1 45S      0.179000
     28 H20         2.3580    2.0400    2.1070 ha        1 45S      0.186000
     29 H21         2.0010   -0.4610   -1.2980 hn        1 45S      0.301700
     30 H22         4.4410   -0.4560    0.1560 hc        1 45S      0.076033
     31 H23         4.4840    1.1350   -0.7220 hc        1 45S      0.076033
     32 H24         4.6010    1.0950    1.0900 hc        1 45S      0.076033
     33 H5         -2.8740    0.2130   -2.2390 h1        1 45S      0.127700
     34 H6         -2.5570   -1.5290   -4.5970 hc        1 45S      0.089700
     35 H7         -2.5420    0.2790   -4.5210 hc        1 45S      0.089700
     36 H1         -0.2700    0.2080   -5.0350 hc        1 45S      0.086200
     37 H2         -0.2400   -1.5910   -4.8780 hc        1 45S      0.086200
     38 H3          0.8460   -1.3540   -2.8470 h1        1 45S      0.073200
     39 H4          0.6540    0.4710   -2.9390 h1        1 45S      0.073200
     40 H13        -3.0610   -1.3890   -0.1410 hn        1 45S      0.491800
     41 H8         -4.1680   -4.0020   -1.0610 hx        1 45S      0.108700
     42 H9         -3.5330   -3.8250    0.6400 hx        1 45S      0.108700
     43 H14        -5.7220   -3.7220   -2.2160 hx        1 45S      0.124200
     44 H15        -7.2670   -2.7750   -2.4340 hx        1 45S      0.124200
     45 H16        -8.3950   -4.4680   -1.0810 hn        1 45S      0.466800
     46 H17        -7.0000   -5.3640   -0.9500 hn        1 45S      0.466800
     47 H10        -8.5870   -2.1200   -0.4080 ha        1 45S      0.153000
     48 H11        -8.4340   -0.8470    1.7090 ha        1 45S      0.195000
     49 H12        -4.2160   -1.8070    1.9690 ha        1 45S      0.171000
     50 H72        -2.0350   -2.6480   -0.5300 hn        1 45S      0.491800
     51 H213       -7.6910   -5.1200   -2.4520 hn        1 45S      0.466800
@<TRIPOS>BOND
     1    1    2 1   
     2    1    3 2   
     3    1    9 1   
     4    2    4 2   
     5    2    7 1   
     6    4    5 1   
     7    4   27 1   
     8    5    6 2   
     9    5   28 1   
    10    6    7 1   
    11    6    8 1   
    12    7   29 1   
    13    8   30 1   
    14    8   31 1   
    15    8   32 1   
    16    9   10 1   
    17    9   15 1   
    18   10   11 1   
    19   10   13 1   
    20   10   33 1   
    21   11   12 2   
    22   11   16 1   
    23   13   14 1   
    24   13   34 1   
    25   13   35 1   
    26   14   15 1   
    27   14   36 1   
    28   14   37 1   
    29   15   38 1   
    30   15   39 1   
    31   16   17 1   
    32   16   40 1   
    33   16   50 1   
    34   17   18 1   
    35   17   41 1   
    36   17   42 1   
    37   18   19 ar  
    38   18   26 ar  
    39   19   20 1   
    40   19   22 ar  
    41   20   21 1   
    42   20   43 1   
    43   20   44 1   
    44   21   45 1   
    45   21   46 1   
    46   21   51 1   
    47   22   23 ar  
    48   22   47 1   
    49   23   24 ar  
    50   23   48 1   
    51   24   25 1   
    52   24   26 ar  
    53   26   49 1   
@<TRIPOS>SUBSTRUCTURE
     1 45S         1 TEMP              0 ****  ****    0 ROOT
