@<TRIPOS>MOLECULE
45T
   46    47     1     0     0
SMALL
bcc


@<TRIPOS>ATOM
      1 OAE         0.0000    0.0000    0.0000 o         1 45T     -0.627167
      2 PBA         1.4800    0.0000    0.0000 p5        1 45T      0.525700
      3 OAF         2.0160    0.0000    1.5180 o         1 45T     -0.627167
      4 OAC         2.0180    1.3140   -0.7580 o         1 45T     -0.627167
      5 CAL         2.0880   -1.4890   -0.8600 c3        1 45T     -0.060600
      6 CAJ         1.4770   -2.7350   -0.2140 c3        1 45T      0.239400
      7 OAS         1.9530   -3.9010   -0.8880 os        1 45T     -0.411600
      8 CAN         1.4400   -5.1270   -0.3610 c3        1 45T      0.184400
      9 CAY         2.0130   -6.3020   -1.1540 c3        1 45T      0.149100
     10 OAT         3.4270   -6.3680   -0.9550 os        1 45T     -0.416600
     11 CAK         4.1830   -5.6110   -1.9030 c3        1 45T      0.221400
     12 CAM         5.6750   -5.7530   -1.5950 c3        1 45T     -0.059600
     13 PBB         6.6400   -4.7890   -2.8040 p5        1 45T      0.527700
     14 OAG         8.1980   -4.8300   -2.4030 o         1 45T     -0.567500
     15 OAH         6.4460   -5.4210   -4.2720 o         1 45T     -0.567500
     16 OAD         6.1680   -3.3860   -2.8050 o         1 45T     -0.567500
     17 CAO         1.3700   -7.6050   -0.6720 c3        1 45T     -0.035700
     18 N9          1.8290   -8.7160   -1.5110 na        1 45T      0.245100
     19 C4          2.9820   -9.4330   -1.3420 cc        1 45T     -0.046200
     20 N3          3.9880   -9.3910   -0.4600 nc        1 45T     -0.536100
     21 C2          4.9970  -10.2280   -0.5410 cd        1 45T     -0.301200
     22 N2          6.0060  -10.1460    0.3860 nz        1 45T      0.324400
     23 N1          5.0720  -11.1750   -1.5180 ns        1 45T     -0.005400
     24 C6          4.0940  -11.2780   -2.4440 c         1 45T      0.589000
     25 O6          4.1510  -12.1230   -3.3220 o         1 45T     -0.773500
     26 C5          3.0010  -10.3830   -2.3690 cd        1 45T      0.045800
     27 N7          1.8760  -10.2030   -3.1040 nd        1 45T     -0.535000
     28 C8          1.1820   -9.2270   -2.5980 cc        1 45T      0.148400
     29 H3          1.8010   -1.4450   -1.9030 hc        1 45T      0.029200
     30 H4          3.1670   -1.5350   -0.7830 hc        1 45T      0.029200
     31 H5          0.3970   -2.6890   -0.2910 h1        1 45T     -0.015300
     32 H6          1.7630   -2.7790    0.8300 h1        1 45T     -0.015300
     33 H7          1.7250   -5.2200    0.6800 h1        1 45T     -0.025800
     34 H8          0.3590   -5.1300   -0.4410 h1        1 45T     -0.025800
     35 H9          1.8030   -6.1640   -2.2070 h1        1 45T      0.022700
     36 H10         3.9840   -5.9810   -2.9010 h1        1 45T      0.017700
     37 H11         3.8990   -4.5680   -1.8410 h1        1 45T      0.017700
     38 H12         5.8740   -5.3830   -0.5960 hc        1 45T      0.011700
     39 H13         5.9590   -6.7970   -1.6560 hc        1 45T      0.011700
     40 H16         0.2920   -7.5230   -0.7410 h1        1 45T      0.019200
     41 H17         1.6530   -7.7890    0.3570 h1        1 45T      0.019200
     42 H18         5.7750   -9.4540    1.0710 hn        1 45T      0.116133
     43 H19         6.8590   -9.8930   -0.0710 hn        1 45T      0.116133
     44 H20         5.8570  -11.7960   -1.5510 hn        1 45T      0.121500
     45 H21         0.2330   -8.8730   -2.9820 h5        1 45T      0.001100
     46 H23         6.1190  -11.0340    0.8350 hn        1 45T      0.116133
@<TRIPOS>BOND
     1    1    2 1   
     2    2    3 1   
     3    2    4 1   
     4    2    5 1   
     5    5    6 1   
     6    5   29 1   
     7    5   30 1   
     8    6    7 1   
     9    6   31 1   
    10    6   32 1   
    11    7    8 1   
    12    8    9 1   
    13    8   33 1   
    14    8   34 1   
    15    9   10 1   
    16    9   17 1   
    17    9   35 1   
    18   10   11 1   
    19   11   12 1   
    20   11   36 1   
    21   11   37 1   
    22   12   13 1   
    23   12   38 1   
    24   12   39 1   
    25   13   14 1   
    26   13   15 1   
    27   13   16 1   
    28   17   18 1   
    29   17   40 1   
    30   17   41 1   
    31   18   19 1   
    32   18   28 1   
    33   19   20 1   
    34   19   26 2   
    35   20   21 2   
    36   21   22 1   
    37   21   23 1   
    38   22   42 1   
    39   22   43 1   
    40   22   46 1   
    41   23   24 1   
    42   23   44 1   
    43   24   25 2   
    44   24   26 1   
    45   26   27 1   
    46   27   28 2   
    47   28   45 1   
@<TRIPOS>SUBSTRUCTURE
     1 45T         1 TEMP              0 ****  ****    0 ROOT
