@<TRIPOS>MOLECULE
45U
   55    57     1     0     0
SMALL
bcc


@<TRIPOS>ATOM
      1 O32         1.5430    0.1160    0.6760 o         1 45U     -0.589100
      2 C14         2.2220    0.9700    0.0750 c         1 45U      0.663100
      3 C5          3.7080    0.7790   -0.2070 c3        1 45U      0.065400
      4 O21         3.9610   -0.6160   -0.1240 os        1 45U     -0.390600
      5 C44         5.3590   -0.9220   -0.1530 c3        1 45U      0.137100
      6 C49         5.4640   -2.4400   -0.3360 c3        1 45U     -0.095400
      7 C48         6.3710   -2.9690    0.7650 c3        1 45U     -0.076400
      8 C47         6.9020   -1.7740    1.5450 c3        1 45U     -0.076400
      9 C45         6.0480   -0.5730    1.1700 c3        1 45U     -0.095400
     10 N1          1.6310    2.1340   -0.3940 n         1 45U     -0.468800
     11 C1          0.2730    2.5090   -0.0170 c3        1 45U      0.033700
     12 C7         -0.8000    1.9110   -0.9600 c         1 45U      0.651100
     13 O22        -1.6350    2.6430   -1.5290 o         1 45U     -0.626100
     14 C2          0.2150    4.0530   -0.0230 c3        1 45U     -0.088400
     15 C3          1.5260    4.5350   -0.6320 c3        1 45U     -0.090400
     16 C4          2.3980    3.2850   -0.8320 c3        1 45U      0.088000
     17 N23        -0.7890    0.5470   -1.1330 n         1 45U     -0.549900
     18 C24        -1.7940   -0.1310   -1.9080 c3        1 45U      0.131300
     19 C25        -3.0060   -0.5660   -1.1310 ca        1 45U     -0.109300
     20 C30        -3.9550    0.3860   -0.7430 ca        1 45U     -0.119500
     21 C29        -5.0960   -0.0070   -0.0470 ca        1 45U     -0.106500
     22 C28        -5.2930   -1.3570    0.2640 ca        1 45U     -0.130900
     23 C21        -6.5220   -1.7820    1.0080 ce        1 45U      0.652800
     24 N47        -7.2450   -2.7400    0.5120 n2        1 45U     -0.828100
     25 N46        -6.7120   -1.1200    2.2400 nh        1 45U     -0.960800
     26 C27        -4.3500   -2.3110   -0.1260 ca        1 45U     -0.106500
     27 C26        -3.2060   -1.9130   -0.8190 ca        1 45U     -0.119500
     28 H5          3.9820    1.1490   -1.2320 h1        1 45U      0.051700
     29 H5A         4.2980    1.3370    0.5690 h1        1 45U      0.051700
     30 H44         5.8380   -0.3760   -1.0100 h1        1 45U      0.036700
     31 H49         4.4450   -2.9010   -0.2740 hc        1 45U      0.055450
     32 H49A        5.8810   -2.6700   -1.3470 hc        1 45U      0.055450
     33 H48         5.7950   -3.6480    1.4440 hc        1 45U      0.044200
     34 H48A        7.2130   -3.5650    0.3340 hc        1 45U      0.044200
     35 H47         6.8600   -1.9630    2.6460 hc        1 45U      0.044200
     36 H47A        7.9730   -1.5830    1.2790 hc        1 45U      0.044200
     37 H45         6.6690    0.3490    1.0680 hc        1 45U      0.055450
     38 H45A        5.2740   -0.3820    1.9570 hc        1 45U      0.055450
     39 H1          0.0440    2.1100    1.0160 h1        1 45U      0.083700
     40 H2         -0.6630    4.4160   -0.6150 hc        1 45U      0.075200
     41 H2A         0.1040    4.4210    1.0260 hc        1 45U      0.075200
     42 H3          1.3460    5.0380   -1.6140 hc        1 45U      0.057200
     43 H3A         2.0380    5.2650    0.0400 hc        1 45U      0.057200
     44 H4          3.3540    3.3720   -0.2450 h1        1 45U      0.045200
     45 H4A         2.6660    3.1550   -1.9170 h1        1 45U      0.045200
     46 HN23       -0.2260   -0.0130   -0.5290 hn        1 45U      0.338500
     47 H24        -2.1320    0.5590   -2.7360 h1        1 45U      0.068200
     48 H24A       -1.3060   -1.0350   -2.3750 h1        1 45U      0.068200
     49 H30        -3.7900    1.4470   -0.9950 ha        1 45U      0.146500
     50 H29        -5.8440    0.7480    0.2380 ha        1 45U      0.140000
     51 HN47       -8.0570   -2.9990    1.0310 hn        1 45U      0.381400
     52 HN46       -6.2000   -0.2780    2.3620 hn        1 45U      0.399300
     53 HN4A       -7.6350   -1.0990    2.6040 hn        1 45U      0.399300
     54 H27        -4.5130   -3.3740    0.1080 ha        1 45U      0.140000
     55 H26        -2.4640   -2.6660   -1.1220 ha        1 45U      0.146500
@<TRIPOS>BOND
     1    1    2 2   
     2    2    3 1   
     3    2   10 1   
     4    3    4 1   
     5    3   28 1   
     6    3   29 1   
     7    4    5 1   
     8    5    6 1   
     9    5    9 1   
    10    5   30 1   
    11    6    7 1   
    12    6   31 1   
    13    6   32 1   
    14    7    8 1   
    15    7   33 1   
    16    7   34 1   
    17    8    9 1   
    18    8   35 1   
    19    8   36 1   
    20    9   37 1   
    21    9   38 1   
    22   10   11 1   
    23   10   16 1   
    24   11   12 1   
    25   11   14 1   
    26   11   39 1   
    27   12   13 2   
    28   12   17 1   
    29   14   15 1   
    30   14   40 1   
    31   14   41 1   
    32   15   16 1   
    33   15   42 1   
    34   15   43 1   
    35   16   44 1   
    36   16   45 1   
    37   17   18 1   
    38   17   46 1   
    39   18   19 1   
    40   18   47 1   
    41   18   48 1   
    42   19   20 ar  
    43   19   27 ar  
    44   20   21 ar  
    45   20   49 1   
    46   21   22 ar  
    47   21   50 1   
    48   22   23 1   
    49   22   26 ar  
    50   23   24 2   
    51   23   25 1   
    52   24   51 1   
    53   25   52 1   
    54   25   53 1   
    55   26   27 ar  
    56   26   54 1   
    57   27   55 1   
@<TRIPOS>SUBSTRUCTURE
     1 45U         1 TEMP              0 ****  ****    0 ROOT
