@<TRIPOS>MOLECULE
45U
   55    52     1     0     0
SMALL
bcc


@<TRIPOS>ATOM
      1 O32         0.3720    0.3960    1.2120 o         1 45U     -0.354000
      2 C14         1.6170    0.3870    1.1970 c1        1 45U      0.308000
      3 C5          2.4150    0.5030    2.5360 c3        1 45U     -0.035000
      4 O21         1.5780    1.0550    3.5410 os        1 45U     -0.248000
      5 C44         2.2830    1.3810    4.7960 c3        1 45U      0.026000
      6 C49         1.4980    0.6910    6.0780 c3        1 45U     -0.174000
      7 C48         1.8390    1.4010    7.1490 c3        1 45U     -0.155000
      8 C47         2.1720    2.8170    6.6010 c3        1 45U     -0.155000
      9 C45         2.2600    2.6500    5.0000 c3        1 45U     -0.174000
     10 N1          2.3190    0.3650   -0.0540 n2        1 45U     -0.327000
     11 C1          1.7000    0.3510   -1.4680 c3        1 45U      0.006000
     12 C7          1.0190   -0.8570   -1.7960 c1        1 45U      0.297000
     13 O22         1.6440   -1.9140   -1.8530 o         1 45U     -0.380000
     14 C2          2.9620    0.6540   -2.3970 c3        1 45U     -0.167000
     15 C3          3.8780    1.0300   -1.6160 c3        1 45U     -0.169000
     16 C4          3.5970    0.3530   -0.2270 c3        1 45U     -0.029000
     17 N23        -0.3220   -0.8200   -2.1920 n2        1 45U     -0.362000
     18 C24        -1.1340   -2.0330   -2.1230 c3        1 45U      0.003000
     19 C25        -2.4360   -1.8310   -2.9220 c2        1 45U     -0.093000
     20 C30        -3.4160   -1.0080   -2.4330 c2        1 45U     -0.127000
     21 C29        -4.6450   -0.9160   -3.0950 c1        1 45U     -0.096000
     22 C28        -4.8740   -1.6640   -4.2570 c1        1 45U     -0.113000
     23 C21        -6.2640   -1.6150   -4.9480 c2        1 45U      0.116000
     24 N47        -7.2210   -2.4200   -4.5500 n1        1 45U     -0.305000
     25 N46        -6.5070   -0.6770   -6.0370 n3        1 45U     -0.332000
     26 C27        -3.8850   -2.4950   -4.7510 c1        1 45U     -0.116000
     27 C26        -2.6660   -2.5870   -4.0950 c1        1 45U     -0.117000
     28 H5          2.7200   -0.3980    2.8190 h1        1 45U      0.091500
     29 H5A         3.2190    1.1070    2.3990 h1        1 45U      0.091500
     30 H44         3.2060    1.0640    4.7550 h1        1 45U      0.077000
     31 H49         1.7850   -0.2350    6.1860 hc        1 45U      0.095000
     32 H49A        0.5160    0.7300    5.9390 hc        1 45U      0.095000
     33 H48         2.6320    1.0060    7.5850 hc        1 45U      0.083750
     34 H48A        1.0850    1.4480    7.7840 hc        1 45U      0.083750
     35 H47         3.0260    3.1230    6.9550 hc        1 45U      0.083750
     36 H47A        1.4650    3.4430    6.8350 hc        1 45U      0.083750
     37 H45         3.0730    3.0620    4.6620 hc        1 45U      0.095000
     38 H45A        1.4930    3.0410    4.5850 hc        1 45U      0.095000
     39 H1          0.9730    1.0350   -1.5740 h1        1 45U      0.123000
     40 H2          3.2320   -0.1480   -2.8610 hc        1 45U      0.115000
     41 H2A         2.7490    1.3680   -3.0440 hc        1 45U      0.115000
     42 H3          4.7630    0.7440   -1.9650 hc        1 45U      0.096500
     43 H3A         3.8540    1.9790   -1.5250 hc        1 45U      0.096500
     44 H4          3.9240   -0.5680   -0.2350 h1        1 45U      0.084500
     45 H4A         4.0410    0.8610    0.4910 h1        1 45U      0.084500
     46 HN23       -0.7000   -0.0420   -2.4260 hn        1 45U      0.250000
     47 H24        -0.6300   -2.7860   -2.5040 h1        1 45U      0.110000
     48 H24A       -1.3600   -2.2340   -1.1490 h1        1 45U      0.110000
     49 H30        -3.2500   -0.4690   -1.5970 ha        1 45U      0.143000
     50 H29        -5.3480   -0.3290   -2.7440 ha        1 45U      0.151000
     51 HN47       -7.0700   -3.0080   -3.8680 DU        1 45U      0.150000
     52 HN46       -7.3370   -0.6430   -6.4370 hn        1 45U      0.194000
     53 HN4A       -5.8370   -0.1460   -6.3380 hn        1 45U      0.194000
     54 H27        -4.0470   -3.0260   -5.5750 ha        1 45U      0.139000
     55 H26        -1.9630   -3.1760   -4.4440 ha        1 45U      0.143000
@<TRIPOS>BOND
     1    1    2 1   
     2    2    3 1   
     3    3    4 1   
     4    3   28 1   
     5    3   29 1   
     6    4    5 1   
     7    5    6 1   
     8    5    9 1   
     9    5   30 1   
    10    6    7 1   
    11    6   31 1   
    12    6   32 1   
    13    7    8 1   
    14    7   33 1   
    15    7   34 1   
    16    8    9 1   
    17    8   35 1   
    18    8   36 1   
    19    9   37 1   
    20    9   38 1   
    21   10   11 1   
    22   10   16 1   
    23   11   12 1   
    24   11   14 1   
    25   11   39 1   
    26   12   13 1   
    27   14   15 1   
    28   14   40 1   
    29   14   41 1   
    30   15   16 1   
    31   15   42 1   
    32   15   43 1   
    33   16   44 1   
    34   16   45 1   
    35   17   18 1   
    36   17   46 1   
    37   18   19 1   
    38   18   47 1   
    39   18   48 1   
    40   19   20 1   
    41   19   27 1   
    42   20   21 1   
    43   20   49 1   
    44   21   50 1   
    45   22   23 1   
    46   22   26 1   
    47   23   24 1   
    48   23   25 1   
    49   25   52 1   
    50   25   53 1   
    51   26   54 1   
    52   27   55 1   
@<TRIPOS>SUBSTRUCTURE
     1 45U         1 TEMP              0 ****  ****    0 ROOT
