@<TRIPOS>MOLECULE
45Z
   40    42     1     0     0
SMALL
bcc


@<TRIPOS>ATOM
      1 N1         -1.4630   -0.8280   -2.0340 n1        1 45Z     -0.332800
      2 C1         -0.8020   -0.5940   -1.1060 cg        1 45Z      0.234800
      3 C2         -0.0020   -0.3080    0.0310 ca        1 45Z     -0.043000
      4 C3          1.3910   -0.2720   -0.0830 ca        1 45Z     -0.004000
      5 C4          2.1710    0.0100    1.0480 ca        1 45Z     -0.213200
      6 N2          3.6510    0.0390    0.9250 no        1 45Z      0.320200
      7 O1          4.1480   -0.1670   -0.1490 o         1 45Z     -0.201000
      8 O2          4.3080    0.2630    1.9060 o         1 45Z     -0.201000
      9 C5          1.5750    0.2670    2.2950 ca        1 45Z     -0.012000
     10 C6          0.1910    0.2320    2.4120 ca        1 45Z     -0.201000
     11 C7         -0.5970   -0.0550    1.2900 ca        1 45Z      0.194100
     12 O3         -1.9800   -0.1050    1.3080 os        1 45Z     -0.225200
     13 C8         -2.6000    0.0310    2.5490 ca        1 45Z      0.055100
     14 C9         -2.9110   -1.1180    3.2880 ca        1 45Z     -0.092000
     15 C10        -3.6730   -1.0100    4.4460 ca        1 45Z     -0.152000
     16 C11        -4.1270    0.2540    4.8740 ca        1 45Z      0.150900
     17 F          -4.8660    0.3550    6.0010 f         1 45Z     -0.119900
     18 C12        -3.8180    1.4150    4.1410 ca        1 45Z     -0.165000
     19 C13        -3.0500    1.2920    2.9810 ca        1 45Z      0.099100
     20 O4         -2.6010    2.4430    2.3330 os        1 45Z     -0.228200
     21 C14        -3.4520    3.0100    1.4010 ca        1 45Z      0.195100
     22 C19        -3.0020    4.2280    0.8390 ca        1 45Z     -0.041000
     23 C20        -1.7640    4.7970    1.2340 cg        1 45Z      0.234800
     24 N4         -0.7480    5.2580    1.5620 n1        1 45Z     -0.330800
     25 C18        -3.7940    4.8690   -0.1190 ca        1 45Z     -0.004000
     26 C15        -4.6720    2.4440    1.0080 ca        1 45Z     -0.201000
     27 C16        -5.4560    3.0830    0.0560 ca        1 45Z     -0.012000
     28 C17        -5.0160    4.2960   -0.5020 ca        1 45Z     -0.212200
     29 N3         -5.8590    4.9820   -1.5160 no        1 45Z      0.320200
     30 O5         -6.9090    4.4880   -1.8250 o         1 45Z     -0.201000
     31 O6         -5.4660    6.0130   -1.9930 o         1 45Z     -0.201000
     32 H1          1.8710   -0.4660   -1.0600 ha        1 45Z      0.188000
     33 H2          2.2020    0.4980    3.1750 ha        1 45Z      0.182000
     34 H4         -2.5590   -2.1010    2.9380 ha        1 45Z      0.168000
     35 H5         -3.9290   -1.9060    5.0330 ha        1 45Z      0.168000
     36 H6         -4.1640    2.4020    4.4830 ha        1 45Z      0.178000
     37 H7         -3.4560    5.8200   -0.5700 ha        1 45Z      0.189000
     38 H8         -5.0040    1.4890    1.4460 ha        1 45Z      0.167000
     39 H9         -6.4180    2.6400   -0.2620 ha        1 45Z      0.182000
     40 H3         -0.2870    0.4430    3.3810 ha        1 45Z      0.167000
@<TRIPOS>BOND
     1    1    2 3   
     2    2    3 1   
     3    3    4 ar  
     4    3   11 ar  
     5    4    5 ar  
     6    4   32 1   
     7    5    6 1   
     8    5    9 ar  
     9    6    7 1   
    10    6    8 1   
    11    9   10 ar  
    12    9   33 1   
    13   10   11 ar  
    14   10   40 1   
    15   11   12 1   
    16   12   13 1   
    17   13   14 ar  
    18   13   19 ar  
    19   14   15 ar  
    20   14   34 1   
    21   15   16 ar  
    22   15   35 1   
    23   16   17 1   
    24   16   18 ar  
    25   18   19 ar  
    26   18   36 1   
    27   19   20 1   
    28   20   21 1   
    29   21   22 ar  
    30   21   26 ar  
    31   22   23 1   
    32   22   25 ar  
    33   23   24 3   
    34   25   28 ar  
    35   25   37 1   
    36   26   27 ar  
    37   26   38 1   
    38   27   28 ar  
    39   27   39 1   
    40   28   29 1   
    41   29   30 1   
    42   29   31 1   
@<TRIPOS>SUBSTRUCTURE
     1 45Z         1 TEMP              0 ****  ****    0 ROOT
