@<TRIPOS>MOLECULE
45Z
   40    42     1     0     0
SMALL
bcc


@<TRIPOS>ATOM
      1 N1         -1.3480   -0.5690   -2.1420 n1        1 45Z     -0.364800
      2 C1         -0.7220    0.0050   -1.2370 cg        1 45Z      0.238800
      3 C2          0.0000    0.0000    0.0000 ca        1 45Z     -0.027000
      4 C3          1.3960    0.0000    0.0000 ca        1 45Z      0.060000
      5 C4          2.0840    0.0000    1.1940 ca        1 45Z     -0.503200
      6 N2          3.5640    0.0000    1.1920 no        1 45Z      1.052200
      7 O1          4.1710   -0.0000    0.1370 o         1 45Z     -0.441500
      8 O2          4.1740    0.0010    2.2460 o         1 45Z     -0.441500
      9 C5          1.3960    0.0010    2.3960 ca        1 45Z      0.039000
     10 C6          0.0150    0.0000    2.4110 ca        1 45Z     -0.190000
     11 C7         -0.6930    0.0000    1.2200 ca        1 45Z      0.212100
     12 O3         -2.0500    0.0050    1.2330 os        1 45Z     -0.197200
     13 C8         -2.6760    0.1090    2.4350 ca        1 45Z      0.038100
     14 C9         -3.0880   -1.0330    3.1030 ca        1 45Z     -0.051000
     15 C10        -3.7260   -0.9270    4.3260 ca        1 45Z     -0.100000
     16 C11        -3.9530    0.3180    4.8860 ca        1 45Z      0.117900
     17 F          -4.5760    0.4180    6.0800 f         1 45Z     -0.111900
     18 C12        -3.5420    1.4630    4.2230 ca        1 45Z     -0.134000
     19 C13        -2.8990    1.3620    3.0010 ca        1 45Z      0.102100
     20 O4         -2.4950    2.4840    2.3480 os        1 45Z     -0.202200
     21 C14        -3.3310    3.0200    1.4240 ca        1 45Z      0.201100
     22 C19        -2.9130    4.1060    0.6410 ca        1 45Z      0.008000
     23 C20        -1.6010    4.6550    0.8120 cg        1 45Z      0.222800
     24 N4         -0.5590    5.0920    0.9280 n1        1 45Z     -0.350800
     25 C18        -3.7820    4.6490   -0.3080 ca        1 45Z      0.044000
     26 C15        -4.6010    2.4930    1.2460 ca        1 45Z     -0.184000
     27 C16        -5.4490    3.0360    0.3000 ca        1 45Z      0.049000
     28 C17        -5.0440    4.1160   -0.4680 ca        1 45Z     -0.545200
     29 N3         -5.9620    4.6880   -1.4780 no        1 45Z      1.052200
     30 O5         -7.0720    4.2090   -1.6320 o         1 45Z     -0.440000
     31 O6         -5.6090    5.6360   -2.1540 o         1 45Z     -0.440000
     32 H1          1.8180   -0.3250   -0.9430 ha        1 45Z      0.142000
     33 H2          2.1900   -0.1210    3.1230 ha        1 45Z      0.151000
     34 H4         -2.6590   -1.8860    2.5930 ha        1 45Z      0.131000
     35 H5         -4.2430   -1.6610    4.9320 ha        1 45Z      0.136000
     36 H6         -3.5270    2.4210    4.7290 ha        1 45Z      0.144000
     37 H7         -3.6690    5.3220   -1.1490 ha        1 45Z      0.155000
     38 H8         -4.6740    1.6000    1.8540 ha        1 45Z      0.138000
     39 H9         -6.4050    2.8600   -0.1780 ha        1 45Z      0.154000
     40 H3         -0.5180   -0.1170    3.3470 ha        1 45Z      0.136000
@<TRIPOS>BOND
     1    1    2 3   
     2    2    3 1   
     3    3    4 ar  
     4    3   11 ar  
     5    4    5 ar  
     6    4   32 1   
     7    5    6 1   
     8    5    9 ar  
     9    6    7 1   
    10    6    8 1   
    11    9   10 ar  
    12    9   33 1   
    13   10   11 ar  
    14   10   40 1   
    15   11   12 1   
    16   12   13 1   
    17   13   14 ar  
    18   13   19 ar  
    19   14   15 ar  
    20   14   34 1   
    21   15   16 ar  
    22   15   35 1   
    23   16   17 1   
    24   16   18 ar  
    25   18   19 ar  
    26   18   36 1   
    27   19   20 1   
    28   20   21 1   
    29   21   22 ar  
    30   21   26 ar  
    31   22   23 1   
    32   22   25 ar  
    33   23   24 3   
    34   25   28 ar  
    35   25   37 1   
    36   26   27 ar  
    37   26   38 1   
    38   27   28 ar  
    39   27   39 1   
    40   28   29 1   
    41   29   30 1   
    42   29   31 1   
@<TRIPOS>SUBSTRUCTURE
     1 45Z         1 TEMP              0 ****  ****    0 ROOT
