@<TRIPOS>MOLECULE
460
   37    40     1     0     0
SMALL
bcc


@<TRIPOS>ATOM
      1 C1          0.1160    1.1850    0.1360 c3        1 460     -0.148400
      2 C2          1.5260    0.6850    0.1170 ca        1 460      0.413600
      3 C3          2.1570    0.3740    1.3440 ca        1 460     -0.241300
      4 C4          3.4720   -0.0850    1.3310 ca        1 460     -0.096000
      5 C5          4.1290   -0.2300    0.1090 ca        1 460     -0.216300
      6 C6          3.4250    0.0930   -1.0710 ca        1 460      0.475100
      7 N7          2.1490    0.5480   -1.0780 nb        1 460     -0.643000
      8 C8          4.0990   -0.0830   -2.3650 ce        1 460      0.010200
      9 N9          5.3910    0.5360   -2.5920 nu        1 460     -0.472800
     10 N10         5.7910    0.2480   -3.9080 n7        1 460     -0.567000
     11 C12         4.7490   -0.6180   -4.5380 c3        1 460      0.161000
     12 C13         3.7050   -0.8150   -3.4510 cf        1 460     -0.254000
     13 C14         2.5540   -1.6830   -3.6140 ca        1 460      0.516100
     14 C15         2.0430   -1.8790   -4.9460 ca        1 460     -0.234300
     15 C16         0.9530   -2.6830   -5.1450 ca        1 460     -0.129300
     16 C17         0.3390   -3.3250   -4.0200 ca        1 460      0.280300
     17 N18        -0.7580   -4.1420   -4.1950 nb        1 460     -0.649000
     18 C19        -1.2800   -4.7090   -3.1220 ca        1 460      0.407200
     19 C20        -0.7800   -4.5300   -1.7940 ca        1 460     -0.246300
     20 C21         0.3090   -3.7230   -1.5950 ca        1 460     -0.130300
     21 C22         0.9200   -3.0780   -2.7260 ca        1 460      0.297300
     22 N23         2.0130   -2.2660   -2.5410 nb        1 460     -0.645000
     23 H11        -0.5530    0.4810   -0.4180 hc        1 460      0.053700
     24 H12        -0.2480    1.2740    1.1880 hc        1 460      0.053700
     25 H13         0.0490    2.1890   -0.3530 hc        1 460      0.053700
     26 H3          1.6130    0.4980    2.2900 ha        1 460      0.142000
     27 H4          3.9860   -0.3320    2.2710 ha        1 460      0.139000
     28 H5          5.1650   -0.5910    0.0560 ha        1 460      0.156000
     29 HN9         5.3200    1.5420   -2.5010 hn        1 460      0.397800
     30 H10         6.6480   -0.2870   -3.8240 hn        1 460      0.364800
     31 H121        5.1650   -1.5950   -4.8960 h1        1 460      0.064200
     32 H122        4.3250   -0.0580   -5.4150 h1        1 460      0.064200
     33 H15         2.5340   -1.3680   -5.7850 ha        1 460      0.146000
     34 H16         0.5370   -2.8450   -6.1520 ha        1 460      0.155000
     35 H19        -2.1590   -5.3580   -3.2920 h4        1 460      0.024100
     36 H20        -1.2780   -5.0420   -0.9600 ha        1 460      0.145000
     37 H21         0.7280   -3.5570   -0.5900 ha        1 460      0.155000
@<TRIPOS>BOND
     1    1    2 1   
     2    1   23 1   
     3    1   24 1   
     4    1   25 1   
     5    2    3 ar  
     6    2    7 ar  
     7    3    4 ar  
     8    3   26 1   
     9    4    5 ar  
    10    4   27 1   
    11    5    6 ar  
    12    5   28 1   
    13    6    7 ar  
    14    6    8 1   
    15    8    9 1   
    16    8   12 2   
    17    9   10 1   
    18    9   29 1   
    19   10   11 1   
    20   10   30 1   
    21   11   12 1   
    22   11   31 1   
    23   11   32 1   
    24   12   13 1   
    25   13   14 ar  
    26   13   22 ar  
    27   14   15 ar  
    28   14   33 1   
    29   15   16 ar  
    30   15   34 1   
    31   16   17 ar  
    32   16   21 ar  
    33   17   18 ar  
    34   18   19 ar  
    35   18   35 1   
    36   19   20 ar  
    37   19   36 1   
    38   20   21 ar  
    39   20   37 1   
    40   21   22 ar  
@<TRIPOS>SUBSTRUCTURE
     1 460         1 TEMP              0 ****  ****    0 ROOT
