@<TRIPOS>MOLECULE
460
   37    35     1     0     0
SMALL
bcc


@<TRIPOS>ATOM
      1 C1         -4.1020    1.5140    2.5690 c3        1 460     -0.175000
      2 C2         -3.3880    0.2320    2.2100 c2        1 460     -0.005000
      3 C3         -3.4420   -0.8560    3.0690 c2        1 460     -0.177000
      4 C4         -2.8020   -2.0160    2.7410 c1        1 460     -0.090000
      5 C5         -2.1100   -2.1040    1.5690 c1        1 460     -0.172000
      6 C6         -2.0570   -1.0160    0.7120 c1        1 460      0.035000
      7 N7         -2.6960    0.1420    1.0400 n1        1 460     -0.118000
      8 C8         -1.2910   -1.1150   -0.5940 c2        1 460      0.002000
      9 N9         -1.8690   -1.5160   -1.6310 n3        1 460     -0.174000
     10 N10        -1.4980   -0.4230   -2.7320 n3        1 460     -0.212000
     11 C12        -0.2330    0.2480   -2.1890 c3        1 460     -0.077000
     12 C13        -0.2560   -0.2690   -0.8400 c2        1 460     -0.115000
     13 C14         1.0350   -0.4050   -0.0590 c2        1 460      0.077000
     14 C15         1.9650   -1.4340    0.0600 c2        1 460     -0.155000
     15 C16         3.2760   -1.2100   -0.2580 c1        1 460     -0.067000
     16 C17         3.6790    0.0430   -0.6980 c1        1 460     -0.045000
     17 N18         4.9940    0.2540   -1.0800 n2        1 460     -0.124000
     18 C19         5.3770    1.4690   -1.5710 c1        1 460     -0.057000
     19 C20         4.4460    2.4980   -1.6890 c1        1 460     -0.122500
     20 C21         3.1480    2.2920   -1.3130 c1        1 460     -0.122500
     21 C22         2.7590    1.0570   -0.8140 c1        1 460     -0.034000
     22 N23         1.4310    0.8280   -0.4910 n2        1 460     -0.128000
     23 H11        -5.0480    1.4400    2.3250 hc        1 460      0.095667
     24 H12        -4.0240    1.6720    3.5330 hc        1 460      0.095667
     25 H13        -3.6960    2.2610    2.0810 hc        1 460      0.095667
     26 H3         -3.9390   -0.7910    3.9080 ha        1 460      0.146000
     27 H4         -2.8400   -2.7820    3.3460 ha        1 460      0.141000
     28 H5         -1.6520   -2.9330    1.3340 ha        1 460      0.144000
     29 HN9        -2.5800   -2.0890   -1.6610 hn        1 460      0.180000
     30 H10        -2.1690    0.1920   -2.7880 hn        1 460      0.163000
     31 H121       -0.0830    1.2050   -2.3320 h1        1 460      0.113000
     32 H122        0.5380   -0.1310   -2.6580 h1        1 460      0.113000
     33 H15         1.6780   -2.3210    0.3510 ha        1 460      0.149000
     34 H16         3.9300   -1.9320   -0.1750 ha        1 460      0.155000
     35 H19         6.3040    1.6170   -1.8400 ha        1 460      0.161000
     36 H20         4.7210    3.3660   -2.0410 ha        1 460      0.150500
     37 H21         2.4950    3.0130   -1.3960 ha        1 460      0.150500
@<TRIPOS>BOND
     1    1    2 1   
     2    1   23 1   
     3    1   24 1   
     4    1   25 1   
     5    2    3 1   
     6    2    7 1   
     7    3    4 1   
     8    3   26 1   
     9    4   27 1   
    10    5    6 1   
    11    5   28 1   
    12    6    8 1   
    13    8    9 1   
    14    8   12 1   
    15    9   10 1   
    16    9   29 1   
    17   10   11 1   
    18   10   30 1   
    19   11   12 1   
    20   11   31 1   
    21   11   32 1   
    22   12   13 1   
    23   13   14 1   
    24   13   22 1   
    25   14   15 1   
    26   14   33 1   
    27   15   34 1   
    28   16   17 1   
    29   16   21 1   
    30   17   18 1   
    31   18   35 1   
    32   19   20 1   
    33   19   36 1   
    34   20   37 1   
    35   21   22 1   
@<TRIPOS>SUBSTRUCTURE
     1 460         1 TEMP              0 ****  ****    0 ROOT
