@<TRIPOS>MOLECULE
460
   37    40     1     0     0
SMALL
bcc


@<TRIPOS>ATOM
      1 C1          3.3650    2.1480   -0.2930 c3        1 460     -0.148400
      2 C2          2.7730    1.0330   -1.0950 ca        1 460      0.413600
      3 C3          3.6300    0.0360   -1.6150 ca        1 460     -0.241300
      4 C4          3.0830   -1.0010   -2.3670 ca        1 460     -0.096000
      5 C5          1.7060   -1.0300   -2.5850 ca        1 460     -0.216300
      6 C6          0.9180   -0.0010   -2.0240 ca        1 460      0.475100
      7 N7          1.4330    1.0200   -1.2960 nb        1 460     -0.643000
      8 C8         -0.5370   -0.0370   -2.2240 ce        1 460      0.010200
      9 N9         -1.0750   -0.1480   -3.5670 nh        1 460     -0.472800
     10 N10        -2.4770   -0.1210   -3.4810 n3        1 460     -0.567000
     11 C12        -2.8600   -0.0340   -2.0390 c3        1 460      0.161000
     12 C13        -1.5370   -0.0240   -1.2910 cf        1 460     -0.254000
     13 C14        -1.4520   -0.0450    0.1580 ca        1 460      0.516100
     14 C15        -2.5380    0.5350    0.9030 ca        1 460     -0.234300
     15 C16        -2.4960    0.5450    2.2710 ca        1 460     -0.129300
     16 C17        -1.3680   -0.0310    2.9430 ca        1 460      0.280300
     17 N18        -1.3040   -0.0360    4.3210 nb        1 460     -0.649000
     18 C19        -0.2410   -0.5820    4.8850 ca        1 460      0.407200
     19 C20         0.8430   -1.1680    4.1580 ca        1 460     -0.246300
     20 C21         0.8010   -1.1750    2.7890 ca        1 460     -0.130300
     21 C22        -0.3310   -0.5930    2.1190 ca        1 460      0.297300
     22 N23        -0.3850   -0.5940    0.7450 nb        1 460     -0.645000
     23 H11         3.1090    3.1380   -0.7470 hc        1 460      0.053700
     24 H12         2.9650    2.1290    0.7510 hc        1 460      0.053700
     25 H13         4.4760    2.0480   -0.2550 hc        1 460      0.053700
     26 H3          4.7100    0.0850   -1.4260 ha        1 460      0.142000
     27 H4          3.7270   -1.7890   -2.7840 ha        1 460      0.139000
     28 H5          1.2350   -1.8310   -3.1710 ha        1 460      0.156000
     29 HN9        -0.7820    0.6420   -4.1290 hn        1 460      0.396800
     30 H10        -2.7920   -1.0130   -3.8450 hn        1 460      0.364800
     31 H121       -3.5110   -0.8870   -1.7180 h1        1 460      0.064200
     32 H122       -3.4190    0.9280   -1.8920 h1        1 460      0.064200
     33 H15        -3.3860    0.9720    0.3570 ha        1 460      0.146000
     34 H16        -3.3100    0.9880    2.8660 ha        1 460      0.155000
     35 H19        -0.2160   -0.5710    5.9900 h4        1 460      0.024100
     36 H20         1.6880   -1.6000    4.7110 ha        1 460      0.145000
     37 H21         1.6130   -1.6150    2.1890 ha        1 460      0.155000
@<TRIPOS>BOND
     1    1    2 1   
     2    1   23 1   
     3    1   24 1   
     4    1   25 1   
     5    2    3 ar  
     6    2    7 ar  
     7    3    4 ar  
     8    3   26 1   
     9    4    5 ar  
    10    4   27 1   
    11    5    6 ar  
    12    5   28 1   
    13    6    7 ar  
    14    6    8 1   
    15    8    9 1   
    16    8   12 2   
    17    9   10 1   
    18    9   29 1   
    19   10   11 1   
    20   10   30 1   
    21   11   12 1   
    22   11   31 1   
    23   11   32 1   
    24   12   13 1   
    25   13   14 ar  
    26   13   22 ar  
    27   14   15 ar  
    28   14   33 1   
    29   15   16 ar  
    30   15   34 1   
    31   16   17 ar  
    32   16   21 ar  
    33   17   18 ar  
    34   18   19 ar  
    35   18   35 1   
    36   19   20 ar  
    37   19   36 1   
    38   20   21 ar  
    39   20   37 1   
    40   21   22 ar  
@<TRIPOS>SUBSTRUCTURE
     1 460         1 TEMP              0 ****  ****    0 ROOT
