@<TRIPOS>MOLECULE
460
   37    40     1     0     0
SMALL
bcc


@<TRIPOS>ATOM
      1 C1          0.0330    1.0460    0.0920 c3        1 460     -0.149400
      2 C2          1.4770    0.6550    0.0810 ca        1 460      0.418600
      3 C3          2.1430    0.4660    1.3140 ca        1 460     -0.243300
      4 C4          3.4890    0.1070    1.3060 ca        1 460     -0.090000
      5 C5          4.1420   -0.0560    0.0850 ca        1 460     -0.232300
      6 C6          3.4050    0.1470   -1.1020 ca        1 460      0.489100
      7 N7          2.0960    0.4990   -1.1140 nb        1 460     -0.639000
      8 C8          4.0780   -0.0390   -2.3950 ce        1 460      0.004200
      9 N9          5.2910    0.7020   -2.6870 nh        1 460     -0.466800
     10 N10         5.7450    0.3130   -3.9580 n3        1 460     -0.571000
     11 C12         4.7550   -0.6440   -4.5400 c3        1 460      0.164000
     12 C13         3.6950   -0.8000   -3.4630 cf        1 460     -0.250000
     13 C14         2.5230   -1.6440   -3.6210 ca        1 460      0.518100
     14 C15         1.9230   -1.7350   -4.9260 ca        1 460     -0.232300
     15 C16         0.8170   -2.5200   -5.1120 ca        1 460     -0.129300
     16 C17         0.2760   -3.2470   -4.0010 ca        1 460      0.281300
     17 N18        -0.8360   -4.0470   -4.1650 nb        1 460     -0.649000
     18 C19        -1.2890   -4.6930   -3.1050 ca        1 460      0.407200
     19 C20        -0.7010   -4.6150   -1.8030 ca        1 460     -0.246300
     20 C21         0.4040   -3.8270   -1.6170 ca        1 460     -0.130300
     21 C22         0.9420   -3.0980   -2.7340 ca        1 460      0.296300
     22 N23         2.0500   -2.3040   -2.5610 nb        1 460     -0.644000
     23 H11        -0.1070    2.0340   -0.4130 hc        1 460      0.054367
     24 H12        -0.5820    0.2850   -0.4500 hc        1 460      0.054367
     25 H13        -0.3370    1.1250    1.1430 hc        1 460      0.054367
     26 H3          1.6020    0.6020    2.2590 ha        1 460      0.143000
     27 H4          4.0310   -0.0470    2.2510 ha        1 460      0.139000
     28 H5          5.1990   -0.3460    0.0450 ha        1 460      0.142000
     29 HN9         6.0120    0.4730   -2.0140 hn        1 460      0.389800
     30 H10         5.7470    1.1580   -4.5190 hn        1 460      0.366800
     31 H121        4.3210   -0.2680   -5.5030 h1        1 460      0.063200
     32 H122        5.2840   -1.6140   -4.7340 h1        1 460      0.063200
     33 H15         2.3570   -1.1600   -5.7550 ha        1 460      0.145000
     34 H16         0.3330   -2.6030   -6.0980 ha        1 460      0.155000
     35 H19        -2.1810   -5.3270   -3.2650 h4        1 460      0.024100
     36 H20        -1.1450   -5.1890   -0.9790 ha        1 460      0.146000
     37 H21         0.8890   -3.7380   -0.6320 ha        1 460      0.155000
@<TRIPOS>BOND
     1    1    2 1   
     2    1   23 1   
     3    1   24 1   
     4    1   25 1   
     5    2    3 ar  
     6    2    7 ar  
     7    3    4 ar  
     8    3   26 1   
     9    4    5 ar  
    10    4   27 1   
    11    5    6 ar  
    12    5   28 1   
    13    6    7 ar  
    14    6    8 1   
    15    8    9 1   
    16    8   12 2   
    17    9   10 1   
    18    9   29 1   
    19   10   11 1   
    20   10   30 1   
    21   11   12 1   
    22   11   31 1   
    23   11   32 1   
    24   12   13 1   
    25   13   14 ar  
    26   13   22 ar  
    27   14   15 ar  
    28   14   33 1   
    29   15   16 ar  
    30   15   34 1   
    31   16   17 ar  
    32   16   21 ar  
    33   17   18 ar  
    34   18   19 ar  
    35   18   35 1   
    36   19   20 ar  
    37   19   36 1   
    38   20   21 ar  
    39   20   37 1   
    40   21   22 ar  
@<TRIPOS>SUBSTRUCTURE
     1 460         1 TEMP              0 ****  ****    0 ROOT
