@<TRIPOS>MOLECULE
460
   37    40     1     0     0
SMALL
bcc


@<TRIPOS>ATOM
      1 C1          0.0210    1.0460    0.0850 c3        1 460     -0.149400
      2 C2          1.4660    0.6580    0.0790 ca        1 460      0.418600
      3 C3          2.1280    0.4720    1.3140 ca        1 460     -0.243300
      4 C4          3.4750    0.1170    1.3110 ca        1 460     -0.090000
      5 C5          4.1320   -0.0460    0.0920 ca        1 460     -0.232300
      6 C6          3.3980    0.1530   -1.0980 ca        1 460      0.489100
      7 N7          2.0890    0.5010   -1.1140 nb        1 460     -0.639000
      8 C8          4.0760   -0.0330   -2.3880 ce        1 460      0.004200
      9 N9          5.2870    0.7120   -2.6790 nh        1 460     -0.466800
     10 N10         5.7460    0.3210   -3.9470 n3        1 460     -0.571000
     11 C12         4.7620   -0.6400   -4.5300 c3        1 460      0.164000
     12 C13         3.6990   -0.7980   -3.4560 cf        1 460     -0.250000
     13 C14         2.5310   -1.6460   -3.6150 ca        1 460      0.518100
     14 C15         1.9350   -1.7440   -4.9210 ca        1 460     -0.232300
     15 C16         0.8320   -2.5330   -5.1090 ca        1 460     -0.129300
     16 C17         0.2900   -3.2580   -3.9970 ca        1 460      0.281300
     17 N18        -0.8190   -4.0620   -4.1620 nb        1 460     -0.649000
     18 C19        -1.2730   -4.7070   -3.1020 ca        1 460      0.407200
     19 C20        -0.6900   -4.6230   -1.7990 ca        1 460     -0.246300
     20 C21         0.4120   -3.8300   -1.6110 ca        1 460     -0.130300
     21 C22         0.9520   -3.1030   -2.7280 ca        1 460      0.296300
     22 N23         2.0560   -2.3050   -2.5540 nb        1 460     -0.644000
     23 H11        -0.1170    2.0380   -0.4120 hc        1 460      0.054367
     24 H12        -0.3560    1.1150    1.1340 hc        1 460      0.054367
     25 H13        -0.5900    0.2890   -0.4670 hc        1 460      0.054367
     26 H3          1.5840    0.6100    2.2580 ha        1 460      0.143000
     27 H4          4.0150   -0.0330    2.2580 ha        1 460      0.139000
     28 H5          5.1910   -0.3340    0.0560 ha        1 460      0.142000
     29 HN9         6.0080    0.4860   -2.0020 hn        1 460      0.389800
     30 H10         5.7470    1.1650   -4.5100 hn        1 460      0.366800
     31 H121        5.2940   -1.6090   -4.7210 h1        1 460      0.063200
     32 H122        4.3290   -0.2680   -5.4950 h1        1 460      0.063200
     33 H15         2.3700   -1.1700   -5.7510 ha        1 460      0.145000
     34 H16         0.3530   -2.6210   -6.0960 ha        1 460      0.155000
     35 H19        -2.1630   -5.3440   -3.2630 h4        1 460      0.024100
     36 H20        -1.1350   -5.1960   -0.9740 ha        1 460      0.146000
     37 H21         0.8930   -3.7370   -0.6250 ha        1 460      0.155000
@<TRIPOS>BOND
     1    1    2 1   
     2    1   23 1   
     3    1   24 1   
     4    1   25 1   
     5    2    3 ar  
     6    2    7 ar  
     7    3    4 ar  
     8    3   26 1   
     9    4    5 ar  
    10    4   27 1   
    11    5    6 ar  
    12    5   28 1   
    13    6    7 ar  
    14    6    8 1   
    15    8    9 1   
    16    8   12 2   
    17    9   10 1   
    18    9   29 1   
    19   10   11 1   
    20   10   30 1   
    21   11   12 1   
    22   11   31 1   
    23   11   32 1   
    24   12   13 1   
    25   13   14 ar  
    26   13   22 ar  
    27   14   15 ar  
    28   14   33 1   
    29   15   16 ar  
    30   15   34 1   
    31   16   17 ar  
    32   16   21 ar  
    33   17   18 ar  
    34   18   19 ar  
    35   18   35 1   
    36   19   20 ar  
    37   19   36 1   
    38   20   21 ar  
    39   20   37 1   
    40   21   22 ar  
@<TRIPOS>SUBSTRUCTURE
     1 460         1 TEMP              0 ****  ****    0 ROOT
