@<TRIPOS>MOLECULE
461
   55    56     1     0     0
SMALL
bcc


@<TRIPOS>ATOM
      1 Cl1         3.0660    3.6270    3.2840 cl        1 461      0.085600
      2 C1          4.3030    2.9870    2.3870 cc        1 461      0.042300
      3 C2          5.6070    2.7820    2.8960 cd        1 461     -0.177000
      4 C3          6.4540    2.2350    1.9350 cd        1 461     -0.009000
      5 S2          4.1720    2.5190    0.8100 ss        1 461      0.227200
      6 C4          5.7860    2.0250    0.6910 cc        1 461     -0.258900
      7 C5          6.4100    1.5110   -0.4340 ce        1 461      0.296800
      8 C6          5.8010    1.3060   -1.6700 c2        1 461     -0.865300
      9 S1          6.4200    0.8520   -2.9690 s4        1 461      1.703100
     10 O2          5.6790    0.9470   -4.1080 o         1 461     -0.455900
     11 O1          7.7580    0.6000   -2.9970 o         1 461     -0.455900
     12 N1          5.9410   -1.5160   -2.7870 n8        1 461     -0.983800
     13 C12         5.4230   -2.0520   -4.0360 c3        1 461      0.063500
     14 C13         6.4680   -2.3860   -5.1160 c3        1 461     -0.103400
     15 C14         5.9610   -3.6800   -5.7790 c3        1 461      0.081000
     16 C50         4.6260   -3.3740   -3.8600 c         1 461      0.680500
     17 O3          3.8530   -3.5690   -2.9140 o         1 461     -0.593500
     18 N2          4.9390   -4.2540   -4.9030 n         1 461     -0.370000
     19 C15         4.3220   -5.4840   -5.1580 ca        1 461      0.093600
     20 C21         4.4780   -6.1720   -6.4050 ca        1 461      0.094900
     21 F1          5.2520   -5.6780   -7.4000 f         1 461     -0.121900
     22 C22         3.5060   -6.1080   -4.1830 ca        1 461     -0.140000
     23 C26         2.8700   -7.3170   -4.4300 ca        1 461     -0.082000
     24 C27         3.0120   -7.9650   -5.6610 ca        1 461     -0.176300
     25 C24         3.8220   -7.3910   -6.6400 ca        1 461     -0.128000
     26 C28         2.2440   -9.2250   -5.9390 c3        1 461      0.199800
     27 C7          1.3510   -9.0440   -7.1610 c3        1 461     -0.127100
     28 N3          3.2030  -10.4020   -6.0940 nx        1 461     -0.685400
     29 C11         3.8740  -10.7030   -4.8030 c3        1 461      0.081600
     30 C10         2.5150  -11.6120   -6.6120 c3        1 461      0.081600
     31 H2          5.9060    3.0300    3.9230 ha        1 461      0.207000
     32 H3          7.5110    1.9970    2.1050 ha        1 461      0.188000
     33 H51C        7.4910    1.2580   -0.3360 ha        1 461      0.164000
     34 H61C        4.7130    1.5660   -1.6750 h4        1 461      0.229000
     35 H1          6.8060   -1.9690   -2.5380 hn        1 461      0.403300
     36 H12         4.6900   -1.2880   -4.4460 h1        1 461      0.128700
     37 H131        6.5340   -1.5630   -5.8700 hc        1 461      0.088700
     38 H132        7.4890   -2.5470   -4.6870 hc        1 461      0.088700
     39 H141        5.5150   -3.4490   -6.7870 h1        1 461      0.084700
     40 H142        6.7980   -4.4180   -5.9160 h1        1 461      0.084700
     41 H22         3.3500   -5.6300   -3.1980 ha        1 461      0.193000
     42 H24         3.9440   -7.8610   -7.6300 ha        1 461      0.155000
     43 H26         2.2330   -7.7520   -3.6410 ha        1 461      0.155000
     44 H28         1.5920   -9.4800   -5.0480 hx        1 461      0.107700
     45 H71C        1.9440   -8.9500   -8.1030 hc        1 461      0.080033
     46 H72C        0.7660   -8.0980   -7.0230 hc        1 461      0.080033
     47 H73C        0.6250   -9.8870   -7.2620 hc        1 461      0.080033
     48 H111        4.3190   -9.7580   -4.3880 hx        1 461      0.105867
     49 H112        3.1250  -11.1160   -4.0770 hx        1 461      0.105867
     50 H113        4.6860  -11.4610   -4.9750 hx        1 461      0.105867
     51 H101        1.6170  -11.8360   -5.9760 hx        1 461      0.105867
     52 H102        2.1910  -11.4380   -7.6730 hx        1 461      0.105867
     53 H103        3.2230  -12.4840   -6.5790 hx        1 461      0.105867
     54 H121        5.2670   -1.6800   -2.0520 hn        1 461      0.403300
     55 H31         3.9220  -10.1210   -6.7740 hn        1 461      0.446800
@<TRIPOS>BOND
     1    1    2 1   
     2    2    3 2   
     3    2    5 1   
     4    3    4 1   
     5    3   31 1   
     6    4    6 2   
     7    4   32 1   
     8    5    6 1   
     9    6    7 1   
    10    7    8 2   
    11    7   33 1   
    12    8    9 1   
    13    8   34 1   
    14    9   10 1   
    15    9   11 1   
    16   12   13 1   
    17   12   35 1   
    18   12   54 1   
    19   13   14 1   
    20   13   16 1   
    21   13   36 1   
    22   14   15 1   
    23   14   37 1   
    24   14   38 1   
    25   15   18 1   
    26   15   39 1   
    27   15   40 1   
    28   16   17 2   
    29   16   18 1   
    30   18   19 1   
    31   19   20 ar  
    32   19   22 ar  
    33   20   21 1   
    34   20   25 ar  
    35   22   23 ar  
    36   22   41 1   
    37   23   24 ar  
    38   23   43 1   
    39   24   25 ar  
    40   24   26 1   
    41   25   42 1   
    42   26   27 1   
    43   26   28 1   
    44   26   44 1   
    45   27   45 1   
    46   27   46 1   
    47   27   47 1   
    48   28   29 1   
    49   28   30 1   
    50   28   55 1   
    51   29   48 1   
    52   29   49 1   
    53   29   50 1   
    54   30   51 1   
    55   30   52 1   
    56   30   53 1   
@<TRIPOS>SUBSTRUCTURE
     1 461         1 TEMP              0 ****  ****    0 ROOT
