@<TRIPOS>MOLECULE
461
   53    48     1     0     0
SMALL
bcc


@<TRIPOS>ATOM
      1 CL1         5.9110    1.0640    7.6960 cl        1 461      0.058000
      2 C1          6.0950    1.3620    5.9710 c2        1 461     -0.364000
      3 C2          6.7790    0.4860    5.0120 c1        1 461     -0.158000
      4 C3          6.6030    1.1120    3.5440 c1        1 461     -0.092000
      5 S2          5.4730    2.5440    5.1800 ss        1 461      0.611000
      6 C4          5.8220    2.3390    3.6610 c1        1 461     -0.426000
      7 C5          5.5520    3.3350    2.5450 c1        1 461     -0.406500
      8 C6          4.5030    3.1020    1.6190 c1        1 461     -0.406500
      9 S1          3.5180    1.6690    1.7550 ss        1 461      2.869000
     10 O2          4.2790    0.4890    1.4640 o         1 461     -0.939000
     11 O1          3.1360    1.4280    3.1070 o         1 461     -0.939000
     12 N1          2.2210    1.7880    0.7900 n2        1 461     -0.880000
     13 C12         2.3420    1.5410   -0.5730 c3        1 461      0.028000
     14 C13         2.8260    0.1220   -0.7860 c3        1 461     -0.194000
     15 C14         1.6590   -0.6770   -1.2820 c3        1 461     -0.017000
     16 C50         1.0190    1.5210   -1.1840 c2        1 461      0.307000
     17 O3          0.3050    2.5350   -1.4400 o         1 461     -0.323000
     18 N2          0.5520    0.1060   -1.1540 n         1 461     -0.299000
     19 C15        -0.8290   -0.3460   -1.2360 c2        1 461      0.030000
     20 C21        -1.5590   -0.1320   -2.3940 c2        1 461      0.097000
     21 F1         -0.9300    0.2300   -3.5070 f         1 461     -0.095000
     22 C22        -1.4300   -0.9360   -0.1310 c1        1 461     -0.119000
     23 C26        -2.7650   -1.3140   -0.1850 c1        1 461     -0.138000
     24 C27        -3.5080   -1.1000   -1.3560 c1        1 461     -0.048000
     25 C24        -2.9110   -0.5140   -2.4520 c1        1 461     -0.135000
     26 C28        -5.0080   -1.3890   -1.3700 c3        1 461      0.023000
     27 C7         -5.7980   -0.0470   -1.4260 c3        1 461     -0.212000
     28 N3         -5.3190   -2.1630   -2.4830 n3        1 461     -0.262000
     29 C11        -4.8160   -3.5010   -2.2900 c3        1 461     -0.121000
     30 C10        -6.7410   -2.2050   -2.6580 c3        1 461     -0.121000
     31 H2          7.2670   -0.3490    5.2330 DU        1 461      0.187500
     32 H3          6.9580    0.7360    2.7130 DU        1 461      0.187500
     33 H51C        6.0930    4.1270    2.4670 ha        1 461      0.149500
     34 H61C        4.3310    3.7470    0.9000 ha        1 461      0.149500
     35 H1          1.4330    1.9970    1.1330 hn        1 461      0.262000
     36 H12         2.9390    2.2550   -0.8390 h1        1 461      0.110000
     37 H131        3.1530   -0.2540    0.0700 hc        1 461      0.119000
     38 H132        3.5490    0.1110   -1.4550 hc        1 461      0.119000
     39 H141        1.7910   -0.9120   -2.2110 h1        1 461      0.091500
     40 H142        1.5620   -1.4540   -0.7670 h1        1 461      0.091500
     41 H22        -0.9010   -1.0900    0.7040 ha        1 461      0.142000
     42 H24        -3.4290   -0.3620   -3.2730 ha        1 461      0.167000
     43 H26        -3.2060   -1.7490    0.6300 ha        1 461      0.139000
     44 H28        -5.2430   -1.8580   -0.5860 h1        1 461      0.065000
     45 H71C       -5.2940    0.6430   -0.9670 hc        1 461      0.084667
     46 H72C       -5.9340    0.2200   -2.3740 hc        1 461      0.084667
     47 H73C       -6.7140   -0.1670   -0.9670 hc        1 461      0.084667
     48 H111       -3.9090   -3.5530   -2.6110 h1        1 461      0.073000
     49 H112       -5.3870   -4.1520   -2.7990 h1        1 461      0.073000
     50 H113       -4.8370   -3.7200   -1.3430 h1        1 461      0.073000
     51 H101       -7.1820   -2.3360   -1.7760 h1        1 461      0.073000
     52 H102       -7.0440   -1.3660   -3.0530 h1        1 461      0.073000
     53 H103       -6.9780   -2.9630   -3.2640 h1        1 461      0.073000
@<TRIPOS>BOND
     1    1    2 1   
     2    2    3 1   
     3    2    5 1   
     4    3    4 1   
     5    4    6 1   
     6    5    6 1   
     7    7    8 1   
     8    7   33 1   
     9    8   34 1   
    10    9   10 1   
    11    9   11 1   
    12   12   13 1   
    13   12   35 1   
    14   13   14 1   
    15   13   16 1   
    16   13   36 1   
    17   14   15 1   
    18   14   37 1   
    19   14   38 1   
    20   15   18 1   
    21   15   39 1   
    22   15   40 1   
    23   16   17 1   
    24   16   18 1   
    25   18   19 1   
    26   19   20 1   
    27   19   22 1   
    28   20   21 1   
    29   20   25 1   
    30   22   41 1   
    31   23   24 1   
    32   23   43 1   
    33   24   26 1   
    34   25   42 1   
    35   26   27 1   
    36   26   28 1   
    37   26   44 1   
    38   27   45 1   
    39   27   46 1   
    40   27   47 1   
    41   28   29 1   
    42   28   30 1   
    43   29   48 1   
    44   29   49 1   
    45   29   50 1   
    46   30   51 1   
    47   30   52 1   
    48   30   53 1   
@<TRIPOS>SUBSTRUCTURE
     1 461         1 TEMP              0 ****  ****    0 ROOT
