@<TRIPOS>MOLECULE
461
   53    55     1     0     0
SMALL
bcc


@<TRIPOS>ATOM
      1 CL1         3.8660   -5.0200   -1.4350 cl        1 461     -0.020400
      2 C1          4.2910   -3.4110   -1.5880 cc        1 461     -0.038700
      3 C2          5.2840   -2.9330   -2.4370 cd        1 461     -0.163000
      4 C3          5.4090   -1.5240   -2.3410 cd        1 461     -0.105000
      5 S2          3.5610   -2.1800   -0.7280 ss        1 461      0.155200
      6 C4          4.5070   -0.9840   -1.4250 cc        1 461     -0.165900
      7 C5          4.4060    0.4110   -1.1190 ce        1 461      0.143800
      8 C6          3.5510    0.9440   -0.2320 cf        1 461     -0.533100
      9 S1          3.4450    2.5490    0.1700 sy        1 461      1.524800
     10 O2          3.6700    2.7100    1.5520 o         1 461     -0.657800
     11 O1          4.2700    3.2950   -0.7010 o         1 461     -0.657800
     12 N1          1.8880    2.9170   -0.1610 n3        1 461     -0.890100
     13 C12         0.8300    2.8530    0.7920 c3        1 461      0.171500
     14 C13        -0.2030    4.0000    0.7120 c3        1 461     -0.104400
     15 C14        -1.5840    3.3290    0.7970 c3        1 461      0.086000
     16 C50        -0.0310    1.5590    0.6580 c         1 461      0.677500
     17 O3          0.4450    0.4170    0.5870 o         1 461     -0.622500
     18 N2         -1.3860    1.8920    0.6680 n         1 461     -0.377000
     19 C15        -2.4570    1.0030    0.4780 ca        1 461      0.046600
     20 C21        -3.7780    1.2990    0.9310 ca        1 461      0.078900
     21 F1         -4.0620    2.4600    1.5740 f         1 461     -0.146900
     22 C22        -2.2600   -0.2340   -0.1770 ca        1 461     -0.136000
     23 C26        -3.3080   -1.1230   -0.3730 ca        1 461     -0.120000
     24 C27        -4.5990   -0.8210    0.0710 ca        1 461     -0.078300
     25 C24        -4.8290    0.3910    0.7170 ca        1 461     -0.118000
     26 C28        -5.7170   -1.8230   -0.1180 c3        1 461      0.230800
     27 C7         -6.0210   -2.4500    1.2460 c3        1 461     -0.094100
     28 N3         -6.8900   -1.2060   -0.7570 n3        1 461     -0.736600
     29 C11        -6.6130   -0.7890   -2.1140 c3        1 461      0.155100
     30 C10        -8.0870   -2.0090   -0.6550 c3        1 461      0.155100
     31 H2          5.8960   -3.5540   -3.0950 ha        1 461      0.169000
     32 H3          6.1290   -0.9400   -2.9190 ha        1 461      0.163000
     33 H51C        5.1070    1.0690   -1.6780 ha        1 461      0.154000
     34 H61C        2.8530    0.2650    0.3030 h4        1 461      0.196000
     35 H1          1.6000    3.1670   -1.0770 hn        1 461      0.447800
     36 H12         1.2820    2.8270    1.8320 h1        1 461      0.114700
     37 H131       -0.0580    4.7090    1.5630 hc        1 461      0.069700
     38 H132       -0.1150    4.5820   -0.2380 hc        1 461      0.069700
     39 H141       -2.0630    3.5560    1.7910 h1        1 461      0.065200
     40 H142       -2.2690    3.6950   -0.0140 h1        1 461      0.065200
     41 H22        -1.2530   -0.5110   -0.5320 ha        1 461      0.166000
     42 H24        -5.8390    0.6520    1.0720 ha        1 461      0.165000
     43 H26        -3.1110   -2.0780   -0.8850 ha        1 461      0.139000
     44 H28        -5.3220   -2.6560   -0.7840 h1        1 461      0.025700
     45 H71C       -6.5030   -1.7110    1.9290 hc        1 461      0.044367
     46 H72C       -6.6920   -3.3350    1.1320 hc        1 461      0.044367
     47 H73C       -5.0620   -2.7900    1.7070 hc        1 461      0.044367
     48 H111       -6.4370   -1.6510   -2.8160 h1        1 461      0.033033
     49 H112       -7.4870   -0.1950   -2.4910 h1        1 461      0.033033
     50 H113       -5.7030   -0.1340   -2.1180 h1        1 461      0.033033
     51 H101       -8.4080   -2.0490    0.4190 h1        1 461      0.033033
     52 H102       -8.9060   -1.5240   -1.2500 h1        1 461      0.033033
     53 H103       -7.9520   -3.0610   -1.0300 h1        1 461      0.033033
@<TRIPOS>BOND
     1    1    2 1   
     2    2    3 2   
     3    2    5 1   
     4    3    4 1   
     5    3   31 1   
     6    4    6 2   
     7    4   32 1   
     8    5    6 1   
     9    6    7 1   
    10    7    8 2   
    11    7   33 1   
    12    8    9 1   
    13    8   34 1   
    14    9   10 2   
    15    9   11 2   
    16    9   12 1   
    17   12   13 1   
    18   12   35 1   
    19   13   14 1   
    20   13   16 1   
    21   13   36 1   
    22   14   15 1   
    23   14   37 1   
    24   14   38 1   
    25   15   18 1   
    26   15   39 1   
    27   15   40 1   
    28   16   17 2   
    29   16   18 1   
    30   18   19 1   
    31   19   20 ar  
    32   19   22 ar  
    33   20   21 1   
    34   20   25 ar  
    35   22   23 ar  
    36   22   41 1   
    37   23   24 ar  
    38   23   43 1   
    39   24   25 ar  
    40   24   26 1   
    41   25   42 1   
    42   26   27 1   
    43   26   28 1   
    44   26   44 1   
    45   27   45 1   
    46   27   46 1   
    47   27   47 1   
    48   28   29 1   
    49   28   30 1   
    50   29   48 1   
    51   29   49 1   
    52   29   50 1   
    53   30   51 1   
    54   30   52 1   
    55   30   53 1   
@<TRIPOS>SUBSTRUCTURE
     1 461         1 TEMP              0 ****  ****    0 ROOT
