@<TRIPOS>MOLECULE
461
   55    56     1     0     0
SMALL
bcc


@<TRIPOS>ATOM
      1 CL1         2.9170    3.7520    3.1490 cl        1 461      0.085600
      2 C1          4.1770    3.0890    2.3020 cc        1 461      0.042300
      3 C2          5.4600    2.8750    2.8570 cd        1 461     -0.177000
      4 C3          6.3330    2.3090    1.9310 cd        1 461     -0.009000
      5 S2          4.0940    2.6060    0.7270 ss        1 461      0.227200
      6 C4          5.7060    2.0920    0.6680 cc        1 461     -0.258900
      7 C5          6.3620    1.5600   -0.4310 ce        1 461      0.296800
      8 C6          5.7920    1.3480   -1.6840 c2        1 461     -0.865300
      9 S1          6.4500    0.8730   -2.9560 s4        1 461      1.703100
     10 O2          5.7500    0.9640   -4.1200 o         1 461     -0.455900
     11 O1          7.7860    0.6070   -2.9360 o         1 461     -0.455900
     12 N1          5.9390   -1.4870   -2.7650 n3        1 461     -0.983800
     13 C12         5.4570   -2.0310   -4.0260 c3        1 461      0.063500
     14 C13         6.5350   -2.3880   -5.0660 c3        1 461     -0.103400
     15 C14         6.0350   -3.6840   -5.7320 c3        1 461      0.081000
     16 C50         4.6400   -3.3430   -3.8630 c         1 461      0.680500
     17 O3          3.8340   -3.5190   -2.9410 o         1 461     -0.593500
     18 N2          4.9780   -4.2370   -4.8850 n         1 461     -0.370000
     19 C15         4.3570   -5.4630   -5.1470 ca        1 461      0.093600
     20 C21         4.5470   -6.1670   -6.3820 ca        1 461      0.094900
     21 F1          5.3600   -5.6920   -7.3550 f         1 461     -0.121900
     22 C22         3.5020   -6.0680   -4.1940 ca        1 461     -0.140000
     23 C26         2.8610   -7.2730   -4.4490 ca        1 461     -0.082000
     24 C27         3.0370   -7.9350   -5.6680 ca        1 461     -0.176300
     25 C24         3.8850   -7.3810   -6.6250 ca        1 461     -0.128000
     26 C28         2.2650   -9.1900   -5.9580 c3        1 461      0.199800
     27 C7          1.4160   -9.0140   -7.2120 c3        1 461     -0.127100
     28 N3          3.2150  -10.3800   -6.0680 n4        1 461     -0.685400
     29 C11         3.8400  -10.6730   -4.7520 c3        1 461      0.081600
     30 C10         2.5320  -11.5880   -6.5950 c3        1 461      0.081600
     31 H2          5.7260    3.1310    3.8910 ha        1 461      0.207000
     32 H3          7.3810    2.0610    2.1390 ha        1 461      0.188000
     33 H51C        7.4360    1.2960   -0.2930 ha        1 461      0.164000
     34 H61C        4.7090    1.6190   -1.7290 h4        1 461      0.229000
     35 H1          5.2400   -1.6360   -2.0520 hn        1 461      0.403300
     36 H12         4.7470   -1.2640   -4.4680 h1        1 461      0.128700
     37 H131        7.5390   -2.5550   -4.6020 hc        1 461      0.088700
     38 H132        6.6340   -1.5740   -5.8260 hc        1 461      0.088700
     39 H141        5.6260   -3.4590   -6.7570 h1        1 461      0.084700
     40 H142        6.8680   -4.4320   -5.8330 h1        1 461      0.084700
     41 H22         3.3180   -5.5770   -3.2200 ha        1 461      0.193000
     42 H24         4.0360   -7.8630   -7.6050 ha        1 461      0.155000
     43 H26         2.1930   -7.6920   -3.6780 ha        1 461      0.155000
     44 H28         1.5810   -9.4280   -5.0870 hx        1 461      0.107700
     45 H71C        0.6840   -9.8500   -7.3280 hc        1 461      0.080033
     46 H72C        0.8380   -8.0600   -7.1040 hc        1 461      0.080033
     47 H73C        2.0410   -8.9370   -8.1340 hc        1 461      0.080033
     48 H111        4.6480  -11.4410   -4.8870 hx        1 461      0.105867
     49 H112        4.2800   -9.7290   -4.3310 hx        1 461      0.105867
     50 H113        3.0620  -11.0700   -4.0470 hx        1 461      0.105867
     51 H101        1.6110  -11.7950   -5.9890 hx        1 461      0.105867
     52 H102        2.2470  -11.4220   -7.6690 hx        1 461      0.105867
     53 H103        3.2290  -12.4670   -6.5290 hx        1 461      0.105867
     54 H121        6.7900   -1.9460   -2.4830 hn        1 461      0.403300
     55 H31         3.9610  -10.1140   -6.7260 hn        1 461      0.446800
@<TRIPOS>BOND
     1    1    2 1   
     2    2    3 2   
     3    2    5 1   
     4    3    4 1   
     5    3   31 1   
     6    4    6 2   
     7    4   32 1   
     8    5    6 1   
     9    6    7 1   
    10    7    8 2   
    11    7   33 1   
    12    8    9 1   
    13    8   34 1   
    14    9   10 1   
    15    9   11 1   
    16   12   13 1   
    17   12   35 1   
    18   12   54 1   
    19   13   14 1   
    20   13   16 1   
    21   13   36 1   
    22   14   15 1   
    23   14   37 1   
    24   14   38 1   
    25   15   18 1   
    26   15   39 1   
    27   15   40 1   
    28   16   17 2   
    29   16   18 1   
    30   18   19 1   
    31   19   20 ar  
    32   19   22 ar  
    33   20   21 1   
    34   20   25 ar  
    35   22   23 ar  
    36   22   41 1   
    37   23   24 ar  
    38   23   43 1   
    39   24   25 ar  
    40   24   26 1   
    41   25   42 1   
    42   26   27 1   
    43   26   28 1   
    44   26   44 1   
    45   27   45 1   
    46   27   46 1   
    47   27   47 1   
    48   28   29 1   
    49   28   30 1   
    50   28   55 1   
    51   29   48 1   
    52   29   49 1   
    53   29   50 1   
    54   30   51 1   
    55   30   52 1   
    56   30   53 1   
@<TRIPOS>SUBSTRUCTURE
     1 461         1 TEMP              0 ****  ****    0 ROOT
