@<TRIPOS>MOLECULE
462
   51    41     1     0     0
SMALL
bcc


@<TRIPOS>ATOM
      1 C1         -4.0120   -0.9360   -6.3460 c3        1 462     -0.212000
      2 C2         -2.5500   -1.0370   -6.3370 c3        1 462     -0.165000
      3 C3         -2.0560   -1.1450   -4.9040 c3        1 462     -0.023000
      4 O1         -0.8800   -1.9810   -4.8610 os        1 462     -0.214000
      5 C4         -0.1740   -1.9270   -3.6310 c2        1 462      0.090000
      6 C5         -0.7200   -2.5200   -2.4920 c1        1 462     -0.203000
      7 C6         -0.0840   -2.3730   -1.2490 c1        1 462     -0.076000
      8 C7          1.1080   -1.6270   -1.1510 c1        1 462     -0.070000
      9 C8          1.6570   -1.0300   -2.2990 c1        1 462     -0.087000
     10 C9          1.0180   -1.1800   -3.5370 c2        1 462     -0.164000
     11 C10         1.7180   -1.4480    0.0920 c1        1 462     -0.036000
     12 C11         2.7330   -2.3320    0.6920 c1        1 462     -0.458000
     13 S1          3.1570   -1.7210    2.0440 ss        1 462      0.646000
     14 C12         2.3380   -0.3930    2.2480 c2        1 462     -0.375000
     15 C13         1.4730   -0.2190    1.0860 c1        1 462     -0.080000
     16 C14         0.5850    0.9810    0.8030 c2        1 462     -0.132000
     17 C15        -0.5940    0.9630    1.7390 c1        1 462      0.317000
     18 O2         -0.9960   -0.0730    2.1620 o         1 462     -0.370000
     19 N1         -1.1500    2.1850    2.2200 n2        1 462     -0.366000
     20 C16        -2.2770    2.1470    3.1240 c1        1 462      0.185000
     21 N2         -3.0550    1.0370    3.1860 n1        1 462     -0.328000
     22 N3         -2.5710    3.2790    3.9610 n2        1 462     -0.324000
     23 C17         2.4750    0.4770    3.2950 c1        1 462     -0.018000
     24 C18         3.2600    1.6270    3.1530 c1        1 462     -0.115250
     25 C19         3.5060    2.4460    4.2650 c1        1 462     -0.115250
     26 C20         2.9680    2.1130    5.5020 c1        1 462     -0.115250
     27 C21         2.1830    0.9610    5.6360 c1        1 462     -0.115250
     28 C22         1.9410    0.1500    4.5330 c1        1 462     -0.063000
     29 CL1         1.0730   -1.3530    4.7340 cl        1 462     -0.015000
     30 H11A       -4.3140   -0.7390   -7.2430 hc        1 462      0.076667
     31 H12        -4.3880   -1.7570   -6.0600 hc        1 462      0.076667
     32 H13        -4.2920   -0.2200   -5.7450 hc        1 462      0.076667
     33 H21A       -2.1540   -0.2080   -6.7700 hc        1 462      0.095500
     34 H22        -2.2780   -1.8230   -6.8350 hc        1 462      0.095500
     35 H31        -1.8330   -0.2450   -4.5680 h1        1 462      0.081000
     36 H32        -2.7750   -1.5480   -4.3300 h1        1 462      0.081000
     37 H5         -1.5870   -3.0640   -2.5640 ha        1 462      0.145000
     38 H6         -0.4820   -2.8060   -0.4220 ha        1 462      0.151000
     39 H8          2.4980   -0.5030   -2.2360 ha        1 462      0.134000
     40 H9          1.4150   -0.7490   -4.3700 ha        1 462      0.149000
     41 H11         3.0950   -3.1950    0.2860 DU        1 462      0.185500
     42 H141        0.2600    0.9360   -0.1490 ha        1 462      0.130000
     43 H142        1.0740    1.7700    0.9300 ha        1 462      0.130000
     44 HN1        -0.7730    2.9950    1.9790 hn        1 462      0.247000
     45 HN2        -2.8630    0.2970    2.6400 DU        1 462      0.185500
     46 HN31       -2.0250    3.9820    3.9670 hn        1 462      0.187500
     47 HN32       -3.2870    3.2600    4.5120 hn        1 462      0.187500
     48 H18         3.6340    1.8550    2.2890 ha        1 462      0.146250
     49 H19         4.0700    3.2770    4.1680 ha        1 462      0.146250
     50 H20         3.1440    2.7040    6.3090 ha        1 462      0.146250
     51 H21         1.7860    0.7140    6.5460 ha        1 462      0.146250
@<TRIPOS>BOND
     1    1    2 1   
     2    1   30 1   
     3    1   31 1   
     4    1   32 1   
     5    2    3 1   
     6    2   33 1   
     7    2   34 1   
     8    3    4 1   
     9    3   35 1   
    10    3   36 1   
    11    4    5 1   
    12    5    6 1   
    13    5   10 1   
    14    6   37 1   
    15    7    8 1   
    16    7   38 1   
    17    9   10 1   
    18    9   39 1   
    19   10   40 1   
    20   11   12 1   
    21   11   15 1   
    22   12   13 1   
    23   13   14 1   
    24   14   15 1   
    25   14   23 1   
    26   16   17 1   
    27   16   42 1   
    28   16   43 1   
    29   17   18 1   
    30   19   20 1   
    31   19   44 1   
    32   20   21 1   
    33   22   46 1   
    34   22   47 1   
    35   23   28 1   
    36   24   25 1   
    37   24   48 1   
    38   25   49 1   
    39   26   27 1   
    40   26   50 1   
    41   27   51 1   
@<TRIPOS>SUBSTRUCTURE
     1 462         1 TEMP              0 ****  ****    0 ROOT
