@<TRIPOS>MOLECULE
462
   53    54     1     0     0
SMALL
bcc


@<TRIPOS>ATOM
      1 C1        246.2610  -97.2370  -23.0950 c3        1 462     -0.214000
      2 C2        247.3970  -96.3900  -23.6060 c3        1 462     -0.165000
      3 C3        248.7110  -96.8480  -22.9980 c3        1 462     -0.025000
      4 O1        249.7150  -95.9720  -23.5400 os        1 462     -0.202000
      5 C4        251.0130  -96.2410  -23.1920 ca        1 462      0.119000
      6 C5        251.9770  -95.4410  -23.8450 ca        1 462     -0.183500
      7 C6        253.3200  -95.6160  -23.5500 ca        1 462     -0.087500
      8 C7        253.7290  -96.5730  -22.6050 ca        1 462     -0.131000
      9 C8        252.7650  -97.3760  -21.9820 ca        1 462     -0.087500
     10 C9        251.4110  -97.2120  -22.2630 ca        1 462     -0.183500
     11 C10       255.1370  -96.7630  -22.3120 c2        1 462     -0.010000
     12 C11       255.8510  -97.9320  -22.5230 c2        1 462     -0.464000
     13 S1        257.4370  -97.7900  -22.0820 ss        1 462      0.796000
     14 C12       257.3000  -96.2160  -21.5820 c2        1 462     -0.330000
     15 C13       255.9910  -95.7530  -21.7540 c2        1 462     -0.209000
     16 C14       255.5430  -94.3880  -21.4430 c3        1 462     -0.052000
     17 C15       254.8340  -94.3700  -20.1780 c1        1 462      0.444000
     18 O2        254.2380  -94.3780  -19.1880 o         1 462      0.089000
     19 N1      -1072.1570  418.5520  129.0960 n3        1 462     -0.390000
     20 C16     -1072.1210  418.0810  127.7690 c2        1 462      0.110000
     21 N2      -1072.9490  418.0990  126.7840 n2        1 462     -0.215000
     22 N3      -1070.8470  417.2830  127.4890 n4        1 462     -0.057000
     23 C17       258.4180  -95.4530  -21.0670 ca        1 462     -0.060000
     24 C18       259.4600  -95.0840  -21.9320 ca        1 462     -0.100000
     25 C19       260.5600  -94.3730  -21.4560 ca        1 462     -0.112000
     26 C20       260.6390  -94.0220  -20.1090 ca        1 462     -0.093000
     27 C21       259.6150  -94.3790  -19.2330 ca        1 462     -0.113000
     28 C22       258.5090  -95.0850  -19.7130 ca        1 462     -0.065000
     29 CL1       257.2780  -95.5160  -18.6100 cl        1 462     -0.037000
     30 H11A      246.1760  -97.1590  -21.9830 hc        1 462      0.083000
     31 H12       246.4140  -98.3110  -23.3630 hc        1 462      0.083000
     32 H13       245.2990  -96.8940  -23.5470 hc        1 462      0.083000
     33 H21A      247.4620  -96.4590  -24.7240 hc        1 462      0.101000
     34 H22       247.2250  -95.3120  -23.3500 hc        1 462      0.101000
     35 H31       248.9450  -97.9070  -23.2830 h1        1 462      0.084500
     36 H32       248.7000  -96.7470  -21.8810 h1        1 462      0.084500
     37 H5        251.6460  -94.7030  -24.5910 ha        1 462      0.161000
     38 H6        254.0740  -95.0250  -24.0930 ha        1 462      0.139000
     39 H8        253.0790  -98.1530  -21.2680 ha        1 462      0.139000
     40 H9        250.6710  -97.8540  -21.7630 ha        1 462      0.161000
     41 H11       255.4220  -98.8440  -22.9470 h4        1 462      0.205000
     42 H141      254.8230  -94.0070  -22.2360 hc        1 462      0.204500
     43 H142      256.4220  -93.6740  -21.3660 hc        1 462      0.204500
     44 HN1     -1073.0750  418.6850  129.4680 hn        1 462      0.246000
     45 HN2     -1073.8000  418.6150  126.8680 hn        1 462      0.242000
     46 HN31    -1070.0350  417.9030  127.5440 hn        1 462      0.273000
     47 HN32    -1070.8920  416.8640  126.5500 hn        1 462      0.273000
     48 H18       259.4070  -95.3630  -22.9970 ha        1 462      0.153000
     49 H19       261.3720  -94.0940  -22.1480 ha        1 462      0.161000
     50 H20       261.5140  -93.4690  -19.7300 ha        1 462      0.162000
     51 H21       259.6830  -94.1130  -18.1650 ha        1 462      0.167000
     52 H121    -1071.5000  419.2620  129.3370 hn        1 462      0.246000
     53 H33     -1070.7590  416.5390  128.1910 hn        1 462      0.273000
@<TRIPOS>BOND
     1    1    2 1   
     2    1   30 1   
     3    1   31 1   
     4    1   32 1   
     5    2    3 1   
     6    2   33 1   
     7    2   34 1   
     8    3    4 1   
     9    3   35 1   
    10    3   36 1   
    11    4    5 1   
    12    5    6 1   
    13    5   10 1   
    14    6    7 1   
    15    6   37 1   
    16    7    8 1   
    17    7   38 1   
    18    8    9 1   
    19    8   11 1   
    20    9   10 1   
    21    9   39 1   
    22   10   40 1   
    23   11   12 1   
    24   11   15 1   
    25   12   13 1   
    26   12   41 1   
    27   13   14 1   
    28   14   15 1   
    29   14   23 1   
    30   15   16 1   
    31   16   17 1   
    32   16   42 1   
    33   16   43 1   
    34   17   18 1   
    35   19   20 1   
    36   19   44 1   
    37   19   52 1   
    38   20   21 1   
    39   20   22 1   
    40   21   45 1   
    41   22   46 1   
    42   22   47 1   
    43   22   53 1   
    44   23   24 1   
    45   23   28 1   
    46   24   25 1   
    47   24   48 1   
    48   25   26 1   
    49   25   49 1   
    50   26   27 1   
    51   26   50 1   
    52   27   28 1   
    53   27   51 1   
    54   28   29 1   
@<TRIPOS>SUBSTRUCTURE
     1 462         1 TEMP              0 ****  ****    0 ROOT
