@<TRIPOS>MOLECULE
462
   53    54     1     0     0
SMALL
bcc


@<TRIPOS>ATOM
      1 C1        255.0960 -105.4980  -13.5890 c3        1 462     -0.214000
      2 C2        256.4080 -104.7820  -13.7780 c3        1 462     -0.165000
      3 C3        256.9950 -105.1120  -15.1400 c3        1 462     -0.025000
      4 O1        258.2380 -104.3900  -15.2090 os        1 462     -0.202000
      5 C4        258.9220 -104.4650  -16.3940 ca        1 462      0.119000
      6 C5        260.0660 -103.6400  -16.4700 ca        1 462     -0.183500
      7 C6        260.8430 -103.6550  -17.6180 ca        1 462     -0.087500
      8 C7        260.5080 -104.4880  -18.7000 ca        1 462     -0.131000
      9 C8        259.3600 -105.2840  -18.6220 ca        1 462     -0.087500
     10 C9        258.5690 -105.2850  -17.4760 ca        1 462     -0.183500
     11 C10       261.3160 -104.4880  -19.9050 c2        1 462     -0.010000
     12 C11       260.8750 -104.1240  -21.1680 c2        1 462     -0.464000
     13 S1        262.0660 -104.2350  -22.3080 ss        1 462      0.796000
     14 C12       263.2220 -104.7690  -21.2470 c2        1 462     -0.330000
     15 C13       262.6990 -104.8710  -19.9540 c2        1 462     -0.209000
     16 C14       263.4720 -105.2810  -18.7720 c3        1 462     -0.052000
     17 C15       263.1850 -106.6630  -18.4420 c1        1 462      0.444000
     18 O2        262.9180 -107.7540  -18.1680 o         1 462      0.089000
     19 N1      -1102.9400  457.1390  111.1720 n3        1 462     -0.390000
     20 C16     -1102.8820  457.0580  112.5770 c2        1 462      0.110000
     21 N2      -1101.9810  456.6940  113.4210 n2        1 462     -0.215000
     22 N3      -1104.2330  457.3770  113.2170 n4        1 462     -0.057000
     23 C17       264.5860 -105.0540  -21.6440 ca        1 462     -0.060000
     24 C18       265.4290 -103.9990  -22.0270 ca        1 462     -0.100000
     25 C19       266.7360 -104.2490  -22.4400 ca        1 462     -0.112000
     26 C20       267.2210 -105.5560  -22.4810 ca        1 462     -0.093000
     27 C21       266.4000 -106.6180  -22.1040 ca        1 462     -0.113000
     28 C22       265.0920 -106.3650  -21.6830 ca        1 462     -0.065000
     29 CL1       264.1100 -107.6910  -21.2410 cl        1 462     -0.037000
     30 H11A      255.2330 -106.6040  -13.6500 hc        1 462      0.083000
     31 H12       254.6700 -105.2500  -12.5870 hc        1 462      0.083000
     32 H13       254.3590 -105.1900  -14.3700 hc        1 462      0.083000
     33 H21A      256.2620 -103.6730  -13.6970 hc        1 462      0.101000
     34 H22       257.1340 -105.0820  -12.9790 hc        1 462      0.101000
     35 H31       257.2020 -106.2090  -15.2390 h1        1 462      0.084500
     36 H32       256.3200 -104.7730  -15.9680 h1        1 462      0.084500
     37 H5        260.3110 -102.9840  -15.6210 ha        1 462      0.161000
     38 H6        261.7070 -102.9770  -17.6950 ha        1 462      0.139000
     39 H8        259.0700 -105.9120  -19.4800 ha        1 462      0.139000
     40 H9        257.6700 -105.9180  -17.4360 ha        1 462      0.161000
     41 H11       259.8590 -103.7870  -21.3880 h4        1 462      0.205000
     42 H141      264.5880 -105.1860  -18.9570 hc        1 462      0.204500
     43 H142      263.1910 -104.6540  -17.8650 hc        1 462      0.204500
     44 HN1     -1102.2860  456.5580  110.6910 hn        1 462      0.246000
     45 HN2     -1101.0600  456.4860  113.0960 hn        1 462      0.242000
     46 HN31    -1104.9510  456.7740  112.7990 hn        1 462      0.273000
     47 HN32    -1104.1920  457.2080  114.2310 hn        1 462      0.273000
     48 H18       265.0500 -102.9650  -22.0030 ha        1 462      0.153000
     49 H19       267.3840 -103.4100  -22.7410 ha        1 462      0.161000
     50 H20       268.2520 -105.7540  -22.8170 ha        1 462      0.162000
     51 H21       266.7790 -107.6530  -22.1490 ha        1 462      0.167000
     52 H121    -1103.0610  458.0480  110.7810 hn        1 462      0.246000
     53 H33     -1104.4700  458.3580  113.0460 hn        1 462      0.273000
@<TRIPOS>BOND
     1    1    2 1   
     2    1   30 1   
     3    1   31 1   
     4    1   32 1   
     5    2    3 1   
     6    2   33 1   
     7    2   34 1   
     8    3    4 1   
     9    3   35 1   
    10    3   36 1   
    11    4    5 1   
    12    5    6 1   
    13    5   10 1   
    14    6    7 1   
    15    6   37 1   
    16    7    8 1   
    17    7   38 1   
    18    8    9 1   
    19    8   11 1   
    20    9   10 1   
    21    9   39 1   
    22   10   40 1   
    23   11   12 1   
    24   11   15 1   
    25   12   13 1   
    26   12   41 1   
    27   13   14 1   
    28   14   15 1   
    29   14   23 1   
    30   15   16 1   
    31   16   17 1   
    32   16   42 1   
    33   16   43 1   
    34   17   18 1   
    35   19   20 1   
    36   19   44 1   
    37   19   52 1   
    38   20   21 1   
    39   20   22 1   
    40   21   45 1   
    41   22   46 1   
    42   22   47 1   
    43   22   53 1   
    44   23   24 1   
    45   23   28 1   
    46   24   25 1   
    47   24   48 1   
    48   25   26 1   
    49   25   49 1   
    50   26   27 1   
    51   26   50 1   
    52   27   28 1   
    53   27   51 1   
    54   28   29 1   
@<TRIPOS>SUBSTRUCTURE
     1 462         1 TEMP              0 ****  ****    0 ROOT
