@<TRIPOS>MOLECULE
462
   53    54     1     0     0
SMALL
bcc


@<TRIPOS>ATOM
      1 C1         76.2830  -30.4450    3.2110 c3        1 462     -0.214000
      2 C2         77.2750  -29.4410    2.6860 c3        1 462     -0.165000
      3 C3         77.5540  -29.6970    1.2150 c3        1 462     -0.025000
      4 O1         78.5120  -28.6970    0.8230 os        1 462     -0.202000
      5 C4         78.8620  -28.6730   -0.5020 ca        1 462      0.119000
      6 C5         79.7000  -27.5980   -0.8720 ca        1 462     -0.183500
      7 C6         80.1310  -27.4910   -2.1840 ca        1 462     -0.087500
      8 C7         79.7490  -28.4430   -3.1460 ca        1 462     -0.131000
      9 C8         78.9000  -29.4910   -2.7720 ca        1 462     -0.087500
     10 C9         78.4600  -29.6180   -1.4570 ca        1 462     -0.183500
     11 C10        80.1910  -28.3170   -4.5220 c2        1 462     -0.010000
     12 C11        79.3610  -28.1480   -5.6200 c2        1 462     -0.464000
     13 S1         80.2050  -28.0320   -7.0350 ss        1 462      0.796000
     14 C12        81.6910  -28.2010   -6.3230 c2        1 462     -0.330000
     15 C13        81.5640  -28.3520   -4.9390 c2        1 462     -0.209000
     16 C14        82.6950  -28.4880   -4.0080 c3        1 462     -0.052000
     17 C15        82.8620  -29.8760   -3.6240 c1        1 462      0.444000
     18 O2         82.9580  -30.9800   -3.2980 o         1 462      0.089000
     19 N1       -325.8270  130.4180   46.1210 n8        1 462     -0.390000
     20 C16      -326.3510  129.1520   46.4460 c2        1 462      0.110000
     21 N2       -325.8360  127.9970   46.6840 n2        1 462     -0.215000
     22 N3       -327.8800  129.1460   46.3990 nz        1 462     -0.057000
     23 C17        82.9320  -28.1660   -7.0710 ca        1 462     -0.060000
     24 C18        83.3530  -26.9610   -7.6550 ca        1 462     -0.100000
     25 C19        84.5280  -26.9060   -8.4020 ca        1 462     -0.112000
     26 C20        85.3000  -28.0550   -8.5810 ca        1 462     -0.093000
     27 C21        84.9000  -29.2620   -8.0080 ca        1 462     -0.113000
     28 C22        83.7250  -29.3130   -7.2530 ca        1 462     -0.065000
     29 Cl1        83.2590  -30.8100   -6.5770 cl        1 462     -0.037000
     30 H11A       76.6760  -31.4850    3.1080 hc        1 462      0.083000
     31 H12        75.3160  -30.3760    2.6570 hc        1 462      0.083000
     32 H13        76.0830  -30.2500    4.2930 hc        1 462      0.083000
     33 H21A       76.8800  -28.3990    2.8120 hc        1 462      0.101000
     34 H22        78.2360  -29.5040    3.2610 hc        1 462      0.101000
     35 H31        76.6240  -29.5850    0.5990 h1        1 462      0.084500
     36 H32        77.9980  -30.7140    1.0550 h1        1 462      0.084500
     37 H5         79.9830  -26.8520   -0.1140 ha        1 462      0.161000
     38 H6         80.7460  -26.6270   -2.4830 ha        1 462      0.139000
     39 H8         78.5670  -30.2210   -3.5260 ha        1 462      0.139000
     40 H9         77.7920  -30.4480   -1.1850 ha        1 462      0.161000
     41 H11        78.2720  -28.0840   -5.5590 h4        1 462      0.205000
     42 H141       82.5090  -27.8960   -3.0540 hc        1 462      0.204500
     43 H142       83.6630  -28.1330   -4.4820 hc        1 462      0.204500
     44 HN1      -324.9120  130.4020   45.7200 hn        1 462      0.246000
     45 HN2      -324.8430  127.9090   46.7550 hn        1 462      0.242000
     46 HN31     -328.2480  129.7520   47.1370 hn        1 462      0.273000
     47 HN32     -328.2330  128.1890   46.5350 hn        1 462      0.273000
     48 H18        82.7450  -26.0520   -7.5230 ha        1 462      0.153000
     49 H19        84.8430  -25.9530   -8.8570 ha        1 462      0.161000
     50 H20        86.2240  -28.0140   -9.1800 ha        1 462      0.162000
     51 H21        85.5020  -30.1720   -8.1600 ha        1 462      0.167000
     52 H121     -325.9830  131.1500   46.7800 hn        1 462      0.246000
     53 H33      -328.1860  129.4960   45.4830 hn        1 462      0.273000
@<TRIPOS>BOND
     1    1    2 1   
     2    1   30 1   
     3    1   31 1   
     4    1   32 1   
     5    2    3 1   
     6    2   33 1   
     7    2   34 1   
     8    3    4 1   
     9    3   35 1   
    10    3   36 1   
    11    4    5 1   
    12    5    6 1   
    13    5   10 1   
    14    6    7 1   
    15    6   37 1   
    16    7    8 1   
    17    7   38 1   
    18    8    9 1   
    19    8   11 1   
    20    9   10 1   
    21    9   39 1   
    22   10   40 1   
    23   11   12 1   
    24   11   15 1   
    25   12   13 1   
    26   12   41 1   
    27   13   14 1   
    28   14   15 1   
    29   14   23 1   
    30   15   16 1   
    31   16   17 1   
    32   16   42 1   
    33   16   43 1   
    34   17   18 1   
    35   19   20 1   
    36   19   44 1   
    37   19   52 1   
    38   20   21 1   
    39   20   22 1   
    40   21   45 1   
    41   22   46 1   
    42   22   47 1   
    43   22   53 1   
    44   23   24 1   
    45   23   28 1   
    46   24   25 1   
    47   24   48 1   
    48   25   26 1   
    49   25   49 1   
    50   26   27 1   
    51   26   50 1   
    52   27   28 1   
    53   27   51 1   
    54   28   29 1   
@<TRIPOS>SUBSTRUCTURE
     1 462         1 TEMP              0 ****  ****    0 ROOT
