@<TRIPOS>MOLECULE
462
   51    53     1     0     0
SMALL
bcc


@<TRIPOS>ATOM
      1 C1          8.8490    0.6640   -0.6180 c3        1 462     -0.094100
      2 C2          7.9810   -0.5410   -0.3680 c3        1 462     -0.086400
      3 C3          6.5120   -0.1530   -0.4020 c3        1 462      0.127400
      4 O1          5.7830   -1.3630   -0.1570 os        1 462     -0.330900
      5 C4          4.4090   -1.2440   -0.1350 ca        1 462      0.134100
      6 C5          3.7180   -2.4460    0.1190 ca        1 462     -0.183000
      7 C6          2.3320   -2.4360    0.1620 ca        1 462     -0.082000
      8 C7          1.6090   -1.2450   -0.0390 ca        1 462     -0.066000
      9 C8          2.3120   -0.0620   -0.2920 ca        1 462     -0.082000
     10 C9          3.7050   -0.0530   -0.3410 ca        1 462     -0.183000
     11 C10         0.1590   -1.2880   -0.0020 cc        1 462     -0.038000
     12 C11        -0.5810   -2.3090   -0.5810 cd        1 462     -0.189100
     13 S1         -2.2040   -2.1390   -0.3280 ss        1 462      0.111200
     14 C12        -2.0390   -0.7290    0.5640 cd        1 462     -0.097100
     15 C13        -0.7030   -0.3460    0.6640 cc        1 462     -0.091300
     16 C14        -0.2170    0.8320    1.4050 c3        1 462     -0.091100
     17 C15        -0.1780    2.1200    0.5910 c         1 462      0.675100
     18 O2          0.8340    2.8510    0.6280 o         1 462     -0.628100
     19 N1         -1.2940    2.4380   -0.1570 n         1 462     -0.493400
     20 C16        -1.4870    3.6880   -0.8380 c2        1 462      0.645800
     21 N2         -2.7100    4.1590   -0.8740 n2        1 462     -0.867100
     22 N3         -0.3610    4.2570   -1.5080 nh        1 462     -0.918800
     23 C17        -3.1760   -0.0810    1.1830 ca        1 462     -0.025000
     24 C18        -3.2530   -0.0260    2.5850 ca        1 462     -0.109000
     25 C19        -4.3360    0.5790    3.2170 ca        1 462     -0.129000
     26 C20        -5.3620    1.1430    2.4590 ca        1 462     -0.112000
     27 C21        -5.3080    1.0960    1.0680 ca        1 462     -0.114000
     28 C22        -4.2220    0.4840    0.4310 ca        1 462      0.020400
     29 CL1        -4.2010    0.4400   -1.2680 cl        1 462     -0.077400
     30 H11A        9.9260    0.3710   -0.5910 hc        1 462      0.037367
     31 H12         8.6300    1.1110   -1.6170 hc        1 462      0.037367
     32 H13         8.6760    1.4450    0.1620 hc        1 462      0.037367
     33 H21A        8.1730   -1.3270   -1.1450 hc        1 462      0.056700
     34 H22         8.2200   -0.9940    0.6290 hc        1 462      0.056700
     35 H31         6.2740    0.5970    0.3970 h1        1 462      0.041200
     36 H32         6.2260    0.2600   -1.4050 h1        1 462      0.041200
     37 H5          4.2870   -3.3720    0.2790 ha        1 462      0.145500
     38 H6          1.7870   -3.3720    0.3600 ha        1 462      0.141000
     39 H8          1.7660    0.8810   -0.4560 ha        1 462      0.141000
     40 H9          4.2290    0.8920   -0.5400 ha        1 462      0.145500
     41 H11        -0.1470   -3.1340   -1.1480 h4        1 462      0.179000
     42 H141       -0.8720    1.0210    2.3010 hc        1 462      0.090700
     43 H142        0.8320    0.6450    1.7720 hc        1 462      0.090700
     44 HN1        -2.0970    1.8470   -0.0840 hn        1 462      0.350500
     45 HN2        -2.8300    4.9970   -1.3990 hn        1 462      0.399400
     46 HN31        0.5220    3.8410   -1.2960 hn        1 462      0.402300
     47 HN32       -0.3300    5.2520   -1.4340 hn        1 462      0.402300
     48 H18        -2.4460   -0.4760    3.1840 ha        1 462      0.144000
     49 H19        -4.3800    0.6120    4.3160 ha        1 462      0.140000
     50 H20        -6.2160    1.6270    2.9560 ha        1 462      0.141000
     51 H21        -6.1140    1.5460    0.4670 ha        1 462      0.154000
@<TRIPOS>BOND
     1    1    2 1   
     2    1   30 1   
     3    1   31 1   
     4    1   32 1   
     5    2    3 1   
     6    2   33 1   
     7    2   34 1   
     8    3    4 1   
     9    3   35 1   
    10    3   36 1   
    11    4    5 1   
    12    5    6 ar  
    13    5   10 ar  
    14    6    7 ar  
    15    6   37 1   
    16    7    8 ar  
    17    7   38 1   
    18    8    9 ar  
    19    8   11 1   
    20    9   10 ar  
    21    9   39 1   
    22   10   40 1   
    23   11   12 2   
    24   11   15 1   
    25   12   13 1   
    26   12   41 1   
    27   13   14 1   
    28   14   15 2   
    29   14   23 1   
    30   15   16 1   
    31   16   17 1   
    32   16   42 1   
    33   16   43 1   
    34   17   18 2   
    35   17   19 1   
    36   19   20 1   
    37   19   44 1   
    38   20   21 2   
    39   20   22 1   
    40   21   45 1   
    41   22   46 1   
    42   22   47 1   
    43   23   24 ar  
    44   23   28 ar  
    45   24   25 ar  
    46   24   48 1   
    47   25   26 ar  
    48   25   49 1   
    49   26   27 ar  
    50   26   50 1   
    51   27   28 ar  
    52   27   51 1   
    53   28   29 1   
@<TRIPOS>SUBSTRUCTURE
     1 462         1 TEMP              0 ****  ****    0 ROOT
