@<TRIPOS>MOLECULE
464
   67    71     1     0     0
SMALL
bcc


@<TRIPOS>ATOM
      1 C38        -2.2390    5.5770    0.2620 c3        1 464      0.167300
      2 C39        -1.7830    7.0010    0.5730 c3        1 464     -0.076900
      3 C40        -0.2760    7.1190    0.5160 c3        1 464     -0.078400
      4 C41         0.3640    6.0840    1.4150 c3        1 464     -0.076900
      5 C42        -0.1330    4.6800    1.0790 c3        1 464      0.167300
      6 N37        -1.5880    4.5650    1.0850 n3        1 464     -0.726600
      7 C36        -2.0090    3.2120    0.7440 c3        1 464      0.141800
      8 C35        -3.5020    2.9560    1.0640 c3        1 464      0.086000
      9 N33        -3.8660    1.5690    0.9980 n         1 464     -0.564900
     10 C31        -4.4810    1.0150   -0.1110 c         1 464      0.668700
     11 O32        -4.8880    1.7300   -1.0500 o         1 464     -0.606100
     12 C29        -4.6980   -0.4610   -0.1040 ca        1 464     -0.136600
     13 C30        -3.7210   -1.3430    0.3610 ca        1 464     -0.107000
     14 C28        -5.9100   -0.9510   -0.6050 ca        1 464     -0.088000
     15 C27        -6.1420   -2.3250   -0.6200 ca        1 464     -0.134000
     16 C26        -5.1740   -3.2080   -0.1490 ca        1 464     -0.115000
     17 C25        -3.9490   -2.7290    0.3430 ca        1 464      0.011000
     18 C23        -2.9410   -3.6370    0.8260 cc        1 464     -0.126000
     19 C24        -1.5370   -3.3640    0.9770 cc        1 464     -0.161000
     20 C22        -3.1430   -4.9700    1.2450 cd        1 464     -0.129300
     21 N20        -1.9270   -5.5040    1.6330 na        1 464     -0.159100
     22 C19        -0.9360   -4.5300    1.4770 cd        1 464     -0.134600
     23 C18         0.4980   -4.7570    1.7750 c3        1 464      0.047100
     24 C4          0.7630   -4.9740    3.2040 cc        1 464     -0.154400
     25 C6          1.4470   -4.2130    4.1020 ca        1 464     -0.070000
     26 C7          2.1180   -2.9580    4.0080 ca        1 464     -0.136000
     27 C2          0.2980   -6.2190    3.9730 c         1 464      0.670700
     28 O3         -0.3590   -7.1530    3.5230 o         1 464     -0.479100
     29 N1          0.7740   -6.1050    5.3590 nc        1 464     -0.309400
     30 C5          1.4200   -4.9630    5.4210 ca        1 464      0.062000
     31 C10         2.0900   -4.3390    6.5450 ca        1 464     -0.110000
     32 C9          2.7010   -3.1470    6.3910 ca        1 464     -0.100000
     33 C8          2.7290   -2.4210    5.1110 ca        1 464      0.060600
     34 N11         3.4510   -1.2170    5.1040 n         1 464     -0.463100
     35 C13         3.2830   -0.1970    4.1410 c         1 464      0.760100
     36 O17         2.5990   -0.3520    3.1040 o         1 464     -0.621100
     37 N14         3.8990    1.0380    4.3750 n         1 464     -0.652000
     38 H381       -3.3460    5.5070    0.4560 h1        1 464      0.031700
     39 H382       -2.0720    5.3810   -0.8390 h1        1 464      0.031700
     40 H391       -2.1440    7.2990    1.5920 hc        1 464      0.045450
     41 H392       -2.2530    7.6920   -0.1720 hc        1 464      0.045450
     42 H401        0.0740    6.9690   -0.5390 hc        1 464      0.039700
     43 H402        0.0390    8.1470    0.8330 hc        1 464      0.039700
     44 H411        1.4780    6.1020    1.2940 hc        1 464      0.045450
     45 H412        0.1320    6.3220    2.4860 hc        1 464      0.045450
     46 H421        0.2990    4.3790    0.0800 h1        1 464      0.031700
     47 H422        0.2650    3.9630    1.8520 h1        1 464      0.031700
     48 H361       -1.8320    2.9810   -0.3470 h1        1 464      0.036200
     49 H362       -1.3790    2.5000    1.3490 h1        1 464      0.036200
     50 H351       -3.7280    3.3240    2.1060 h1        1 464      0.069200
     51 H352       -4.1420    3.5280    0.3340 h1        1 464      0.069200
     52 HN33       -3.4710    0.9630    1.6770 hn        1 464      0.309500
     53 H30        -2.7560   -0.9680    0.7350 ha        1 464      0.135000
     54 H28        -6.6610   -0.2460   -0.9910 ha        1 464      0.153000
     55 H27        -7.0940   -2.7130   -1.0110 ha        1 464      0.135000
     56 H26        -5.3630   -4.2920   -0.1720 ha        1 464      0.132000
     57 H24        -1.0300   -2.4340    0.7380 ha        1 464      0.155000
     58 H22        -4.0640   -5.5530    1.2930 h4        1 464      0.169000
     59 HN20       -1.7760   -6.4120    1.9990 hn        1 464      0.316700
     60 H181        0.8690   -5.6540    1.2000 hc        1 464      0.076200
     61 H182        1.0740   -3.8580    1.4160 hc        1 464      0.076200
     62 H7          2.1060   -2.4470    3.0290 ha        1 464      0.186000
     63 H10         2.0780   -4.8670    7.5130 ha        1 464      0.164000
     64 H9          3.2040   -2.6840    7.2580 ha        1 464      0.138000
     65 HN11        3.8490   -0.9600    5.9810 hn        1 464      0.313500
     66 H141        4.6710    1.1030    4.9900 hn        1 464      0.310000
     67 H142        3.8940    1.6560    3.5970 hn        1 464      0.310000
@<TRIPOS>BOND
     1    1    2 1   
     2    1    6 1   
     3    1   38 1   
     4    1   39 1   
     5    2    3 1   
     6    2   40 1   
     7    2   41 1   
     8    3    4 1   
     9    3   42 1   
    10    3   43 1   
    11    4    5 1   
    12    4   44 1   
    13    4   45 1   
    14    5    6 1   
    15    5   46 1   
    16    5   47 1   
    17    6    7 1   
    18    7    8 1   
    19    7   48 1   
    20    7   49 1   
    21    8    9 1   
    22    8   50 1   
    23    8   51 1   
    24    9   10 1   
    25    9   52 1   
    26   10   11 2   
    27   10   12 1   
    28   12   13 ar  
    29   12   14 ar  
    30   13   17 ar  
    31   13   53 1   
    32   14   15 ar  
    33   14   54 1   
    34   15   16 ar  
    35   15   55 1   
    36   16   17 ar  
    37   16   56 1   
    38   17   18 1   
    39   18   19 1   
    40   18   20 2   
    41   19   22 2   
    42   19   57 1   
    43   20   21 1   
    44   20   58 1   
    45   21   22 1   
    46   21   59 1   
    47   22   23 1   
    48   23   24 1   
    49   23   60 1   
    50   23   61 1   
    51   24   25 2   
    52   24   27 1   
    53   25   26 ar  
    54   25   30 ar  
    55   26   33 ar  
    56   26   62 1   
    57   27   28 2   
    58   27   29 1   
    59   29   30 2   
    60   30   31 ar  
    61   31   32 ar  
    62   31   63 1   
    63   32   33 ar  
    64   32   64 1   
    65   33   34 1   
    66   34   35 1   
    67   34   65 1   
    68   35   36 2   
    69   35   37 1   
    70   37   66 1   
    71   37   67 1   
@<TRIPOS>SUBSTRUCTURE
     1 464         1 TEMP              0 ****  ****    0 ROOT
