@<TRIPOS>MOLECULE
464
   70    74     1     0     0
SMALL
bcc


@<TRIPOS>ATOM
      1 C38        -1.0150   -3.5320   -2.7830 c3        1 464      0.166800
      2 C39         0.3730   -3.2510   -3.3530 c3        1 464     -0.077900
      3 C40         1.3790   -3.0220   -2.2450 c3        1 464     -0.085400
      4 C41         0.8990   -1.9330   -1.3110 c3        1 464     -0.077900
      5 C42        -0.5010   -2.2330   -0.7800 c3        1 464      0.166800
      6 N37        -1.4660   -2.5110   -1.8410 n3        1 464     -0.782600
      7 C36        -2.8050   -2.7550   -1.3440 c3        1 464      0.152800
      8 C35        -3.8600   -2.0010   -2.1880 c3        1 464      0.102800
      9 N33        -3.5550   -0.5430   -2.3320 n4        1 464     -0.668800
     10 C31        -3.9770    0.2510   -1.1180 c         1 464      0.567700
     11 O32        -3.1460    0.3190   -0.2200 o         1 464     -0.431100
     12 C29        -5.3000    0.8830   -1.1530 ca        1 464     -0.190600
     13 C30        -5.5060    1.9680   -0.2830 ca        1 464     -0.048000
     14 C28        -6.3390    0.4400   -1.9840 ca        1 464     -0.094000
     15 C27        -7.5690    1.0900   -1.9500 ca        1 464     -0.109000
     16 C26        -7.7730    2.1740   -1.0960 ca        1 464     -0.063000
     17 C25        -6.7440    2.6240   -0.2520 ca        1 464      0.006000
     18 C23        -6.9660    3.7420    0.6330 cc        1 464     -0.132000
     19 C24        -6.3260    4.0000    1.8920 cc        1 464     -0.098000
     20 C22        -7.8880    4.7920    0.4200 cd        1 464     -0.076300
     21 N20        -7.8250    5.6650    1.4880 na        1 464     -0.162100
     22 C19        -6.8780    5.1870    2.4070 cd        1 464     -0.192600
     23 C18        -6.5950    5.8200    3.7130 c3        1 464      0.012100
     24 C4         -5.9150    7.1140    3.6320 cc        1 464      0.057600
     25 C6         -6.0920    8.2720    4.3610 ca        1 464     -0.246000
     26 C7         -6.9630    8.6300    5.4130 ca        1 464      0.111000
     27 C2         -4.7330    7.4210    2.6620 c         1 464      0.632700
     28 O3         -4.2200    6.6340    1.8870 o         1 464     -0.325100
     29 N1         -4.3320    8.8160    2.8790 nc        1 464     -0.206400
     30 C5         -5.0990    9.2830    3.8320 ca        1 464      0.025000
     31 C10        -5.1280   10.6230    4.3970 ca        1 464      0.022000
     32 C9         -5.9820   10.9160    5.4020 ca        1 464     -0.220000
     33 C8         -6.8910    9.9070    5.9360 ca        1 464     -0.193400
     34 N11        -7.8010   10.3380    6.9930 n4        1 464     -0.472200
     35 C13        -7.1570   10.3280    8.3520 c         1 464      0.474100
     36 O17        -7.6990    9.8100    9.3120 o         1 464     -0.270100
     37 N14        -5.8070   10.9480    8.4960 n4        1 464     -0.722400
     38 H381       -1.0040   -4.5520   -2.2970 h1        1 464      0.040700
     39 H382       -1.7600   -3.5640   -3.6280 h1        1 464      0.040700
     40 H391        0.3380   -2.3550   -4.0250 hc        1 464      0.057450
     41 H392        0.6790   -4.1320   -3.9750 hc        1 464      0.057450
     42 H401        1.5320   -3.9730   -1.6710 hc        1 464      0.061700
     43 H402        2.3680   -2.7330   -2.6870 hc        1 464      0.061700
     44 H411        0.9020   -0.9480   -1.8450 hc        1 464      0.057450
     45 H412        1.5910   -1.8460   -0.4330 hc        1 464      0.057450
     46 H421       -0.4330   -3.0990   -0.0590 h1        1 464      0.040700
     47 H422       -0.8760   -1.3360   -0.2090 h1        1 464      0.040700
     48 H361       -2.9000   -2.4170   -0.2720 h1        1 464      0.079200
     49 H362       -3.1030   -3.8440   -1.3890 h1        1 464      0.079200
     50 H351       -4.8690   -2.1130   -1.7040 hx        1 464      0.103200
     51 H352       -3.8930   -2.4390   -3.2280 hx        1 464      0.103200
     52 HN33       -4.0290   -0.1740   -3.1620 hn        1 464      0.472800
     53 H30        -4.6870    2.3030    0.3750 ha        1 464      0.163000
     54 H28        -6.2200   -0.4280   -2.6510 ha        1 464      0.138000
     55 H27        -8.3910    0.7420   -2.5990 ha        1 464      0.173000
     56 H26        -8.7560    2.6750   -1.0780 ha        1 464      0.159000
     57 H24        -5.5620    3.3870    2.3640 ha        1 464      0.168000
     58 H22        -8.5620    4.9670   -0.4240 h4        1 464      0.194000
     59 HN20       -8.3980    6.4590    1.6100 hn        1 464      0.301700
     60 H181       -5.9110    5.1160    4.2860 hc        1 464      0.104200
     61 H182       -7.5430    5.9170    4.3150 hc        1 464      0.104200
     62 H7         -7.6770    7.8680    5.7850 ha        1 464      0.171000
     63 H10        -4.4490   11.3840    3.9610 ha        1 464      0.215000
     64 H9         -6.0630   11.9580    5.7550 ha        1 464      0.150000
     65 HN11       -8.1390   11.2970    6.7840 hn        1 464      0.513300
     66 H141       -5.2070   10.7640    7.6700 hn        1 464      0.517800
     67 H142       -5.8970   11.9710    8.6300 hn        1 464      0.517800
     68 H332       -2.5320   -0.4390   -2.4570 hn        1 464      0.472800
     69 H112       -8.6250    9.7040    7.0480 hn        1 464      0.513300
     70 H143       -5.3530   10.5510    9.3450 hn        1 464      0.517800
@<TRIPOS>BOND
     1    1    2 1   
     2    1    6 1   
     3    1   38 1   
     4    1   39 1   
     5    2    3 1   
     6    2   40 1   
     7    2   41 1   
     8    3    4 1   
     9    3   42 1   
    10    3   43 1   
    11    4    5 1   
    12    4   44 1   
    13    4   45 1   
    14    5    6 1   
    15    5   46 1   
    16    5   47 1   
    17    6    7 1   
    18    7    8 1   
    19    7   48 1   
    20    7   49 1   
    21    8    9 1   
    22    8   50 1   
    23    8   51 1   
    24    9   10 1   
    25    9   52 1   
    26    9   68 1   
    27   10   11 2   
    28   10   12 1   
    29   12   13 ar  
    30   12   14 ar  
    31   13   17 ar  
    32   13   53 1   
    33   14   15 ar  
    34   14   54 1   
    35   15   16 ar  
    36   15   55 1   
    37   16   17 ar  
    38   16   56 1   
    39   17   18 1   
    40   18   19 1   
    41   18   20 2   
    42   19   22 2   
    43   19   57 1   
    44   20   21 1   
    45   20   58 1   
    46   21   22 1   
    47   21   59 1   
    48   22   23 1   
    49   23   24 1   
    50   23   60 1   
    51   23   61 1   
    52   24   25 2   
    53   24   27 1   
    54   25   26 ar  
    55   25   30 ar  
    56   26   33 ar  
    57   26   62 1   
    58   27   28 2   
    59   27   29 1   
    60   29   30 2   
    61   30   31 ar  
    62   31   32 ar  
    63   31   63 1   
    64   32   33 ar  
    65   32   64 1   
    66   33   34 1   
    67   34   35 1   
    68   34   65 1   
    69   34   69 1   
    70   35   36 2   
    71   35   37 1   
    72   37   66 1   
    73   37   67 1   
    74   37   70 1   
@<TRIPOS>SUBSTRUCTURE
     1 464         1 TEMP              0 ****  ****    0 ROOT
