@<TRIPOS>MOLECULE
464
   69    73     1     0     0
SMALL
bcc


@<TRIPOS>ATOM
      1 C38        -0.3280   -2.7260   -2.5590 c3        1 464      0.177800
      2 C39         0.7300   -3.2890   -3.5050 c3        1 464     -0.078400
      3 C40         2.1030   -2.7470   -3.1710 c3        1 464     -0.083400
      4 C41         2.0840   -1.2350   -3.1570 c3        1 464     -0.078400
      5 C42         1.0020   -0.7020   -2.2190 c3        1 464      0.177800
      6 N37        -0.3130   -1.2690   -2.4900 n3        1 464     -0.752600
      7 C36        -1.3600   -0.7300   -1.6510 c3        1 464      0.177800
      8 C35        -2.5920   -0.3900   -2.5310 c3        1 464      0.085800
      9 N33        -3.6680    0.3030   -1.7660 ny        1 464     -0.673800
     10 C31        -4.4550   -0.6020   -0.8290 c         1 464      0.565700
     11 O32        -4.3990   -1.8000   -1.0630 o         1 464     -0.413100
     12 C29        -5.1720    0.0720    0.2560 ca        1 464     -0.195600
     13 C30        -5.5990    1.4070    0.1820 ca        1 464     -0.118000
     14 C28        -5.4600   -0.7020    1.3910 ca        1 464     -0.053000
     15 C27        -6.1610   -0.1280    2.4510 ca        1 464     -0.118000
     16 C26        -6.5850    1.1940    2.3810 ca        1 464     -0.065000
     17 C25        -6.3160    1.9800    1.2400 ca        1 464      0.044000
     18 C23        -6.7870    3.3370    1.1690 cc        1 464     -0.157000
     19 C24        -7.2500    4.1470    2.2640 cc        1 464     -0.146000
     20 C22        -6.9190    4.1240    0.0000 cd        1 464     -0.106300
     21 N20        -7.4500    5.3480    0.3470 na        1 464     -0.138100
     22 C19        -7.6490    5.3840    1.7320 cd        1 464     -0.132600
     23 C18        -8.2730    6.5220    2.4470 c3        1 464      0.033100
     24 C4         -7.4190    7.7080    2.5950 cc        1 464     -0.093400
     25 C6         -7.1550    8.4640    3.6980 ca        1 464     -0.126000
     26 C7         -7.5780    8.3900    5.0620 ca        1 464     -0.060000
     27 C2         -6.6850    8.4110    1.4300 c         1 464      0.667700
     28 O3         -6.7250    8.0930    0.2480 o         1 464     -0.443100
     29 N1         -5.9630    9.5650    1.9770 nc        1 464     -0.263400
     30 C5         -6.2440    9.5930    3.2590 ca        1 464      0.054000
     31 C10        -5.8140   10.5410    4.2710 ca        1 464     -0.058000
     32 C9         -6.2530   10.4230    5.5400 ca        1 464     -0.124000
     33 C8         -7.1590    9.3440    5.9480 ca        1 464      0.003600
     34 N11        -7.5370    9.3590    7.3220 ns        1 464     -0.404100
     35 C13        -8.6670    8.7460    7.7840 c         1 464      0.642100
     36 O17        -9.4200    7.9400    7.2330 o         1 464     -0.472100
     37 N14        -9.0750    9.0270    9.2440 nz        1 464     -0.755400
     38 H381       -1.3480   -3.0370   -2.9240 h1        1 464      0.033950
     39 H382       -0.1760   -3.1810   -1.5360 h1        1 464      0.033950
     40 H391        0.4690   -3.0320   -4.5640 hc        1 464      0.059700
     41 H392        0.7210   -4.4060   -3.4120 hc        1 464      0.059700
     42 H401        2.8470   -3.1090   -3.9280 hc        1 464      0.055700
     43 H402        2.4290   -3.1320   -2.1690 hc        1 464      0.055700
     44 H411        3.0720   -0.8380   -2.8080 hc        1 464      0.059700
     45 H412        1.9080   -0.8500   -4.1960 hc        1 464      0.059700
     46 H421        0.9280    0.4140   -2.3510 h1        1 464      0.033950
     47 H422        1.3190   -0.9040   -1.1530 h1        1 464      0.033950
     48 H361       -1.6930   -1.4560   -0.8520 h1        1 464      0.048200
     49 H362       -1.0080    0.2110   -1.1390 h1        1 464      0.048200
     50 H351       -3.0220   -1.3400   -2.9630 hx        1 464      0.119700
     51 H352       -2.2860    0.2900   -3.3770 hx        1 464      0.119700
     52 HN33       -3.2590    1.0610   -1.2080 hn        1 464      0.455300
     53 H30        -5.4090    2.0210   -0.7110 ha        1 464      0.121000
     54 H28        -5.1420   -1.7570    1.4380 ha        1 464      0.170000
     55 H27        -6.3870   -0.7350    3.3440 ha        1 464      0.168000
     56 H26        -7.1520    1.6340    3.2170 ha        1 464      0.158000
     57 H24        -7.2870    3.8580    3.3100 ha        1 464      0.156000
     58 H22        -6.6950    3.8790   -1.0390 h4        1 464      0.170000
     59 HN20       -7.5900    6.1170   -0.2660 hn        1 464      0.328700
     60 H181       -9.2140    6.8400    1.9050 hc        1 464      0.087200
     61 H182       -8.5880    6.1550    3.4660 hc        1 464      0.087200
     62 H7         -8.2520    7.5610    5.3410 ha        1 464      0.171000
     63 H10        -5.1310   11.3530    3.9630 ha        1 464      0.190000
     64 H9         -5.9220   11.1520    6.2990 ha        1 464      0.153000
     65 HN11       -7.0300    9.9980    7.9020 hn        1 464      0.355500
     66 H141       -9.3050   10.0160    9.3770 hn        1 464      0.476133
     67 H142       -8.3370    8.7570    9.8990 hn        1 464      0.476133
     68 H332       -4.3320    0.7130   -2.4330 hn        1 464      0.455300
     69 H143       -9.9160    8.4600    9.4330 hn        1 464      0.476133
@<TRIPOS>BOND
     1    1    2 1   
     2    1    6 1   
     3    1   38 1   
     4    1   39 1   
     5    2    3 1   
     6    2   40 1   
     7    2   41 1   
     8    3    4 1   
     9    3   42 1   
    10    3   43 1   
    11    4    5 1   
    12    4   44 1   
    13    4   45 1   
    14    5    6 1   
    15    5   46 1   
    16    5   47 1   
    17    6    7 1   
    18    7    8 1   
    19    7   48 1   
    20    7   49 1   
    21    8    9 1   
    22    8   50 1   
    23    8   51 1   
    24    9   10 1   
    25    9   52 1   
    26    9   68 1   
    27   10   11 2   
    28   10   12 1   
    29   12   13 ar  
    30   12   14 ar  
    31   13   17 ar  
    32   13   53 1   
    33   14   15 ar  
    34   14   54 1   
    35   15   16 ar  
    36   15   55 1   
    37   16   17 ar  
    38   16   56 1   
    39   17   18 1   
    40   18   19 1   
    41   18   20 2   
    42   19   22 2   
    43   19   57 1   
    44   20   21 1   
    45   20   58 1   
    46   21   22 1   
    47   21   59 1   
    48   22   23 1   
    49   23   24 1   
    50   23   60 1   
    51   23   61 1   
    52   24   25 2   
    53   24   27 1   
    54   25   26 ar  
    55   25   30 ar  
    56   26   33 ar  
    57   26   62 1   
    58   27   28 2   
    59   27   29 1   
    60   29   30 2   
    61   30   31 ar  
    62   31   32 ar  
    63   31   63 1   
    64   32   33 ar  
    65   32   64 1   
    66   33   34 1   
    67   34   35 1   
    68   34   65 1   
    69   35   36 2   
    70   35   37 1   
    71   37   66 1   
    72   37   67 1   
    73   37   69 1   
@<TRIPOS>SUBSTRUCTURE
     1 464         1 TEMP              0 ****  ****    0 ROOT
