@<TRIPOS>MOLECULE
464
   67    65     1     0     0
SMALL
bcc


@<TRIPOS>ATOM
      1 C38         6.2220   -5.1260    0.5820 c3        1 464     -0.069000
      2 C39         7.3760   -5.4740    1.5200 c3        1 464     -0.186000
      3 C40         7.5390   -4.5470    2.4570 c3        1 464     -0.155000
      4 C41         6.5550   -3.9100    3.0890 c3        1 464     -0.186000
      5 C42         5.4130   -3.5750    2.1510 c3        1 464     -0.069000
      6 N37         5.8320   -3.6010    0.6180 n3        1 464     -0.248000
      7 C36         4.6630   -3.3820   -0.2080 c3        1 464     -0.095000
      8 C35         5.0930   -3.3620   -1.7250 c3        1 464     -0.032000
      9 N33         3.9420   -3.3200   -2.5450 n         1 464     -0.374000
     10 C31         3.3980   -2.0760   -2.9310 c2        1 464      0.340000
     11 O32         4.1240   -1.2170   -3.4570 o         1 464     -0.361000
     12 C29         1.9250   -1.8120   -2.7510 c2        1 464     -0.118000
     13 C30         1.5010   -0.6280   -2.1600 c2        1 464     -0.086000
     14 C28         0.9920   -2.6810   -3.3110 c1        1 464     -0.116000
     15 C27        -0.3510   -2.3680   -3.2810 c1        1 464     -0.110750
     16 C26        -0.7760   -1.1790   -2.6880 c1        1 464     -0.110750
     17 C25         0.1510   -0.3120   -2.1290 c1        1 464      0.012000
     18 C23        -0.3200    1.0400   -1.5050 c2        1 464     -0.128000
     19 C24        -1.5520    1.1230   -0.8850 c2        1 464     -0.165000
     20 C22        -0.0290    2.3080   -2.1940 c1        1 464     -0.098000
     21 N20        -1.2050    3.3020   -1.9950 n2        1 464     -0.156000
     22 C19        -2.1530    2.4570   -1.1450 c2        1 464     -0.105000
     23 C18        -3.0690    3.1280   -0.0760 c3        1 464     -0.038000
     24 C4         -4.2600    3.8320   -0.7820 c2        1 464     -0.143000
     25 C6         -5.3930    4.3820    0.0340 c1        1 464     -0.062000
     26 C7         -5.5510    4.8580    1.3040 c1        1 464     -0.185000
     27 C2         -4.6240    3.4520   -2.0820 c2        1 464      0.275000
     28 O3         -3.8680    3.3770   -3.0500 o         1 464     -0.243000
     29 N1         -5.9710    3.7220   -2.1310 n2        1 464     -0.170000
     30 C5         -6.5380    4.3070   -0.8610 c1        1 464      0.068000
     31 C10        -7.7970    4.7230   -0.4200 c1        1 464     -0.110750
     32 C9         -7.9540    5.2090    0.8780 c1        1 464     -0.110750
     33 C8         -6.8320    5.2810    1.7530 c1        1 464      0.097000
     34 N11        -7.1790    5.5270    3.1050 n         1 464     -0.316000
     35 C13        -8.0410    4.6040    3.8020 c2        1 464      0.386000
     36 O17        -8.4640    3.6250    3.2330 o         1 464     -0.381000
     37 N14        -8.4570    4.8870    5.1460 n         1 464     -0.413000
     38 H381        6.4750   -5.3590   -0.3190 h1        1 464      0.088250
     39 H382        5.4510   -5.6490    0.8300 h1        1 464      0.088250
     40 H391        7.1830   -6.3690    1.9670 hc        1 464      0.082500
     41 H392        8.1880   -5.5470    1.0060 hc        1 464      0.082500
     42 H401        8.0630   -4.9540    3.1360 hc        1 464      0.079500
     43 H402        8.1100   -3.8300    2.0410 hc        1 464      0.079500
     44 H411        6.2180   -4.4810    3.8110 hc        1 464      0.082500
     45 H412        6.8980   -3.1020    3.4640 hc        1 464      0.082500
     46 H421        4.6970   -4.2150    2.2900 h1        1 464      0.088250
     47 H422        5.0660   -2.6410    2.3800 h1        1 464      0.088250
     48 H361        4.0140   -4.1100   -0.0590 h1        1 464      0.073500
     49 H362        4.2640   -2.5490    0.0210 h1        1 464      0.073500
     50 H351        5.6300   -4.2030   -1.9350 h1        1 464      0.108500
     51 H352        5.6420   -2.5740   -1.8980 h1        1 464      0.108500
     52 HN33        3.6200   -4.0740   -2.8980 hn        1 464      0.217000
     53 H30         2.1420   -0.0290   -1.7730 ha        1 464      0.151000
     54 H28         1.2970   -3.5360   -3.7380 ha        1 464      0.135000
     55 H27        -1.0230   -2.9950   -3.6850 ha        1 464      0.154000
     56 H26        -1.6940   -0.9650   -2.6670 ha        1 464      0.154000
     57 H24        -2.1250    0.3290   -0.8230 ha        1 464      0.148000
     58 H22         0.9230    2.6500   -2.2440 ha        1 464      0.176000
     59 HN20       -1.1450    4.2190   -1.9950 hn        1 464      0.269000
     60 H181       -2.5490    3.7930    0.4330 hc        1 464      0.109500
     61 H182       -3.4270    2.4130    0.5640 hc        1 464      0.109500
     62 H7         -4.8020    4.9060    1.8890 ha        1 464      0.142000
     63 H10        -8.5910    4.6720   -1.0390 ha        1 464      0.154000
     64 H9         -8.8400    5.5020    1.1900 ha        1 464      0.154000
     65 HN11       -6.7830    6.1940    3.5540 hn        1 464      0.226000
     66 H141       -8.3150    5.6960    5.4940 hn        1 464      0.226500
     67 H142       -8.9320    4.2340    5.6430 hn        1 464      0.226500
@<TRIPOS>BOND
     1    1    2 1   
     2    1    6 1   
     3    1   38 1   
     4    1   39 1   
     5    2    3 1   
     6    2   40 1   
     7    2   41 1   
     8    3    4 1   
     9    3   42 1   
    10    3   43 1   
    11    4    5 1   
    12    4   44 1   
    13    4   45 1   
    14    5    6 1   
    15    5   46 1   
    16    5   47 1   
    17    6    7 1   
    18    7    8 1   
    19    7   48 1   
    20    7   49 1   
    21    8    9 1   
    22    8   50 1   
    23    8   51 1   
    24    9   10 1   
    25    9   52 1   
    26   10   11 1   
    27   10   12 1   
    28   12   13 1   
    29   12   14 1   
    30   13   17 1   
    31   13   53 1   
    32   14   54 1   
    33   15   16 1   
    34   15   55 1   
    35   16   56 1   
    36   17   18 1   
    37   18   19 1   
    38   18   20 1   
    39   19   22 1   
    40   19   57 1   
    41   20   58 1   
    42   21   22 1   
    43   21   59 1   
    44   22   23 1   
    45   23   24 1   
    46   23   60 1   
    47   23   61 1   
    48   24   25 1   
    49   24   27 1   
    50   25   30 1   
    51   26   33 1   
    52   26   62 1   
    53   27   28 1   
    54   27   29 1   
    55   29   30 1   
    56   31   32 1   
    57   31   63 1   
    58   32   64 1   
    59   33   34 1   
    60   34   35 1   
    61   34   65 1   
    62   35   36 1   
    63   35   37 1   
    64   37   66 1   
    65   37   67 1   
@<TRIPOS>SUBSTRUCTURE
     1 464         1 TEMP              0 ****  ****    0 ROOT
