@<TRIPOS>MOLECULE
465
   31    33     1     0     0
SMALL
bcc


@<TRIPOS>ATOM
      1 C1         -1.1790   -1.3470   -0.0910 ca        1 465     -0.074200
      2 C2          0.0370   -0.6050   -0.0970 ca        1 465     -0.138300
      3 C3          0.1630    0.7860   -0.0990 ca        1 465      0.366600
      4 C4         -1.0830    1.5260   -0.0750 ca        1 465      0.127100
      5 C5         -2.2830    0.8070   -0.0840 ca        1 465     -0.013600
      6 C6         -2.3850   -0.6380   -0.0910 ca        1 465      0.176600
      7 C7          1.1680   -1.4860   -0.1260 ca        1 465     -0.104000
      8 C8          2.4130   -0.9290   -0.1510 ca        1 465     -0.101300
      9 C9          2.4700    0.5210   -0.1360 ca        1 465      0.357800
     10 N10         1.4240    1.3470   -0.1120 nb        1 465     -0.619000
     11 N11        -0.8520   -2.7300   -0.1650 n         1 465     -0.148300
     12 C12         0.5810   -2.8690   -0.1110 c         1 465      0.304800
     13 O13         1.1670   -3.9540   -0.0890 o         1 465     -0.294000
     14 C14        -1.7180   -3.7680    0.3020 c3        1 465      0.015600
     15 N15        -3.6140   -1.2810   -0.0200 nh        1 465     -0.820200
     16 CL1        -3.7500    1.6820   -0.1040 cl        1 465     -0.072400
     17 N17        -1.0880    2.9280    0.0630 ne        1 465     -0.568100
     18 C18        -0.4580    3.7100   -0.7260 c2        1 465      0.484100
     19 C19         3.8710    1.0930   -0.1760 c         1 465      0.566600
     20 O20         4.7850    0.4610   -0.7440 o         1 465     -0.604100
     21 N21         4.1190    2.2800    0.4540 n         1 465     -0.651000
     22 H8          3.3520   -1.5020   -0.1950 ha        1 465      0.189000
     23 H14        -2.4680   -4.0100   -0.4990 h1        1 465      0.053367
     24 H14A       -1.1090   -4.6910    0.5080 h1        1 465      0.053367
     25 H14B       -2.2620   -3.4670    1.2370 h1        1 465      0.053367
     26 HN15       -4.4110   -0.7190   -0.2240 hn        1 465      0.410800
     27 HN1A       -3.6390   -2.1880   -0.4290 hn        1 465      0.410800
     28 H18        -0.5120    4.7930   -0.5010 h4        1 465     -0.003200
     29 H18A        0.1370    3.4280   -1.6150 h4        1 465     -0.003200
     30 HN21        3.3910    2.8200    0.8480 hn        1 465      0.322500
     31 HN2A        5.0300    2.6660    0.4090 hn        1 465      0.322500
@<TRIPOS>BOND
     1    1    2 ar  
     2    1    6 ar  
     3    1   11 1   
     4    2    3 ar  
     5    2    7 ar  
     6    3    4 ar  
     7    3   10 ar  
     8    4    5 ar  
     9    4   17 1   
    10    5    6 ar  
    11    5   16 1   
    12    6   15 1   
    13    7    8 ar  
    14    7   12 1   
    15    8    9 ar  
    16    8   22 1   
    17    9   10 ar  
    18    9   19 1   
    19   11   12 1   
    20   11   14 1   
    21   12   13 2   
    22   14   23 1   
    23   14   24 1   
    24   14   25 1   
    25   15   26 1   
    26   15   27 1   
    27   17   18 2   
    28   18   28 1   
    29   18   29 1   
    30   19   20 2   
    31   19   21 1   
    32   21   30 1   
    33   21   31 1   
@<TRIPOS>SUBSTRUCTURE
     1 465         1 TEMP              0 ****  ****    0 ROOT
