@<TRIPOS>MOLECULE
465
   32    34     1     0     0
SMALL
bcc


@<TRIPOS>ATOM
      1 C1         -0.0260    0.1270   -0.0190 ca        1 465     -0.118200
      2 C2          1.3870    0.1230   -0.0240 ca        1 465     -0.096300
      3 C3          2.2460    0.1500    1.0970 ca        1 465      0.380600
      4 C4          1.5690    0.1820    2.3910 ca        1 465      0.173100
      5 C5          0.1740    0.2010    2.4060 ca        1 465     -0.077600
      6 C6         -0.6850    0.1710    1.2290 ca        1 465      0.292600
      7 C7          1.8860    0.0910   -1.3690 ca        1 465     -0.105000
      8 C8          3.2390    0.0730   -1.5630 ca        1 465     -0.070300
      9 C9          4.0480    0.0910   -0.3670 ca        1 465      0.250800
     10 N10         3.5880    0.1340    0.9040 nb        1 465     -0.594000
     11 N11        -0.4760    0.1490   -1.3680 n         1 465     -0.145300
     12 C12         0.6600    0.0640   -2.2410 c         1 465      0.305800
     13 O13         0.6010    0.0110   -3.4690 o         1 465     -0.270000
     14 C14        -1.7880   -0.2230   -1.7930 c3        1 465      0.012600
     15 N15        -2.0370    0.1840    1.3400 nv        1 465     -0.833200
     16 Cl1        -0.6130    0.2410    3.9200 cl        1 465     -0.054400
     17 N17         2.3650    0.0620    3.5400 ne        1 465     -0.588100
     18 C18         2.3780    0.8930    4.5100 c2        1 465      0.503100
     19 C19         5.5010    0.0500   -0.5880 c         1 465      0.472600
     20 O20         6.1200    0.0970   -1.6410 o         1 465     -0.420100
     21 N21         6.3740   -0.0830    0.6480 nz        1 465     -0.748400
     22 H8          3.7140    0.0460   -2.5570 ha        1 465      0.192000
     23 H14        -2.5050    0.6130   -1.5680 h1        1 465      0.061367
     24 H14A       -1.7760   -0.3880   -2.9060 h1        1 465      0.061367
     25 H14B       -2.1360   -1.1640   -1.2890 h1        1 465      0.061367
     26 HN15       -2.4730    0.2160    2.2320 hn        1 465      0.459800
     27 HN1A       -2.6070    0.2140    0.5290 hn        1 465      0.459800
     28 H18         1.8000    1.8340    4.5930 h4        1 465      0.011300
     29 H18A        3.0420    0.6520    5.3640 h4        1 465      0.011300
     30 HN21        6.1120   -0.9310    1.1630 hn        1 465      0.470467
     31 HN2A        7.3620   -0.1350    0.3780 hn        1 465      0.470467
     32 H213        6.2270    0.7250    1.2610 hn        1 465      0.470467
@<TRIPOS>BOND
     1    1    2 ar  
     2    1    6 ar  
     3    1   11 1   
     4    2    3 ar  
     5    2    7 ar  
     6    3    4 ar  
     7    3   10 ar  
     8    4    5 ar  
     9    4   17 1   
    10    5    6 ar  
    11    5   16 1   
    12    6   15 1   
    13    7    8 ar  
    14    7   12 1   
    15    8    9 ar  
    16    8   22 1   
    17    9   10 ar  
    18    9   19 1   
    19   11   12 1   
    20   11   14 1   
    21   12   13 2   
    22   14   23 1   
    23   14   24 1   
    24   14   25 1   
    25   15   26 1   
    26   15   27 1   
    27   17   18 2   
    28   18   28 1   
    29   18   29 1   
    30   19   20 2   
    31   19   21 1   
    32   21   30 1   
    33   21   31 1   
    34   21   32 1   
@<TRIPOS>SUBSTRUCTURE
     1 465         1 TEMP              0 ****  ****    0 ROOT
