@<TRIPOS>MOLECULE
465
   31    28     1     0     0
SMALL
bcc


@<TRIPOS>ATOM
      1 C1         -1.4170   -0.6460   -0.6720 c1        1 465     -0.029000
      2 C2          0.0340   -0.6280   -0.6770 c1        1 465     -0.073000
      3 C3          0.7350   -0.5990    0.5340 c1        1 465     -0.027000
      4 C4          0.0230   -0.6740    1.7720 c1        1 465      0.053000
      5 C5         -1.4060   -0.7350    1.7730 c1        1 465     -0.092000
      6 C6         -2.1160   -0.7200    0.5510 c2        1 465      0.095000
      7 C7          0.4550    0.1780   -1.7540 c2        1 465     -0.104000
      8 C8          1.6200    0.9110   -1.6500 c1        1 465     -0.036000
      9 C9          2.3640    0.8970   -0.4370 c1        1 465     -0.060000
     10 N10         1.9180    0.1460    0.6400 n2        1 465     -0.093000
     11 N11        -1.8900    0.0420   -1.8960 n         1 465     -0.258000
     12 C12        -0.7730    0.5690   -2.5500 c2        1 465      0.350000
     13 O13        -0.7770    1.1400   -3.6250 o         1 465     -0.294000
     14 C14        -3.2530    0.0600   -2.3840 c3        1 465     -0.083000
     15 N15        -3.3860   -1.3170    0.8140 n3        1 465     -0.329000
     16 CL1        -1.8290   -1.7540    3.1110 cl        1 465      0.006000
     17 N17         0.7800   -1.0610    2.8980 n2        1 465     -0.141000
     18 C18         0.7690   -0.3180    3.9810 c1        1 465     -0.062000
     19 C19         3.8290    1.1600   -0.7480 c2        1 465      0.350000
     20 O20         4.2040    1.1840   -1.8890 o         1 465     -0.365000
     21 N21         4.7700    1.1960    0.2980 n         1 465     -0.411000
     22 H8          1.9400    1.4520   -2.4270 ha        1 465      0.189000
     23 H14        -3.7910    0.6580   -1.8260 h1        1 465      0.092667
     24 H14A       -3.6230   -0.8400   -2.3460 h1        1 465      0.092667
     25 H14B       -3.2640    0.3820   -3.3180 h1        1 465      0.092667
     26 HN15       -4.1530   -0.9210    0.5010 hn        1 465      0.206000
     27 HN1A       -3.4340   -2.1100    1.2780 hn        1 465      0.206000
     28 H18         0.2320    0.5090    4.0070 DU        1 465      0.110000
     29 H18A        1.2910   -0.5840    4.7590 ha        1 465      0.142000
     30 HN21        4.4900    1.3270    1.1660 hn        1 465      0.236000
     31 HN2A        5.6550    1.0990    0.1160 hn        1 465      0.236000
@<TRIPOS>BOND
     1    1    6 1   
     2    1   11 1   
     3    2    3 1   
     4    2    7 1   
     5    3   10 1   
     6    4    5 1   
     7    4   17 1   
     8    5    6 1   
     9    6   15 1   
    10    7    8 1   
    11    7   12 1   
    12    8   22 1   
    13    9   10 1   
    14    9   19 1   
    15   11   12 1   
    16   11   14 1   
    17   12   13 1   
    18   14   23 1   
    19   14   24 1   
    20   14   25 1   
    21   15   26 1   
    22   15   27 1   
    23   17   18 1   
    24   18   29 1   
    25   19   20 1   
    26   19   21 1   
    27   21   30 1   
    28   21   31 1   
@<TRIPOS>SUBSTRUCTURE
     1 465         1 TEMP              0 ****  ****    0 ROOT
