@<TRIPOS>MOLECULE
465
   32    34     1     0     0
SMALL
bcc


@<TRIPOS>ATOM
      1 C1         -0.0210   -0.0240   -0.0080 ca        1 465     -0.118200
      2 C2          1.3910    0.0290   -0.0190 ca        1 465     -0.096300
      3 C3          2.2510    0.1350    1.0980 ca        1 465      0.381600
      4 C4          1.5740    0.2170    2.3900 ca        1 465      0.173100
      5 C5          0.1800    0.1720    2.4100 ca        1 465     -0.077600
      6 C6         -0.6770    0.0210    1.2410 ca        1 465      0.291600
      7 C7          1.8890   -0.0750   -1.3610 ca        1 465     -0.104000
      8 C8          3.2410   -0.0720   -1.5570 ca        1 465     -0.070300
      9 C9          4.0510    0.0300   -0.3650 ca        1 465      0.250800
     10 N10         3.5920    0.1380    0.9020 nb        1 465     -0.594000
     11 N11        -0.4710   -0.2010   -1.3450 n         1 465     -0.145300
     12 C12         0.6620   -0.1710   -2.2260 c         1 465      0.305800
     13 O13         0.6010   -0.2450   -3.4530 o         1 465     -0.270000
     14 C14        -1.7930    0.0920   -1.8010 c3        1 465      0.011600
     15 N15        -2.0280   -0.0440    1.3580 nh        1 465     -0.832200
     16 CL1        -0.6060    0.2670    3.9220 cl        1 465     -0.054400
     17 N17         2.3770    0.2030    3.5410 ne        1 465     -0.588100
     18 C18         2.3530    1.0910    4.4580 c2        1 465      0.503100
     19 C19         5.5050    0.0020   -0.5870 c         1 465      0.472600
     20 O20         6.1220    0.0070   -1.6410 o         1 465     -0.419100
     21 N21         6.3800   -0.0590    0.6530 n4        1 465     -0.748400
     22 H8          3.7160   -0.1470   -2.5480 ha        1 465      0.192000
     23 H14        -2.1730    1.0600   -1.3770 h1        1 465      0.061700
     24 H14A       -1.7840    0.1650   -2.9240 h1        1 465      0.061700
     25 H14B       -2.4830   -0.7450   -1.5070 h1        1 465      0.061700
     26 HN15       -2.5910   -0.2100    0.5590 hn        1 465      0.459300
     27 HN1A       -2.4590   -0.0480    2.2530 hn        1 465      0.459300
     28 H18         1.7310    2.0070    4.4870 h4        1 465      0.011300
     29 H18A        3.0290    0.9330    5.3230 h4        1 465      0.011300
     30 HN21        7.3690   -0.1080    0.3850 hn        1 465      0.470467
     31 HN2A        6.2210    0.7750    1.2270 hn        1 465      0.470467
     32 H213        6.1320   -0.8850    1.2080 hn        1 465      0.470467
@<TRIPOS>BOND
     1    1    2 ar  
     2    1    6 ar  
     3    1   11 1   
     4    2    3 ar  
     5    2    7 ar  
     6    3    4 ar  
     7    3   10 ar  
     8    4    5 ar  
     9    4   17 1   
    10    5    6 ar  
    11    5   16 1   
    12    6   15 1   
    13    7    8 ar  
    14    7   12 1   
    15    8    9 ar  
    16    8   22 1   
    17    9   10 ar  
    18    9   19 1   
    19   11   12 1   
    20   11   14 1   
    21   12   13 2   
    22   14   23 1   
    23   14   24 1   
    24   14   25 1   
    25   15   26 1   
    26   15   27 1   
    27   17   18 2   
    28   18   28 1   
    29   18   29 1   
    30   19   20 2   
    31   19   21 1   
    32   21   30 1   
    33   21   31 1   
    34   21   32 1   
@<TRIPOS>SUBSTRUCTURE
     1 465         1 TEMP              0 ****  ****    0 ROOT
