@<TRIPOS>MOLECULE
465
   33    35     1     0     0
SMALL
bcc


@<TRIPOS>ATOM
      1 C1         -0.0450    0.0380   -0.0190 ca        1 465      0.105800
      2 C2          1.4050    0.0750   -0.0180 ca        1 465     -0.164300
      3 C3          2.2390    0.1830    1.0980 ca        1 465      0.470600
      4 C4          1.5710    0.2740    2.3960 ca        1 465      0.155100
      5 C5          0.1740    0.2620    2.4050 ca        1 465     -0.019600
      6 C6         -0.6520    0.1240    1.2260 ca        1 465     -0.080400
      7 C7          1.8990   -0.0360   -1.3510 ca        1 465     -0.054000
      8 C8          3.2560   -0.0410   -1.5490 ca        1 465     -0.089300
      9 C9          4.0560    0.0700   -0.3510 ca        1 465      0.353800
     10 N10         3.6000    0.1820    0.9040 nb        1 465     -0.604000
     11 N11        -0.4710   -0.0880   -1.3380 n         1 465     -0.176300
     12 C12         0.6800   -0.1370   -2.2290 c         1 465      0.315800
     13 O13         0.6000   -0.2430   -3.4430 o         1 465     -0.174000
     14 C14        -1.8170   -0.1550   -1.8140 c3        1 465     -0.003400
     15 N15        -2.0990    0.0800    1.3910 n4        1 465     -0.694000
     16 CL1        -0.6350    0.3830    3.8960 cl        1 465     -0.021400
     17 N17         2.3680    0.2020    3.5410 ne        1 465     -0.597100
     18 C18         2.3910    1.0460    4.5000 c2        1 465      0.532100
     19 C19         5.5320    0.0540   -0.5770 c         1 465      0.449600
     20 O20         6.1030    0.1090   -1.6530 o         1 465     -0.358100
     21 N21         6.4170   -0.0530    0.6370 n4        1 465     -0.740400
     22 H8          3.7320   -0.1200   -2.5420 ha        1 465      0.218000
     23 H14        -2.3830    0.7770   -1.5400 h1        1 465      0.079367
     24 H14A       -1.7980   -0.2350   -2.9400 h1        1 465      0.079367
     25 H14B       -2.3370   -1.0660   -1.4090 h1        1 465      0.079367
     26 HN15       -2.5730   -0.0310    0.4870 hn        1 465      0.475800
     27 HN1A       -2.4210    0.9520    1.8380 hn        1 465      0.475800
     28 H18         1.8190    1.9920    4.5760 h4        1 465      0.027300
     29 H18A        3.0650    0.8100    5.3510 h4        1 465      0.027300
     30 HN21        6.2780    0.7640    1.2450 hn        1 465      0.485133
     31 HN2A        6.1820   -0.8990    1.1710 hn        1 465      0.485133
     32 H153       -2.3470   -0.7130    2.0030 hn        1 465      0.475800
     33 H213        7.4060   -0.0960    0.3480 hn        1 465      0.485133
@<TRIPOS>BOND
     1    1    2 ar  
     2    1    6 ar  
     3    1   11 1   
     4    2    3 ar  
     5    2    7 ar  
     6    3    4 ar  
     7    3   10 ar  
     8    4    5 ar  
     9    4   17 1   
    10    5    6 ar  
    11    5   16 1   
    12    6   15 1   
    13    7    8 ar  
    14    7   12 1   
    15    8    9 ar  
    16    8   22 1   
    17    9   10 ar  
    18    9   19 1   
    19   11   12 1   
    20   11   14 1   
    21   12   13 2   
    22   14   23 1   
    23   14   24 1   
    24   14   25 1   
    25   15   26 1   
    26   15   27 1   
    27   15   32 1   
    28   17   18 2   
    29   18   28 1   
    30   18   29 1   
    31   19   20 2   
    32   19   21 1   
    33   21   30 1   
    34   21   31 1   
    35   21   33 1   
@<TRIPOS>SUBSTRUCTURE
     1 465         1 TEMP              0 ****  ****    0 ROOT
