@<TRIPOS>MOLECULE
467
   45    47     1     0     0
SMALL
bcc


@<TRIPOS>ATOM
      1 F3          0.6890   -1.2960   -1.6090 f         1 467     -0.152900
      2 C7          1.8870   -0.8570   -1.1580 ca        1 467     -0.165700
      3 C8          2.4230   -1.3570    0.0650 ca        1 467      0.458200
      4 N2          3.5970   -0.9600    0.5460 nb        1 467     -0.667000
      5 C9          4.3080   -0.0260   -0.1900 ca        1 467      0.806800
      6 N3          3.8760    0.5100   -1.3800 nb        1 467     -0.744000
      7 C6          2.6660    0.1110   -1.8600 ca        1 467      0.593200
      8 N1          2.1330    0.7270   -3.0440 nu        1 467     -0.852900
      9 C1          2.3970    0.0470   -4.3100 c3        1 467      0.169200
     10 C2          2.9980   -1.3610   -4.1850 c3        1 467     -0.127600
     11 C3          1.0510   -0.1670   -5.0680 c         1 467      0.537100
     12 N          -0.1940   -0.3280   -4.2150 ny        1 467     -0.671800
     13 C4         -1.3850   -0.7530   -4.9800 c3        1 467      0.033800
     14 C5         -2.6570   -0.8570   -4.0570 c3        1 467      0.631900
     15 F2         -2.5010   -1.7720   -3.0520 f         1 467     -0.201633
     16 F1         -2.9520    0.3290   -3.4400 f         1 467     -0.201633
     17 F          -3.7630   -1.2240   -4.7620 f         1 467     -0.201633
     18 O           0.9020   -0.2590   -6.2730 o         1 467     -0.409100
     19 C           3.2770    0.8700   -5.2690 c3        1 467     -0.127600
     20 C10         5.5880    0.4160    0.3210 cc        1 467     -0.256000
     21 C13         6.2840   -0.0490    1.5020 ca        1 467     -0.143100
     22 C14         6.0500   -0.9930    2.5060 ca        1 467     -0.043000
     23 C15         7.0170   -1.1320    3.4980 ca        1 467     -0.116900
     24 Cl          6.8100   -2.2520    4.7480 cl        1 467     -0.054400
     25 C16         8.1960   -0.3320    3.4760 ca        1 467      0.429200
     26 N5          8.4690    0.5820    2.5430 nb        1 467     -0.640000
     27 C12         7.5190    0.7170    1.5710 ca        1 467      0.405800
     28 N4          7.5450    1.6000    0.4690 na        1 467     -0.258100
     29 C11         6.3940    1.4150   -0.2660 cd        1 467     -0.005100
     30 H1          1.8560   -2.1020    0.6580 h4        1 467      0.062100
     31 H2          2.4130    1.6950   -3.1010 hn        1 467      0.426800
     32 H3          4.0320   -1.2850   -3.7660 hc        1 467      0.080533
     33 H4          2.3850   -2.0070   -3.5110 hc        1 467      0.080533
     34 H5          3.0630   -1.8350   -5.1950 hc        1 467      0.080533
     35 H6          0.0100   -1.0160   -3.4660 hn        1 467      0.484800
     36 H7         -1.5990   -0.0090   -5.8010 hx        1 467      0.148200
     37 H8         -1.1990   -1.7620   -5.4460 hx        1 467      0.148200
     38 H9          2.8390    1.8790   -5.4570 hc        1 467      0.080533
     39 H10         3.3770    0.3350   -6.2450 hc        1 467      0.080533
     40 H11         4.2930    0.9920   -4.8190 hc        1 467      0.080533
     41 H12         5.1360   -1.6060    2.5180 ha        1 467      0.173000
     42 H13         8.9630   -0.4460    4.2680 h4        1 467      0.051100
     43 H14         8.2710    2.2460    0.2800 hn        1 467      0.327700
     44 H15         6.2020    2.0040   -1.1690 h4        1 467      0.186000
     45 HN3        -0.3870    0.5730   -3.7510 hn        1 467      0.484800
@<TRIPOS>BOND
     1    1    2 1   
     2    2    3 ar  
     3    2    7 ar  
     4    3    4 ar  
     5    3   30 1   
     6    4    5 ar  
     7    5    6 ar  
     8    5   20 1   
     9    6    7 ar  
    10    7    8 1   
    11    8    9 1   
    12    8   31 1   
    13    9   10 1   
    14    9   11 1   
    15    9   19 1   
    16   10   32 1   
    17   10   33 1   
    18   10   34 1   
    19   11   12 1   
    20   11   18 2   
    21   12   13 1   
    22   12   35 1   
    23   12   45 1   
    24   13   14 1   
    25   13   36 1   
    26   13   37 1   
    27   14   15 1   
    28   14   16 1   
    29   14   17 1   
    30   19   38 1   
    31   19   39 1   
    32   19   40 1   
    33   20   21 1   
    34   20   29 2   
    35   21   22 ar  
    36   21   27 ar  
    37   22   23 ar  
    38   22   41 1   
    39   23   24 1   
    40   23   25 ar  
    41   25   26 ar  
    42   25   42 1   
    43   26   27 ar  
    44   27   28 1   
    45   28   29 1   
    46   28   43 1   
    47   29   44 1   
@<TRIPOS>SUBSTRUCTURE
     1 467         1 TEMP              0 ****  ****    0 ROOT
