@<TRIPOS>MOLECULE
467
   45    47     1     0     0
SMALL
bcc


@<TRIPOS>ATOM
      1 F3          0.6840   -1.2850   -1.6060 f         1 467     -0.152900
      2 C7          1.8830   -0.8500   -1.1570 ca        1 467     -0.165700
      3 C8          2.4150   -1.3450    0.0700 ca        1 467      0.458200
      4 N2          3.5910   -0.9520    0.5500 nb        1 467     -0.667000
      5 C9          4.3070   -0.0250   -0.1900 ca        1 467      0.806800
      6 N3          3.8790    0.5060   -1.3830 nb        1 467     -0.744000
      7 C6          2.6670    0.1110   -1.8630 ca        1 467      0.593200
      8 N1          2.1390    0.7230   -3.0510 nh        1 467     -0.852900
      9 C1          2.4000    0.0340   -4.3130 c3        1 467      0.169200
     10 C2          2.9940   -1.3760   -4.1790 c3        1 467     -0.127600
     11 C3          1.0540   -0.1780   -5.0700 c         1 467      0.537100
     12 N          -0.1930   -0.3230   -4.2170 n4        1 467     -0.671800
     13 C4         -1.3860   -0.7480   -4.9800 c3        1 467      0.033800
     14 C5         -2.6610   -0.8320   -4.0590 c3        1 467      0.631900
     15 F2         -2.5130   -1.7370   -3.0430 f         1 467     -0.201633
     16 F1         -2.9490    0.3620   -3.4550 f         1 467     -0.201633
     17 F          -3.7680   -1.1990   -4.7610 f         1 467     -0.201633
     18 O           0.9050   -0.2800   -6.2740 o         1 467     -0.410100
     19 C           3.2840    0.8470   -5.2760 c3        1 467     -0.127600
     20 C10         5.5890    0.4140    0.3200 cc        1 467     -0.256000
     21 C13         6.2810   -0.0490    1.5040 ca        1 467     -0.143100
     22 C14         6.0420   -0.9860    2.5120 ca        1 467     -0.043000
     23 C15         7.0070   -1.1240    3.5060 ca        1 467     -0.116900
     24 CL          6.7940   -2.2370    4.7620 cl        1 467     -0.054400
     25 C16         8.1900   -0.3300    3.4810 ca        1 467      0.429200
     26 N5          8.4680    0.5790    2.5430 nb        1 467     -0.640000
     27 C12         7.5200    0.7120    1.5700 ca        1 467      0.405800
     28 N4          7.5510    1.5890    0.4640 na        1 467     -0.258100
     29 C11         6.4000    1.4060   -0.2720 cd        1 467     -0.005100
     30 H1          1.8440   -2.0840    0.6660 h4        1 467      0.062100
     31 H2          2.4250    1.6890   -3.1140 hn        1 467      0.426800
     32 H3          3.0570   -1.8570   -5.1860 hc        1 467      0.080533
     33 H4          2.3770   -2.0150   -3.5020 hc        1 467      0.080533
     34 H5          4.0290   -1.3020   -3.7590 hc        1 467      0.080533
     35 H6         -0.3820    0.5830   -3.7620 hn        1 467      0.484800
     36 H7         -1.5930   -0.0110   -5.8090 hx        1 467      0.148200
     37 H8         -1.2070   -1.7630   -5.4360 hx        1 467      0.148200
     38 H9          4.3010    0.9660   -4.8270 hc        1 467      0.080533
     39 H10         3.3820    0.3060   -6.2490 hc        1 467      0.080533
     40 H11         2.8510    1.8570   -5.4710 hc        1 467      0.080533
     41 H12         5.1250   -1.5950    2.5260 ha        1 467      0.173000
     42 H13         8.9550   -0.4430    4.2740 h4        1 467      0.051100
     43 H14         8.2800    2.2310    0.2720 hn        1 467      0.327700
     44 H15         6.2110    1.9920   -1.1780 h4        1 467      0.186000
     45 HN3         0.0050   -1.0060   -3.4620 hn        1 467      0.484800
@<TRIPOS>BOND
     1    1    2 1   
     2    2    3 ar  
     3    2    7 ar  
     4    3    4 ar  
     5    3   30 1   
     6    4    5 ar  
     7    5    6 ar  
     8    5   20 1   
     9    6    7 ar  
    10    7    8 1   
    11    8    9 1   
    12    8   31 1   
    13    9   10 1   
    14    9   11 1   
    15    9   19 1   
    16   10   32 1   
    17   10   33 1   
    18   10   34 1   
    19   11   12 1   
    20   11   18 2   
    21   12   13 1   
    22   12   35 1   
    23   12   45 1   
    24   13   14 1   
    25   13   36 1   
    26   13   37 1   
    27   14   15 1   
    28   14   16 1   
    29   14   17 1   
    30   19   38 1   
    31   19   39 1   
    32   19   40 1   
    33   20   21 1   
    34   20   29 2   
    35   21   22 ar  
    36   21   27 ar  
    37   22   23 ar  
    38   22   41 1   
    39   23   24 1   
    40   23   25 ar  
    41   25   26 ar  
    42   25   42 1   
    43   26   27 ar  
    44   27   28 1   
    45   28   29 1   
    46   28   43 1   
    47   29   44 1   
@<TRIPOS>SUBSTRUCTURE
     1 467         1 TEMP              0 ****  ****    0 ROOT
