@<TRIPOS>MOLECULE
468
   46    48     1     0     0
SMALL
bcc


@<TRIPOS>ATOM
      1 C1         -0.0790   -0.0380   -0.2670 c3        1 468     -0.075900
      2 C2          1.3880    0.3340   -0.2250 c3        1 468     -0.091900
      3 C3          1.9900   -0.0380    1.1430 c3        1 468      0.115700
      4 C4          1.2150    0.7070    2.2470 c3        1 468     -0.091900
      5 C5         -0.2510    0.3340    2.1970 c3        1 468     -0.075900
      6 C6         -0.8560    0.6400    0.8430 c3        1 468     -0.080400
      7 C7          4.3230   -0.7250    1.7440 c         1 468      0.699500
      8 C8          5.6920   -0.0610    1.8730 c3        1 468     -0.164400
      9 C9          5.5180    1.3530    1.3120 c3        1 468     -0.156700
     10 C10         4.0050    1.4870    0.9920 c3        1 468      0.094000
     11 N11         3.4180    0.1770    1.1920 n         1 468     -0.476800
     12 C12         5.9920    2.4390    2.2710 c         1 468      0.672100
     13 N13         7.3150    2.3310    2.6760 n         1 468     -0.474100
     14 O14         5.2420    3.3600    2.6380 o         1 468     -0.581100
     15 O15         4.0680   -1.8960    2.0600 o         1 468     -0.620500
     16 C15         8.0240    3.2240    3.5000 ca        1 468      0.072600
     17 C20         7.3580    4.1180    4.3620 ca        1 468     -0.147000
     18 C19         8.0820    4.9750    5.1840 ca        1 468     -0.102000
     19 C18         9.4720    4.9570    5.1780 ca        1 468     -0.145000
     20 C17        10.1420    4.0710    4.3290 ca        1 468      0.041400
     21 C16         9.4500    3.2020    3.4770 ca        1 468     -0.114300
     22 C23        10.1690    2.2740    2.5710 c3        1 468     -0.061800
     23 CL1        11.8480    4.0930    4.3710 cl        1 468     -0.096400
     24 HN13        7.8410    1.5730    2.2980 hn        1 468      0.320500
     25 H9          6.0990    1.4650    0.3570 hc        1 468      0.083700
     26 H101        3.5170    2.2550    1.6550 h1        1 468      0.068700
     27 H102        3.8640    1.8000   -0.0790 h1        1 468      0.068700
     28 H81         5.9840   -0.0680    2.9530 hc        1 468      0.086200
     29 H82         6.4470   -0.6470    1.2950 hc        1 468      0.086200
     30 H3          1.8370   -1.1510    1.3030 h1        1 468      0.084700
     31 H41         1.6340    0.4410    3.2510 hc        1 468      0.046700
     32 H42         1.3280    1.8140    2.1110 hc        1 468      0.046700
     33 H4         -0.8030    0.9010    2.9920 hc        1 468      0.043950
     34 H5         -0.3680   -0.7590    2.4220 hc        1 468      0.043950
     35 H7         -0.8580    1.7490    0.6750 hc        1 468      0.041700
     36 H6         -1.9220    0.2940    0.8200 hc        1 468      0.041700
     37 H8         -0.5060    0.2590   -1.2600 hc        1 468      0.043950
     38 H1         -0.1870   -1.1510   -0.1730 hc        1 468      0.043950
     39 H2          1.9330   -0.2050   -1.0420 hc        1 468      0.046700
     40 H10         1.5050    1.4350   -0.4030 hc        1 468      0.046700
     41 H18        10.0400    5.6340    5.8350 ha        1 468      0.150000
     42 H19         7.5460    5.6700    5.8480 ha        1 468      0.142000
     43 H20         6.2560    4.1550    4.3890 ha        1 468      0.172000
     44 H231        9.8410    2.4240    1.5110 hc        1 468      0.050367
     45 H232       11.2750    2.4340    2.6030 hc        1 468      0.050367
     46 H233        9.9740    1.2110    2.8620 hc        1 468      0.050367
@<TRIPOS>BOND
     1    1    2 1   
     2    1    6 1   
     3    1   37 1   
     4    1   38 1   
     5    2    3 1   
     6    2   39 1   
     7    2   40 1   
     8    3    4 1   
     9    3   11 1   
    10    3   30 1   
    11    4    5 1   
    12    4   31 1   
    13    4   32 1   
    14    5    6 1   
    15    5   33 1   
    16    5   34 1   
    17    6   35 1   
    18    6   36 1   
    19    7    8 1   
    20    7   11 1   
    21    7   15 2   
    22    8    9 1   
    23    8   28 1   
    24    8   29 1   
    25    9   10 1   
    26    9   12 1   
    27    9   25 1   
    28   10   11 1   
    29   10   26 1   
    30   10   27 1   
    31   12   13 1   
    32   12   14 2   
    33   13   16 1   
    34   13   24 1   
    35   16   17 ar  
    36   16   21 ar  
    37   17   18 ar  
    38   17   43 1   
    39   18   19 ar  
    40   18   42 1   
    41   19   20 ar  
    42   19   41 1   
    43   20   21 ar  
    44   20   23 1   
    45   21   22 1   
    46   22   44 1   
    47   22   45 1   
    48   22   46 1   
@<TRIPOS>SUBSTRUCTURE
     1 468         1 TEMP              0 ****  ****    0 ROOT
