@<TRIPOS>MOLECULE
468
   46    48     1     0     0
SMALL
bcc


@<TRIPOS>ATOM
      1 C1         -1.9960    1.5710   -2.4960 c3        1 468     -0.075900
      2 C2         -1.1960    2.5360   -3.3450 c3        1 468     -0.091900
      3 C3          0.2910    2.1370   -3.3440 c3        1 468      0.115700
      4 C4          0.8060    2.1440   -1.8920 c3        1 468     -0.091900
      5 C5          0.0010    1.1800   -1.0470 c3        1 468     -0.075900
      6 C6         -1.4750    1.5180   -1.0750 c3        1 468     -0.080400
      7 C7          2.0460    2.4410   -5.1050 c         1 468      0.699500
      8 C8          2.8620    3.5900   -5.6920 c3        1 468     -0.164400
      9 C9          2.2630    4.8670   -5.0960 c3        1 468     -0.156700
     10 C10         1.1900    4.3850   -4.0830 c3        1 468      0.094000
     11 N11         1.0800    2.9490   -4.2420 n         1 468     -0.476800
     12 C12         3.3030    5.7630   -4.4350 c         1 468      0.672100
     13 N13         4.3470    6.1610   -5.2600 n         1 468     -0.474100
     14 O14         3.2000    6.1210   -3.2490 o         1 468     -0.581100
     15 O15         2.2060    1.2430   -5.3800 o         1 468     -0.620500
     16 C15         5.4010    7.0330   -4.9300 ca        1 468      0.072600
     17 C20         5.7640    7.2770   -3.5900 ca        1 468     -0.147000
     18 C19         6.8250    8.1240   -3.2920 ca        1 468     -0.102000
     19 C18         7.5520    8.7370   -4.3060 ca        1 468     -0.145000
     20 C17         7.2020    8.4980   -5.6390 ca        1 468      0.041400
     21 C16         6.1320    7.6620   -5.9810 ca        1 468     -0.114300
     22 C23         5.7600    7.4250   -7.3970 c3        1 468     -0.061800
     23 CL1         8.1340    9.2730   -6.8400 cl        1 468     -0.096400
     24 HN13        4.3190    5.8470   -6.2050 hn        1 468      0.320500
     25 H9          1.7550    5.4680   -5.8980 hc        1 468      0.082700
     26 H101        1.4790    4.6540   -3.0280 h1        1 468      0.068700
     27 H102        0.2000    4.8640   -4.3130 h1        1 468      0.068700
     28 H81         3.9340    3.4400   -5.4090 hc        1 468      0.086200
     29 H82         2.7810    3.5750   -6.8060 hc        1 468      0.086200
     30 H3          0.3700    1.0750   -3.7330 h1        1 468      0.084700
     31 H41         0.7270    3.1780   -1.4640 hc        1 468      0.046950
     32 H42         1.8870    1.8470   -1.8700 hc        1 468      0.046950
     33 H4          0.3740    1.2150    0.0100 hc        1 468      0.043950
     34 H5          0.1530    0.1340   -1.4240 hc        1 468      0.043950
     35 H7         -2.0480    0.7500   -0.4930 hc        1 468      0.041700
     36 H6         -1.6410    2.5100   -0.5780 hc        1 468      0.041700
     37 H8         -1.9500    0.5460   -2.9500 hc        1 468      0.043950
     38 H1         -3.0710    1.8880   -2.4910 hc        1 468      0.043950
     39 H2         -1.5920    2.5280   -4.3930 hc        1 468      0.046950
     40 H10        -1.3090    3.5770   -2.9440 hc        1 468      0.046950
     41 H18         8.3940    9.4020   -4.0640 ha        1 468      0.150000
     42 H19         7.0920    8.3080   -2.2400 ha        1 468      0.142000
     43 H20         5.2070    6.8050   -2.7630 ha        1 468      0.172000
     44 H231        6.3650    8.0510   -8.0980 hc        1 468      0.050367
     45 H232        5.9280    6.3520   -7.6720 hc        1 468      0.050367
     46 H233        4.6820    7.6770   -7.5690 hc        1 468      0.050367
@<TRIPOS>BOND
     1    1    2 1   
     2    1    6 1   
     3    1   37 1   
     4    1   38 1   
     5    2    3 1   
     6    2   39 1   
     7    2   40 1   
     8    3    4 1   
     9    3   11 1   
    10    3   30 1   
    11    4    5 1   
    12    4   31 1   
    13    4   32 1   
    14    5    6 1   
    15    5   33 1   
    16    5   34 1   
    17    6   35 1   
    18    6   36 1   
    19    7    8 1   
    20    7   11 1   
    21    7   15 2   
    22    8    9 1   
    23    8   28 1   
    24    8   29 1   
    25    9   10 1   
    26    9   12 1   
    27    9   25 1   
    28   10   11 1   
    29   10   26 1   
    30   10   27 1   
    31   12   13 1   
    32   12   14 2   
    33   13   16 1   
    34   13   24 1   
    35   16   17 ar  
    36   16   21 ar  
    37   17   18 ar  
    38   17   43 1   
    39   18   19 ar  
    40   18   42 1   
    41   19   20 ar  
    42   19   41 1   
    43   20   21 ar  
    44   20   23 1   
    45   21   22 1   
    46   22   44 1   
    47   22   45 1   
    48   22   46 1   
@<TRIPOS>SUBSTRUCTURE
     1 468         1 TEMP              0 ****  ****    0 ROOT
