@<TRIPOS>MOLECULE
468
   47    49     1     0     0
SMALL
bcc


@<TRIPOS>ATOM
      1 C1          0.0070   -0.3890    0.3100 c3        1 468     -0.077900
      2 C2          1.5170   -0.2900    0.3760 c3        1 468     -0.089900
      3 C3          1.9360    0.5040    1.6270 c3        1 468      0.107700
      4 C4          1.3140    1.9090    1.5650 c3        1 468     -0.089900
      5 C5         -0.1960    1.8010    1.4950 c3        1 468     -0.077900
      6 C6         -0.6400    0.9800    0.3020 c3        1 468     -0.083400
      7 C7          4.0630   -0.3120    2.6760 c         1 468      0.701500
      8 C8          5.5710   -0.1580    2.4440 c3        1 468     -0.187400
      9 C9          5.7090    0.8310    1.2850 c3        1 468     -0.158700
     10 C10         4.2480    1.2290    0.9030 c3        1 468      0.099000
     11 N11         3.3730    0.5480    1.8290 n         1 468     -0.470800
     12 C12         6.5210    2.0480    1.6360 c         1 468      0.555100
     13 N13         7.9540    1.7500    2.0820 n4        1 468     -0.548200
     14 O14         6.2090    3.2220    1.5580 o         1 468     -0.383100
     15 O15         3.5710   -1.0620    3.5250 o         1 468     -0.570500
     16 C15         8.3320    2.4170    3.3330 ca        1 468     -0.057400
     17 C20         8.1010    1.7470    4.5470 ca        1 468     -0.108000
     18 C19         8.4600    2.3590    5.7430 ca        1 468     -0.097000
     19 C18         9.0490    3.6220    5.7370 ca        1 468     -0.065000
     20 C17         9.2910    4.2820    4.5260 ca        1 468      0.025400
     21 C16         8.9370    3.6950    3.2970 ca        1 468     -0.019300
     22 C23         9.1910    4.3780    2.0060 c3        1 468     -0.100800
     23 CL1        10.0230    5.8060    4.5880 cl        1 468     -0.016400
     24 HN13        8.5940    2.0650    1.3400 hn        1 468      0.461800
     25 H9          6.1960    0.3410    0.3960 hc        1 468      0.109700
     26 H101        4.0890    2.3410    0.9820 h1        1 468      0.080200
     27 H102        4.0430    0.9130   -0.1580 h1        1 468      0.080200
     28 H81         6.0010   -1.1580    2.1850 hc        1 468      0.091200
     29 H82         6.0320    0.2020    3.3960 hc        1 468      0.091200
     30 H3          1.5170   -0.0300    2.5360 h1        1 468      0.097700
     31 H41         1.6950    2.4550    0.6630 hc        1 468      0.044700
     32 H42         1.6030    2.4990    2.4730 hc        1 468      0.044700
     33 H4         -0.6330    2.8320    1.4260 hc        1 468      0.053950
     34 H5         -0.5830    1.3340    2.4380 hc        1 468      0.053950
     35 H7         -1.7550    0.8670    0.3200 hc        1 468      0.050200
     36 H6         -0.3710    1.5170   -0.6450 hc        1 468      0.050200
     37 H8         -0.3690   -0.9780    1.1880 hc        1 468      0.053950
     38 H1         -0.2840   -0.9480   -0.6180 hc        1 468      0.053950
     39 H2          1.9000    0.2180   -0.5460 hc        1 468      0.044700
     40 H10         1.9560   -1.3210    0.4110 hc        1 468      0.044700
     41 H18         9.3280    4.1020    6.6920 ha        1 468      0.184000
     42 H19         8.2770    1.8400    6.6990 ha        1 468      0.177000
     43 H20         7.6490    0.7410    4.5770 ha        1 468      0.154000
     44 H231        9.6090    5.4070    2.1550 hc        1 468      0.076367
     45 H232        8.2390    4.4920    1.4240 hc        1 468      0.076367
     46 H233        9.9360    3.8050    1.3960 hc        1 468      0.076367
     47 H132        8.0610    0.7360    2.2050 hn        1 468      0.461800
@<TRIPOS>BOND
     1    1    2 1   
     2    1    6 1   
     3    1   37 1   
     4    1   38 1   
     5    2    3 1   
     6    2   39 1   
     7    2   40 1   
     8    3    4 1   
     9    3   11 1   
    10    3   30 1   
    11    4    5 1   
    12    4   31 1   
    13    4   32 1   
    14    5    6 1   
    15    5   33 1   
    16    5   34 1   
    17    6   35 1   
    18    6   36 1   
    19    7    8 1   
    20    7   11 1   
    21    7   15 2   
    22    8    9 1   
    23    8   28 1   
    24    8   29 1   
    25    9   10 1   
    26    9   12 1   
    27    9   25 1   
    28   10   11 1   
    29   10   26 1   
    30   10   27 1   
    31   12   13 1   
    32   12   14 2   
    33   13   16 1   
    34   13   24 1   
    35   13   47 1   
    36   16   17 ar  
    37   16   21 ar  
    38   17   18 ar  
    39   17   43 1   
    40   18   19 ar  
    41   18   42 1   
    42   19   20 ar  
    43   19   41 1   
    44   20   21 ar  
    45   20   23 1   
    46   21   22 1   
    47   22   44 1   
    48   22   45 1   
    49   22   46 1   
@<TRIPOS>SUBSTRUCTURE
     1 468         1 TEMP              0 ****  ****    0 ROOT
