@<TRIPOS>MOLECULE
468
   46    48     1     0     0
SMALL
bcc


@<TRIPOS>ATOM
      1 C1         -0.0800   -0.0520   -0.2530 c3        1 468     -0.075900
      2 C2          1.3870    0.3180   -0.2150 c3        1 468     -0.091900
      3 C3          1.9900   -0.0450    1.1540 c3        1 468      0.115700
      4 C4          1.2170    0.7080    2.2540 c3        1 468     -0.091900
      5 C5         -0.2500    0.3360    2.2080 c3        1 468     -0.075900
      6 C6         -0.8560    0.6330    0.8520 c3        1 468     -0.080400
      7 C7          4.3220   -0.7290    1.7610 c         1 468      0.699500
      8 C8          5.6920   -0.0650    1.8850 c3        1 468     -0.164400
      9 C9          5.5190    1.3450    1.3130 c3        1 468     -0.156700
     10 C10         4.0060    1.4770    0.9910 c3        1 468      0.094000
     11 N11         3.4180    0.1690    1.2010 n         1 468     -0.476800
     12 C12         5.9920    2.4380    2.2650 c         1 468      0.672100
     13 N13         7.3160    2.3330    2.6700 ns        1 468     -0.474100
     14 O14         5.2420    3.3610    2.6250 o         1 468     -0.581100
     15 O15         4.0670   -1.8970    2.0860 o         1 468     -0.620500
     16 C15         8.0240    3.2320    3.4880 ca        1 468      0.072600
     17 C20         7.3570    4.1310    4.3450 ca        1 468     -0.147000
     18 C19         8.0810    4.9930    5.1610 ca        1 468     -0.102000
     19 C18         9.4710    4.9780    5.1540 ca        1 468     -0.145000
     20 C17        10.1420    4.0880    4.3100 ca        1 468      0.041400
     21 C16         9.4500    3.2120    3.4640 ca        1 468     -0.114300
     22 C23        10.1700    2.2800    2.5620 c3        1 468     -0.061800
     23 Cl1        11.8480    4.1120    4.3500 cl        1 468     -0.096400
     24 HN13        7.8420    1.5740    2.2970 hn        1 468      0.320500
     25 H9          6.1000    1.4500    0.3580 hc        1 468      0.082700
     26 H101        3.5180    2.2510    1.6480 h1        1 468      0.068700
     27 H102        3.8660    1.7820   -0.0820 h1        1 468      0.068700
     28 H81         6.4470   -0.6550    1.3110 hc        1 468      0.086200
     29 H82         5.9840   -0.0630    2.9650 hc        1 468      0.086200
     30 H3          1.8360   -1.1570    1.3220 h1        1 468      0.084700
     31 H41         1.6360    0.4480    3.2600 hc        1 468      0.046950
     32 H42         1.3300    1.8140    2.1110 hc        1 468      0.046950
     33 H4         -0.8010    0.9090    2.9990 hc        1 468      0.043950
     34 H5         -0.3680   -0.7560    2.4400 hc        1 468      0.043950
     35 H7         -0.8570    1.7410    0.6770 hc        1 468      0.041700
     36 H6         -1.9220    0.2880    0.8330 hc        1 468      0.041700
     37 H8         -0.5080    0.2380   -1.2480 hc        1 468      0.043950
     38 H1         -0.1890   -1.1650   -0.1530 hc        1 468      0.043950
     39 H2          1.5050    1.4180   -0.4010 hc        1 468      0.046950
     40 H10         1.9310   -0.2270   -1.0290 hc        1 468      0.046950
     41 H18        10.0390    5.6590    5.8060 ha        1 468      0.150000
     42 H19         7.5440    5.6920    5.8210 ha        1 468      0.142000
     43 H20         6.2550    4.1660    4.3730 ha        1 468      0.172000
     44 H231        9.8390    2.4230    1.5020 hc        1 468      0.050367
     45 H232       11.2750    2.4420    2.5920 hc        1 468      0.050367
     46 H233        9.9760    1.2180    2.8600 hc        1 468      0.050367
@<TRIPOS>BOND
     1    1    2 1   
     2    1    6 1   
     3    1   37 1   
     4    1   38 1   
     5    2    3 1   
     6    2   39 1   
     7    2   40 1   
     8    3    4 1   
     9    3   11 1   
    10    3   30 1   
    11    4    5 1   
    12    4   31 1   
    13    4   32 1   
    14    5    6 1   
    15    5   33 1   
    16    5   34 1   
    17    6   35 1   
    18    6   36 1   
    19    7    8 1   
    20    7   11 1   
    21    7   15 2   
    22    8    9 1   
    23    8   28 1   
    24    8   29 1   
    25    9   10 1   
    26    9   12 1   
    27    9   25 1   
    28   10   11 1   
    29   10   26 1   
    30   10   27 1   
    31   12   13 1   
    32   12   14 2   
    33   13   16 1   
    34   13   24 1   
    35   16   17 ar  
    36   16   21 ar  
    37   17   18 ar  
    38   17   43 1   
    39   18   19 ar  
    40   18   42 1   
    41   19   20 ar  
    42   19   41 1   
    43   20   21 ar  
    44   20   23 1   
    45   21   22 1   
    46   22   44 1   
    47   22   45 1   
    48   22   46 1   
@<TRIPOS>SUBSTRUCTURE
     1 468         1 TEMP              0 ****  ****    0 ROOT
