@<TRIPOS>MOLECULE
468
   46    45     1     0     0
SMALL
bcc


@<TRIPOS>ATOM
      1 C1         -1.3340   -2.4780   -3.6250 c3        1 468     -0.156500
      2 C2         -0.1330   -2.7790   -2.7180 c3        1 468     -0.169500
      3 C3         -0.5380   -2.9700   -1.2490 c3        1 468      0.046000
      4 C4         -1.6650   -3.9860   -1.0830 c3        1 468     -0.169500
      5 C5         -2.8680   -3.6850   -1.9960 c3        1 468     -0.156500
      6 C6         -2.4590   -3.4950   -3.4620 c3        1 468     -0.158000
      7 C7         -2.1340   -1.5100    0.2470 c1        1 468      0.306000
      8 C8         -1.7830   -0.2150    1.1860 c3        1 468     -0.183000
      9 C9         -0.4920   -0.0290    0.9460 c3        1 468     -0.147000
     10 C10        -0.2930   -0.7000   -0.6540 c3        1 468     -0.018000
     11 N11        -0.9610   -1.7170   -0.7090 n2        1 468     -0.342000
     12 C12         0.0130    1.4460    1.0370 c2        1 468      0.315000
     13 N13         1.2830    1.7430    1.6810 n         1 468     -0.329000
     14 O14        -0.6990    2.3760    0.6030 o         1 468     -0.338000
     15 O15        -3.1430   -2.1980    0.3150 o         1 468     -0.343000
     16 C15         1.7160    3.1130    1.8170 c2        1 468      0.080000
     17 C20         0.8260    4.1520    1.5270 c2        1 468     -0.147000
     18 C19         1.1720    5.4740    1.8200 c1        1 468     -0.102000
     19 C18         2.4010    5.7620    2.4020 c1        1 468     -0.145000
     20 C17         3.3000    4.7260    2.6970 c1        1 468     -0.037000
     21 C16         2.9580    3.3990    2.4040 c1        1 468     -0.108000
     22 C23         3.9490    2.2670    2.6940 c3        1 468     -0.187000
     23 CL1         4.7640    5.0710    3.5580 cl        1 468     -0.018000
     24 HN13        1.8680    1.0380    1.9190 hn        1 468      0.232000
     25 H9          0.1570   -0.4720    1.5980 hc        1 468      0.120000
     26 H101       -0.6050   -0.0610   -1.3230 h1        1 468      0.090000
     27 H102        0.6300   -0.9070   -0.8080 h1        1 468      0.090000
     28 H81        -2.0910   -0.2760    2.1040 hc        1 468      0.141000
     29 H82        -2.2920    0.6120    0.8650 hc        1 468      0.141000
     30 H3          0.2580   -3.2890   -0.7360 h1        1 468      0.116000
     31 H41        -1.9740   -3.9690   -0.1280 hc        1 468      0.091250
     32 H42        -1.3300   -4.8580   -1.2840 hc        1 468      0.091250
     33 H4         -3.3180   -2.8510   -1.6740 hc        1 468      0.078750
     34 H5         -3.5180   -4.4500   -1.9390 hc        1 468      0.078750
     35 H7         -2.1540   -4.3750   -3.8290 hc        1 468      0.081500
     36 H6         -3.2620   -3.1840   -3.9920 hc        1 468      0.081500
     37 H8         -1.0270   -2.4800   -4.5910 hc        1 468      0.078750
     38 H1         -1.6850   -1.5750   -3.4030 hc        1 468      0.078750
     39 H2          0.5100   -2.0250   -2.7770 hc        1 468      0.091250
     40 H10         0.3030   -3.5890   -3.0340 hc        1 468      0.091250
     41 H18         2.6370    6.6870    2.6040 ha        1 468      0.150000
     42 H19         0.5420    6.2050    1.6140 ha        1 468      0.142000
     43 H20         0.0040    3.9660    1.1370 ha        1 468      0.173000
     44 H231        3.9950    1.6630    1.9180 hc        1 468      0.089000
     45 H232        3.6580    1.7810    3.4580 hc        1 468      0.089000
     46 H233        4.8150    2.6370    2.8620 hc        1 468      0.089000
@<TRIPOS>BOND
     1    1    2 1   
     2    1    6 1   
     3    1   37 1   
     4    1   38 1   
     5    2    3 1   
     6    2   39 1   
     7    2   40 1   
     8    3    4 1   
     9    3   11 1   
    10    3   30 1   
    11    4    5 1   
    12    4   31 1   
    13    4   32 1   
    14    5    6 1   
    15    5   33 1   
    16    5   34 1   
    17    6   35 1   
    18    6   36 1   
    19    7    8 1   
    20    7   15 1   
    21    8    9 1   
    22    8   28 1   
    23    8   29 1   
    24    9   10 1   
    25    9   12 1   
    26    9   25 1   
    27   10   11 1   
    28   10   26 1   
    29   10   27 1   
    30   12   13 1   
    31   12   14 1   
    32   13   16 1   
    33   13   24 1   
    34   16   17 1   
    35   16   21 1   
    36   17   18 1   
    37   17   43 1   
    38   18   42 1   
    39   19   20 1   
    40   19   41 1   
    41   20   23 1   
    42   21   22 1   
    43   22   44 1   
    44   22   45 1   
    45   22   46 1   
@<TRIPOS>SUBSTRUCTURE
     1 468         1 TEMP              0 ****  ****    0 ROOT
