@<TRIPOS>MOLECULE
469
   66    69     1     0     0
SMALL
bcc


@<TRIPOS>ATOM
      1 CAC         6.9300    4.6560   -0.1510 c3        1 469      0.073800
      2 NBG         5.7820    3.8160   -0.3620 n         1 469     -0.455800
      3 CAD         4.5110    4.4730   -0.5030 c3        1 469      0.073800
      4 CAV         5.9410    2.4810   -0.6750 c         1 469      0.571100
      5 OAG         7.0670    1.9390   -0.6610 o         1 469     -0.613100
      6 CAU         4.6960    1.6520   -1.0010 c         1 469      0.561300
      7 OAF         3.8790    2.0580   -1.8350 o         1 469     -0.523100
      8 CBB         4.5810    0.4040   -0.2870 cc        1 469     -0.248400
      9 CBC         3.4220   -0.4680   -0.2710 ca        1 469     -0.051800
     10 CAP         2.1650   -0.4140   -0.8690 ca        1 469     -0.048000
     11 CAQ         5.5660   -0.2120    0.5040 cd        1 469      0.002900
     12 NBJ         5.0830   -1.4030    1.0300 na        1 469     -0.062400
     13 CAE         5.8250   -2.3370    1.8130 c3        1 469      0.020600
     14 CBD         3.7680   -1.5920    0.5660 ca        1 469     -0.047200
     15 CAO         2.8550   -2.6270    0.8040 ca        1 469     -0.133000
     16 CAY         1.6050   -2.5340    0.1980 ca        1 469      0.053400
     17 CLA         0.4810   -3.7790    0.4790 cl        1 469     -0.077400
     18 CBA         1.2610   -1.4450   -0.6320 ca        1 469     -0.137600
     19 CAW        -0.0570   -1.4220   -1.3430 c         1 469      0.682700
     20 OAH        -0.2170   -2.0500   -2.4070 o         1 469     -0.586100
     21 NBI        -1.0830   -0.6620   -0.8050 n         1 469     -0.467800
     22 CBF        -2.3710   -0.5830   -1.4800 c3        1 469      0.105700
     23 CAS        -3.5460   -0.7860   -0.4860 c3        1 469      0.153800
     24 CAB        -2.5690    0.7230   -2.2490 c3        1 469     -0.104100
     25 CAT        -0.9660    0.0830    0.4200 c3        1 469      0.103000
     26 CBE        -2.1550   -0.1320    1.4010 c3        1 469      0.168500
     27 CAA        -1.9560   -1.4430    2.1580 c3        1 469     -0.129100
     28 NBH        -3.4360    0.0300    0.7130 n3        1 469     -0.728600
     29 CAR        -4.5800   -0.1210    1.6030 c3        1 469      0.218100
     30 CAZ        -5.8520    0.4540    1.0510 ca        1 469     -0.102300
     31 CAM        -5.8890    1.7620    0.5550 ca        1 469     -0.093500
     32 CAK        -7.0800    2.3110    0.0910 ca        1 469     -0.169000
     33 CAX        -8.2570    1.5420    0.1270 ca        1 469      0.124900
     34 FAI        -9.4220    2.0690   -0.3200 f         1 469     -0.141900
     35 CAL        -8.2280    0.2260    0.6250 ca        1 469     -0.169000
     36 CAN        -7.0260   -0.3060    1.0800 ca        1 469     -0.093500
     37 HAC         7.8640    4.0360   -0.1030 h1        1 469      0.048867
     38 HACA        7.0280    5.4000   -0.9870 h1        1 469      0.048867
     39 HACB        6.8090    5.2130    0.8170 h1        1 469      0.048867
     40 HAD         4.2690    4.6470   -1.5870 h1        1 469      0.048867
     41 HADA        3.6980    3.8420   -0.0560 h1        1 469      0.048867
     42 HADB        4.5400    5.4590    0.0300 h1        1 469      0.048867
     43 HAP         1.9100    0.4320   -1.5300 ha        1 469      0.172000
     44 HAQ         6.5890    0.1340    0.7020 h4        1 469      0.204000
     45 HAE         5.1990   -2.6840    2.6790 h1        1 469      0.060033
     46 HAEA        6.1090   -3.2290    1.1910 h1        1 469      0.060033
     47 HAEB        6.7580   -1.8480    2.2010 h1        1 469      0.060033
     48 HAO         3.1190   -3.4840    1.4410 ha        1 469      0.153000
     49 HBF        -2.4230   -1.4370   -2.2240 h1        1 469      0.088700
     50 HAS        -4.4990   -0.4940   -1.0100 h1        1 469      0.044200
     51 HASA       -3.6100   -1.8860   -0.2370 h1        1 469      0.044200
     52 HAB        -1.7530    0.8650   -2.9980 hc        1 469      0.044033
     53 HABA       -3.5440    0.6790   -2.7890 hc        1 469      0.044033
     54 HABB       -2.5820    1.5990   -1.5590 hc        1 469      0.044033
     55 HAT        -0.0190   -0.1950    0.9590 h1        1 469      0.053700
     56 HATA       -0.9200    1.1830    0.1670 h1        1 469      0.053700
     57 HBE        -2.0950    0.7120    2.1540 h1        1 469      0.057700
     58 HAA        -0.9690   -1.4280    2.6780 hc        1 469      0.043033
     59 HAAA       -2.7540   -1.5810    2.9270 hc        1 469      0.043033
     60 HAAB       -1.9760   -2.3160    1.4620 hc        1 469      0.043033
     61 HAR        -4.7560   -1.2070    1.8710 h1        1 469      0.041200
     62 HARA       -4.3450    0.4270    2.5620 h1        1 469      0.041200
     63 HAM        -4.9640    2.3600    0.5250 ha        1 469      0.143500
     64 HAK        -7.1110    3.3370   -0.3020 ha        1 469      0.148500
     65 HAL        -9.1520   -0.3680    0.6480 ha        1 469      0.148500
     66 HAN        -7.0060   -1.3370    1.4670 ha        1 469      0.143500
@<TRIPOS>BOND
     1    1    2 1   
     2    1   37 1   
     3    1   38 1   
     4    1   39 1   
     5    2    3 1   
     6    2    4 1   
     7    3   40 1   
     8    3   41 1   
     9    3   42 1   
    10    4    5 2   
    11    4    6 1   
    12    6    7 2   
    13    6    8 1   
    14    8    9 1   
    15    8   11 2   
    16    9   10 ar  
    17    9   14 ar  
    18   10   18 ar  
    19   10   43 1   
    20   11   12 1   
    21   11   44 1   
    22   12   13 1   
    23   12   14 1   
    24   13   45 1   
    25   13   46 1   
    26   13   47 1   
    27   14   15 ar  
    28   15   16 ar  
    29   15   48 1   
    30   16   17 1   
    31   16   18 ar  
    32   18   19 1   
    33   19   20 2   
    34   19   21 1   
    35   21   22 1   
    36   21   25 1   
    37   22   23 1   
    38   22   24 1   
    39   22   49 1   
    40   23   28 1   
    41   23   50 1   
    42   23   51 1   
    43   24   52 1   
    44   24   53 1   
    45   24   54 1   
    46   25   26 1   
    47   25   55 1   
    48   25   56 1   
    49   26   27 1   
    50   26   28 1   
    51   26   57 1   
    52   27   58 1   
    53   27   59 1   
    54   27   60 1   
    55   28   29 1   
    56   29   30 1   
    57   29   61 1   
    58   29   62 1   
    59   30   31 ar  
    60   30   36 ar  
    61   31   32 ar  
    62   31   63 1   
    63   32   33 ar  
    64   32   64 1   
    65   33   34 1   
    66   33   35 ar  
    67   35   36 ar  
    68   35   65 1   
    69   36   66 1   
@<TRIPOS>SUBSTRUCTURE
     1 469         1 TEMP              0 ****  ****    0 ROOT
