@<TRIPOS>MOLECULE
469
   67    70     1     0     0
SMALL
bcc


@<TRIPOS>ATOM
      1 CAC         0.5790   -2.3100   -0.4070 c3        1 469      0.084600
      2 NBG         0.9380   -0.9090   -0.0760 n4        1 469     -0.593200
      3 CAD        -0.2500   -0.1330    0.3570 c3        1 469      0.084600
      4 CAV         1.6110   -0.2440   -1.2710 c         1 469      0.435100
      5 OAG         0.9080   -0.0110   -2.2390 o         1 469     -0.417100
      6 CAU         3.1180    0.0510   -1.0810 c         1 469      0.592300
      7 OAF         3.5470   -0.0290    0.0760 o         1 469     -0.523100
      8 CBB         3.8400    0.3610   -2.2560 cc        1 469     -0.290400
      9 CBC         5.2860    0.5260   -2.2990 ca        1 469     -0.040800
     10 CAP         6.2950    0.4320   -1.3440 ca        1 469     -0.059000
     11 CAQ         3.3720    0.5720   -3.5820 cd        1 469      0.025900
     12 NBJ         4.4220    0.8480   -4.4180 na        1 469     -0.011400
     13 CAE         4.3450    1.1250   -5.8220 c3        1 469      0.001600
     14 CBD         5.6220    0.8230   -3.6670 ca        1 469     -0.062200
     15 CAO         6.9480    1.0180   -4.0660 ca        1 469     -0.113000
     16 CAY         7.9370    0.9110   -3.0870 ca        1 469      0.053400
     17 CLA         9.5520    1.1200   -3.5510 cl        1 469     -0.036400
     18 CBA         7.6160    0.6250   -1.7420 ca        1 469     -0.103600
     19 CAW         8.6960    0.4080   -0.7210 c         1 469      0.669700
     20 OAH         9.0820   -0.7520   -0.4810 o         1 469     -0.580100
     21 NBI         9.2290    1.5020   -0.0690 n         1 469     -0.453800
     22 CBF        10.2060    1.2990    0.9970 c3        1 469      0.103700
     23 CAS        11.2740    2.4230    1.0080 c3        1 469      0.156800
     24 CAB         9.5720    1.1750    2.3810 c3        1 469     -0.109100
     25 CAT         8.7140    2.8390   -0.2250 c3        1 469      0.100000
     26 CBE         9.8100    3.9420   -0.1950 c3        1 469      0.175500
     27 CAA        10.4790    4.0310   -1.5640 c3        1 469     -0.129100
     28 NBH        10.7000    3.7570    0.9510 n3        1 469     -0.728600
     29 CAR        11.7020    4.8110    1.0690 c3        1 469      0.219100
     30 CAZ        12.3450    4.8750    2.4230 ca        1 469     -0.110300
     31 CAM        11.5620    4.9980    3.5760 ca        1 469     -0.092500
     32 CAK        12.1560    5.1060    4.8290 ca        1 469     -0.168500
     33 CAX        13.5600    5.0940    4.9320 ca        1 469      0.131900
     34 FAI        14.1480    5.2000    6.1470 f         1 469     -0.135900
     35 CAL        14.3540    4.9720    3.7770 ca        1 469     -0.168500
     36 CAN        13.7400    4.8610    2.5340 ca        1 469     -0.092500
     37 HAC        -0.1310   -2.3160   -1.2770 hx        1 469      0.107533
     38 HACA        1.5110   -2.8790   -0.6720 hx        1 469      0.107533
     39 HACB        0.0890   -2.7900    0.4830 hx        1 469      0.107533
     40 HAD         0.0760    0.8960    0.6680 hx        1 469      0.107533
     41 HADA       -0.7380   -0.6520    1.2260 hx        1 469      0.107533
     42 HADB       -0.9780   -0.0580   -0.4950 hx        1 469      0.107533
     43 HAP         6.0480    0.1960   -0.2960 ha        1 469      0.173000
     44 HAQ         2.3380    0.5430   -3.9520 h4        1 469      0.196000
     45 HAE         5.0020    0.4060   -6.3830 h1        1 469      0.078033
     46 HAEA        3.2860    1.0170   -6.1750 h1        1 469      0.078033
     47 HAEB        4.6990    2.1740   -6.0190 h1        1 469      0.078033
     48 HAO         7.2030    1.2380   -5.1140 ha        1 469      0.166000
     49 HBF        10.7500    0.3300    0.7730 h1        1 469      0.088700
     50 HAS        11.9900    2.2380    0.1530 h1        1 469      0.050700
     51 HASA       11.8540    2.3400    1.9700 h1        1 469      0.050700
     52 HAB         9.0530    2.1180    2.6730 hc        1 469      0.046367
     53 HABA        8.8390    0.3340    2.4030 hc        1 469      0.046367
     54 HABB       10.3750    0.9640    3.1280 hc        1 469      0.046367
     55 HAT         8.1650    2.9270   -1.2040 h1        1 469      0.046700
     56 HATA        7.9850    3.0490    0.6120 h1        1 469      0.046700
     57 HBE         9.2630    4.9170   -0.0150 h1        1 469      0.061700
     58 HAA        11.2140    4.8720   -1.5880 hc        1 469      0.044033
     59 HAAA       11.0130    3.0830   -1.8140 hc        1 469      0.044033
     60 HAAB        9.7070    4.2200   -2.3470 hc        1 469      0.044033
     61 HAR        11.1850    5.7980    0.8850 h1        1 469      0.043700
     62 HARA       12.5100    4.7010    0.2830 h1        1 469      0.043700
     63 HAM        10.4640    5.0060    3.4910 ha        1 469      0.141500
     64 HAK        11.5450    5.2030    5.7370 ha        1 469      0.151500
     65 HAL        15.4500    4.9650    3.8670 ha        1 469      0.151500
     66 HAN        14.3640    4.7660    1.6310 ha        1 469      0.141500
     67 HBG1        1.6280   -0.9160    0.6960 hn        1 469      0.480800
@<TRIPOS>BOND
     1    1    2 1   
     2    1   37 1   
     3    1   38 1   
     4    1   39 1   
     5    2    3 1   
     6    2    4 1   
     7    2   67 1   
     8    3   40 1   
     9    3   41 1   
    10    3   42 1   
    11    4    5 2   
    12    4    6 1   
    13    6    7 2   
    14    6    8 1   
    15    8    9 1   
    16    8   11 2   
    17    9   10 ar  
    18    9   14 ar  
    19   10   18 ar  
    20   10   43 1   
    21   11   12 1   
    22   11   44 1   
    23   12   13 1   
    24   12   14 1   
    25   13   45 1   
    26   13   46 1   
    27   13   47 1   
    28   14   15 ar  
    29   15   16 ar  
    30   15   48 1   
    31   16   17 1   
    32   16   18 ar  
    33   18   19 1   
    34   19   20 2   
    35   19   21 1   
    36   21   22 1   
    37   21   25 1   
    38   22   23 1   
    39   22   24 1   
    40   22   49 1   
    41   23   28 1   
    42   23   50 1   
    43   23   51 1   
    44   24   52 1   
    45   24   53 1   
    46   24   54 1   
    47   25   26 1   
    48   25   55 1   
    49   25   56 1   
    50   26   27 1   
    51   26   28 1   
    52   26   57 1   
    53   27   58 1   
    54   27   59 1   
    55   27   60 1   
    56   28   29 1   
    57   29   30 1   
    58   29   61 1   
    59   29   62 1   
    60   30   31 ar  
    61   30   36 ar  
    62   31   32 ar  
    63   31   63 1   
    64   32   33 ar  
    65   32   64 1   
    66   33   34 1   
    67   33   35 ar  
    68   35   36 ar  
    69   35   65 1   
    70   36   66 1   
@<TRIPOS>SUBSTRUCTURE
     1 469         1 TEMP              0 ****  ****    0 ROOT
