@<TRIPOS>MOLECULE
469
   67    70     1     0     0
SMALL
bcc


@<TRIPOS>ATOM
      1 CAC         0.5350   -2.2350   -0.4090 c3        1 469      0.084600
      2 NBG         0.9090   -0.8370   -0.0820 n4        1 469     -0.593200
      3 CAD        -0.2710   -0.0470    0.3470 c3        1 469      0.084600
      4 CAV         1.5920   -0.1830   -1.2780 c         1 469      0.435100
      5 OAG         0.8920    0.0550   -2.2480 o         1 469     -0.417100
      6 CAU         3.1010    0.0960   -1.0860 c         1 469      0.592300
      7 OAF         3.5270    0.0130    0.0720 o         1 469     -0.523100
      8 CBB         3.8280    0.3960   -2.2600 cc        1 469     -0.290400
      9 CBC         5.2760    0.5450   -2.3010 ca        1 469     -0.040800
     10 CAP         6.2820    0.4430   -1.3440 ca        1 469     -0.059000
     11 CAQ         3.3650    0.6100   -3.5870 cd        1 469      0.025900
     12 NBJ         4.4190    0.8730   -4.4220 na        1 469     -0.011400
     13 CAE         4.3470    1.1490   -5.8260 c3        1 469      0.001600
     14 CBD         5.6170    0.8370   -3.6680 ca        1 469     -0.062200
     15 CAO         6.9460    1.0170   -4.0660 ca        1 469     -0.113000
     16 CAY         7.9320    0.9010   -3.0860 ca        1 469      0.053400
     17 CLA         9.5500    1.0910   -3.5470 cl        1 469     -0.036400
     18 CBA         7.6060    0.6210   -1.7410 ca        1 469     -0.103600
     19 CAW         8.6810    0.3940   -0.7170 c         1 469      0.669700
     20 OAH         9.0560   -0.7700   -0.4750 o         1 469     -0.580100
     21 NBI         9.2250    1.4820   -0.0660 n         1 469     -0.453800
     22 CBF        10.1980    1.2710    1.0020 c3        1 469      0.103700
     23 CAS        11.2780    2.3840    1.0130 c3        1 469      0.156800
     24 CAB         9.5610    1.1550    2.3860 c3        1 469     -0.109100
     25 CAT         8.7240    2.8240   -0.2240 c3        1 469      0.100000
     26 CBE         9.8310    3.9160   -0.1940 c3        1 469      0.175500
     27 CAA        10.5030    3.9960   -1.5620 c3        1 469     -0.129100
     28 NBH        10.7180    3.7240    0.9530 n3        1 469     -0.728600
     29 CAR        11.7310    4.7670    1.0710 c3        1 469      0.219100
     30 CAZ        12.3720    4.8270    2.4270 ca        1 469     -0.110300
     31 CAM        11.5880    4.9610    3.5780 ca        1 469     -0.092500
     32 CAK        12.1820    5.0650    4.8310 ca        1 469     -0.168500
     33 CAX        13.5850    5.0370    4.9370 ca        1 469      0.131900
     34 FAI        14.1720    5.1390    6.1530 f         1 469     -0.135900
     35 CAL        14.3800    4.9040    3.7830 ca        1 469     -0.168500
     36 CAN        13.7660    4.7970    2.5390 ca        1 469     -0.092500
     37 HAC        -0.1740   -2.2360   -1.2810 hx        1 469      0.107533
     38 HACA        1.4600   -2.8150   -0.6720 hx        1 469      0.107533
     39 HACB        0.0370   -2.7070    0.4800 hx        1 469      0.107533
     40 HAD        -0.9970    0.0340   -0.5070 hx        1 469      0.107533
     41 HADA       -0.7660   -0.5580    1.2160 hx        1 469      0.107533
     42 HADB        0.0650    0.9800    0.6550 hx        1 469      0.107533
     43 HAP         6.0310    0.2100   -0.2960 ha        1 469      0.173000
     44 HAQ         2.3310    0.5910   -3.9590 h4        1 469      0.196000
     45 HAE         4.7140    2.1930   -6.0250 h1        1 469      0.078033
     46 HAEA        3.2870    1.0520   -6.1810 h1        1 469      0.078033
     47 HAEB        4.9970    0.4200   -6.3850 h1        1 469      0.078033
     48 HAO         7.2050    1.2320   -5.1140 ha        1 469      0.166000
     49 HBF        10.7330    0.2960    0.7810 h1        1 469      0.088700
     50 HAS        11.9930    2.1910    0.1600 h1        1 469      0.050700
     51 HASA       11.8550    2.2960    1.9760 h1        1 469      0.050700
     52 HAB        10.3610    0.9370    3.1340 hc        1 469      0.046367
     53 HABA        8.8190    0.3220    2.4080 hc        1 469      0.046367
     54 HABB        9.0510    2.1050    2.6760 hc        1 469      0.046367
     55 HAT         7.9960    3.0440    0.6120 h1        1 469      0.046700
     56 HATA        8.1770    2.9170   -1.2040 h1        1 469      0.046700
     57 HBE         9.2950    4.8980   -0.0160 h1        1 469      0.061700
     58 HAA        11.0270    3.0420   -1.8100 hc        1 469      0.044033
     59 HAAA        9.7340    4.1920   -2.3470 hc        1 469      0.044033
     60 HAAB       11.2470    4.8290   -1.5870 hc        1 469      0.044033
     61 HAR        11.2240    5.7600    0.8850 h1        1 469      0.043700
     62 HARA       12.5380    4.6480    0.2870 h1        1 469      0.043700
     63 HAM        10.4910    4.9820    3.4910 ha        1 469      0.141500
     64 HAK        11.5700    5.1710    5.7380 ha        1 469      0.151500
     65 HAL        15.4750    4.8850    3.8750 ha        1 469      0.151500
     66 HAN        14.3910    4.6930    1.6380 ha        1 469      0.141500
     67 HBG1        1.5970   -0.8500    0.6910 hn        1 469      0.480800
@<TRIPOS>BOND
     1    1    2 1   
     2    1   37 1   
     3    1   38 1   
     4    1   39 1   
     5    2    3 1   
     6    2    4 1   
     7    2   67 1   
     8    3   40 1   
     9    3   41 1   
    10    3   42 1   
    11    4    5 2   
    12    4    6 1   
    13    6    7 2   
    14    6    8 1   
    15    8    9 1   
    16    8   11 2   
    17    9   10 ar  
    18    9   14 ar  
    19   10   18 ar  
    20   10   43 1   
    21   11   12 1   
    22   11   44 1   
    23   12   13 1   
    24   12   14 1   
    25   13   45 1   
    26   13   46 1   
    27   13   47 1   
    28   14   15 ar  
    29   15   16 ar  
    30   15   48 1   
    31   16   17 1   
    32   16   18 ar  
    33   18   19 1   
    34   19   20 2   
    35   19   21 1   
    36   21   22 1   
    37   21   25 1   
    38   22   23 1   
    39   22   24 1   
    40   22   49 1   
    41   23   28 1   
    42   23   50 1   
    43   23   51 1   
    44   24   52 1   
    45   24   53 1   
    46   24   54 1   
    47   25   26 1   
    48   25   55 1   
    49   25   56 1   
    50   26   27 1   
    51   26   28 1   
    52   26   57 1   
    53   27   58 1   
    54   27   59 1   
    55   27   60 1   
    56   28   29 1   
    57   29   30 1   
    58   29   61 1   
    59   29   62 1   
    60   30   31 ar  
    61   30   36 ar  
    62   31   32 ar  
    63   31   63 1   
    64   32   33 ar  
    65   32   64 1   
    66   33   34 1   
    67   33   35 ar  
    68   35   36 ar  
    69   35   65 1   
    70   36   66 1   
@<TRIPOS>SUBSTRUCTURE
     1 469         1 TEMP              0 ****  ****    0 ROOT
