@<TRIPOS>MOLECULE
469
   67    70     1     0     0
SMALL
bcc


@<TRIPOS>ATOM
      1 CAC         0.5820   -2.3140   -0.4190 c3        1 469      0.084600
      2 NBG         0.9420   -0.9160   -0.0760 nx        1 469     -0.593200
      3 CAD        -0.2430   -0.1440    0.3710 c3        1 469      0.084600
      4 CAV         1.6100   -0.2390   -1.2680 c         1 469      0.435100
      5 OAG         0.9020    0.0030   -2.2300 o         1 469     -0.417100
      6 CAU         3.1170    0.0550   -1.0820 c         1 469      0.592300
      7 OAF         3.5520   -0.0380    0.0720 o         1 469     -0.523100
      8 CBB         3.8320    0.3800   -2.2570 cc        1 469     -0.290400
      9 CBC         5.2790    0.5460   -2.3050 ca        1 469     -0.040800
     10 CAP         6.2920    0.4430   -1.3560 ca        1 469     -0.059000
     11 CAQ         3.3580    0.6060   -3.5780 cd        1 469      0.025900
     12 NBJ         4.4040    0.8920   -4.4160 na        1 469     -0.011400
     13 CAE         4.3190    1.1860   -5.8160 c3        1 469      0.001600
     14 CBD         5.6070    0.8610   -3.6710 ca        1 469     -0.062200
     15 CAO         6.9310    1.0620   -4.0750 ca        1 469     -0.113000
     16 CAY         7.9250    0.9450   -3.1020 ca        1 469      0.053400
     17 ClA         9.5380    1.1610   -3.5710 cl        1 469     -0.036400
     18 CBA         7.6110    0.6420   -1.7590 ca        1 469     -0.103600
     19 CAW         8.6960    0.4140   -0.7460 c         1 469      0.669700
     20 OAH         9.0860   -0.7490   -0.5220 o         1 469     -0.580100
     21 NBI         9.2300    1.5000   -0.0830 n         1 469     -0.453800
     22 CBF        10.2130    1.2860    0.9760 c3        1 469      0.103700
     23 CAS        11.2790    2.4120    0.9960 c3        1 469      0.156800
     24 CAB         9.5870    1.1430    2.3620 c3        1 469     -0.109100
     25 CAT         8.7130    2.8380   -0.2190 c3        1 469      0.100000
     26 CBE         9.8070    3.9430   -0.1810 c3        1 469      0.175500
     27 CAA        10.4690    4.0500   -1.5520 c3        1 469     -0.129100
     28 NBH        10.7030    3.7460    0.9580 n3        1 469     -0.728600
     29 CAR        11.7040    4.7990    1.0840 c3        1 469      0.219100
     30 CAZ        12.3530    4.8470    2.4370 ca        1 469     -0.110300
     31 CAM        11.5750    4.9570    3.5940 ca        1 469     -0.092500
     32 CAK        12.1750    5.0500    4.8450 ca        1 469     -0.168500
     33 CAX        13.5790    5.0370    4.9420 ca        1 469      0.131900
     34 FAI        14.1730    5.1290    6.1560 f         1 469     -0.135900
     35 CAL        14.3680    4.9300    3.7820 ca        1 469     -0.168500
     36 CAN        13.7480    4.8330    2.5400 ca        1 469     -0.092500
     37 HAC         0.0950   -2.8020    0.4670 hx        1 469      0.107533
     38 HACA       -0.1330   -2.3110   -1.2860 hx        1 469      0.107533
     39 HACB        1.5120   -2.8800   -0.6950 hx        1 469      0.107533
     40 HAD        -0.7260   -0.6710    1.2370 hx        1 469      0.107533
     41 HADA        0.0840    0.8820    0.6900 hx        1 469      0.107533
     42 HADB       -0.9750   -0.0600   -0.4770 hx        1 469      0.107533
     43 HAP         6.0510    0.1940   -0.3100 ha        1 469      0.173000
     44 HAQ         2.3230    0.5800   -3.9430 h4        1 469      0.196000
     45 HAE         3.2580    1.0810   -6.1650 h1        1 469      0.078033
     46 HAEA        4.6720    2.2370   -6.0020 h1        1 469      0.078033
     47 HAEB        4.9740    0.4740   -6.3880 h1        1 469      0.078033
     48 HAO         7.1810    1.2950   -5.1200 ha        1 469      0.166000
     49 HBF        10.7580    0.3200    0.7380 h1        1 469      0.088700
     50 HAS        11.9910    2.2390    0.1360 h1        1 469      0.050700
     51 HASA       11.8640    2.3170    1.9540 h1        1 469      0.050700
     52 HAB         9.0670    2.0820    2.6690 hc        1 469      0.046367
     53 HABA        8.8550    0.3010    2.3770 hc        1 469      0.046367
     54 HABB       10.3940    0.9250    3.1020 hc        1 469      0.046367
     55 HAT         8.1590    2.9380   -1.1940 h1        1 469      0.046700
     56 HATA        7.9880    3.0370    0.6240 h1        1 469      0.046700
     57 HBE         9.2600    4.9150    0.0140 h1        1 469      0.061700
     58 HAA        11.0030    3.1060   -1.8160 hc        1 469      0.044033
     59 HAAA       11.2030    4.8920   -1.5690 hc        1 469      0.044033
     60 HAAB        9.6930    4.2470   -2.3290 hc        1 469      0.044033
     61 HAR        12.5080    4.7000    0.2940 h1        1 469      0.043700
     62 HARA       11.1850    5.7880    0.9150 h1        1 469      0.043700
     63 HAM        10.4770    4.9650    3.5140 ha        1 469      0.141500
     64 HAK        11.5680    5.1360    5.7580 ha        1 469      0.151500
     65 HAL        15.4640    4.9230    3.8670 ha        1 469      0.151500
     66 HAN        14.3680    4.7490    1.6340 ha        1 469      0.141500
     67 HBG1        1.6360   -0.9310    0.6920 hn        1 469      0.480800
@<TRIPOS>BOND
     1    1    2 1   
     2    1   37 1   
     3    1   38 1   
     4    1   39 1   
     5    2    3 1   
     6    2    4 1   
     7    2   67 1   
     8    3   40 1   
     9    3   41 1   
    10    3   42 1   
    11    4    5 2   
    12    4    6 1   
    13    6    7 2   
    14    6    8 1   
    15    8    9 1   
    16    8   11 2   
    17    9   10 ar  
    18    9   14 ar  
    19   10   18 ar  
    20   10   43 1   
    21   11   12 1   
    22   11   44 1   
    23   12   13 1   
    24   12   14 1   
    25   13   45 1   
    26   13   46 1   
    27   13   47 1   
    28   14   15 ar  
    29   15   16 ar  
    30   15   48 1   
    31   16   17 1   
    32   16   18 ar  
    33   18   19 1   
    34   19   20 2   
    35   19   21 1   
    36   21   22 1   
    37   21   25 1   
    38   22   23 1   
    39   22   24 1   
    40   22   49 1   
    41   23   28 1   
    42   23   50 1   
    43   23   51 1   
    44   24   52 1   
    45   24   53 1   
    46   24   54 1   
    47   25   26 1   
    48   25   55 1   
    49   25   56 1   
    50   26   27 1   
    51   26   28 1   
    52   26   57 1   
    53   27   58 1   
    54   27   59 1   
    55   27   60 1   
    56   28   29 1   
    57   29   30 1   
    58   29   61 1   
    59   29   62 1   
    60   30   31 ar  
    61   30   36 ar  
    62   31   32 ar  
    63   31   63 1   
    64   32   33 ar  
    65   32   64 1   
    66   33   34 1   
    67   33   35 ar  
    68   35   36 ar  
    69   35   65 1   
    70   36   66 1   
@<TRIPOS>SUBSTRUCTURE
     1 469         1 TEMP              0 ****  ****    0 ROOT
