@<TRIPOS>MOLECULE
469
   66    62     1     0     0
SMALL
bcc


@<TRIPOS>ATOM
      1 CAC         0.6150   -6.9640   -5.6120 c3        1 469     -0.081500
      2 NBG        -0.3080   -6.6060   -4.5810 n         1 469     -0.314000
      3 CAD        -1.7160   -6.7390   -4.8050 c3        1 469     -0.081500
      4 CAV         0.1790   -6.1930   -3.2940 c2        1 469      0.265000
      5 OAG         0.9810   -6.8890   -2.6950 o         1 469     -0.372000
      6 CAU        -0.2240   -4.8330   -2.7260 c2        1 469      0.304000
      7 OAF        -0.2750   -3.8610   -3.4570 o         1 469     -0.288000
      8 CBB        -0.4700   -4.6740   -1.2250 c2        1 469     -0.243000
      9 CBC        -0.3020   -3.4430   -0.6170 c1        1 469     -0.040000
     10 CAP         0.5740   -2.3710   -0.8860 c1        1 469     -0.052000
     11 CAQ        -1.5430   -5.3070   -0.6190 c1        1 469      0.031000
     12 NBJ        -2.0340   -4.4730    0.3540 n2        1 469     -0.153000
     13 CAE        -3.1350   -4.8270    1.2060 c2        1 469     -0.078000
     14 CBD        -1.2650   -3.3160    0.3570 c1        1 469     -0.002000
     15 CAO        -1.3760   -2.1150    1.0870 c1        1 469     -0.132000
     16 CAY        -0.5100   -1.0550    0.8200 c1        1 469     -0.024000
     17 CLA        -0.4360   -1.1490    2.5650 cl        1 469      0.006000
     18 CBA         0.4640   -1.1830   -0.1650 c1        1 469     -0.116000
     19 CAW         1.5770   -0.2420    0.3070 c2        1 469      0.355000
     20 OAH         2.7410   -0.5020    0.0550 o         1 469     -0.347000
     21 NBI         1.2410    0.9940    0.9810 n         1 469     -0.323000
     22 CBF         2.2110    1.9470    1.3770 c3        1 469      0.027000
     23 CAS         1.8740    3.3530    0.8810 c3        1 469     -0.087000
     24 CAB         2.2950    1.9650    2.9100 c3        1 469     -0.219000
     25 CAT        -0.0950    1.3630    1.3060 c3        1 469     -0.016000
     26 CBE        -0.4430    2.7620    0.8110 c3        1 469     -0.035000
     27 CAA        -0.5180    2.7440   -0.7130 c3        1 469     -0.248000
     28 NBH         0.5280    3.7420    1.2180 n3        1 469     -0.253000
     29 CAR         0.2200    5.0230    0.5940 c3        1 469     -0.026000
     30 CAZ         0.3480    6.1520    1.6420 c2        1 469     -0.095000
     31 CAM         1.3010    7.1530    1.4730 c2        1 469     -0.104000
     32 CAK         1.3780    8.2010    2.3860 c1        1 469     -0.168000
     33 CAX         0.5030    8.2490    3.4670 c1        1 469      0.090000
     34 FAI         0.6070    9.2370    4.3720 f         1 469     -0.107000
     35 CAL        -0.4500    7.2480    3.6350 c1        1 469     -0.170000
     36 CAN        -0.5280    6.2000    2.7240 c1        1 469     -0.083000
     37 HAC         0.8940   -7.8980   -5.4920 h1        1 469      0.088167
     38 HACA        0.1830   -6.8600   -6.4890 h1        1 469      0.088167
     39 HACB        1.4010   -6.3790   -5.5630 h1        1 469      0.088167
     40 HAD        -2.0990   -7.3410   -4.1320 h1        1 469      0.088167
     41 HADA       -1.8720   -7.1100   -5.7030 h1        1 469      0.088167
     42 HADB       -2.1430   -5.8580   -4.7370 h1        1 469      0.088167
     43 HAP         1.2620   -2.4610   -1.5810 ha        1 469      0.170000
     44 HAQ        -1.9120   -6.1820   -0.8680 DU        1 469      0.203000
     45 HAE        -2.8020   -5.3360    1.9780 ha        1 469      0.099333
     46 HAEA       -3.5820   -4.0100    1.5210 ha        1 469      0.099333
     47 HAEB       -3.7750   -5.3770    0.7020 ha        1 469      0.099333
     48 HAO        -2.0760   -2.0170    1.7680 ha        1 469      0.153000
     49 HBF         3.0860    1.6810    1.0120 h1        1 469      0.129000
     50 HAS         1.9780    3.3790   -0.0970 h1        1 469      0.084000
     51 HASA        2.5020    3.9920    1.2860 h1        1 469      0.084000
     52 HAB         1.4870    2.3860    3.2770 hc        1 469      0.083000
     53 HABA        2.3650    1.0430    3.2450 hc        1 469      0.083000
     54 HABB        3.0870    2.4760    3.1880 hc        1 469      0.083000
     55 HAT        -0.7100    0.7190    0.8970 h1        1 469      0.096500
     56 HATA       -0.2050    1.3330    2.2840 h1        1 469      0.096500
     57 HBE        -1.3240    3.0180    1.1710 h1        1 469      0.098000
     58 HAA        -0.7880    3.6310   -1.0390 hc        1 469      0.082000
     59 HAAA       -1.1800    2.0740   -1.0010 hc        1 469      0.082000
     60 HAAB        0.3630    2.5130   -1.0830 hc        1 469      0.082000
     61 HAR         0.8490    5.1870   -0.1440 h1        1 469      0.081000
     62 HARA       -0.6990    5.0040    0.2430 h1        1 469      0.081000
     63 HAM         1.9180    7.1190    0.7110 ha        1 469      0.137000
     64 HAK         2.0500    8.9070    2.2670 ha        1 469      0.148000
     65 HAL        -1.0680    7.2820    4.3990 ha        1 469      0.149000
     66 HAN        -1.1990    5.4960    2.8430 ha        1 469      0.151000
@<TRIPOS>BOND
     1    1    2 1   
     2    1   37 1   
     3    1   38 1   
     4    1   39 1   
     5    2    3 1   
     6    2    4 1   
     7    3   40 1   
     8    3   41 1   
     9    3   42 1   
    10    4    5 1   
    11    4    6 1   
    12    6    7 1   
    13    6    8 1   
    14    8    9 1   
    15    8   11 1   
    16    9   10 1   
    17   10   43 1   
    18   11   12 1   
    19   12   14 1   
    20   13   45 1   
    21   13   46 1   
    22   13   47 1   
    23   14   15 1   
    24   15   48 1   
    25   16   17 1   
    26   16   18 1   
    27   18   19 1   
    28   19   20 1   
    29   19   21 1   
    30   21   22 1   
    31   21   25 1   
    32   22   23 1   
    33   22   24 1   
    34   22   49 1   
    35   23   28 1   
    36   23   50 1   
    37   23   51 1   
    38   24   52 1   
    39   24   53 1   
    40   24   54 1   
    41   25   26 1   
    42   25   55 1   
    43   25   56 1   
    44   26   27 1   
    45   26   28 1   
    46   26   57 1   
    47   27   58 1   
    48   27   59 1   
    49   27   60 1   
    50   28   29 1   
    51   29   30 1   
    52   29   61 1   
    53   29   62 1   
    54   30   31 1   
    55   30   36 1   
    56   31   32 1   
    57   31   63 1   
    58   32   64 1   
    59   33   34 1   
    60   33   35 1   
    61   35   65 1   
    62   36   66 1   
@<TRIPOS>SUBSTRUCTURE
     1 469         1 TEMP              0 ****  ****    0 ROOT
