@<TRIPOS>MOLECULE
46A
   58    61     1     0     0
SMALL
bcc


@<TRIPOS>ATOM
      1 N1          3.2130    1.5220   -1.3410 nb        1 46A     -0.768000
      2 C5          1.5920   -0.7850   -1.1650 c3        1 46A      0.274100
      3 C6          0.2500   -0.3350   -0.6530 ca        1 46A     -0.105300
      4 C7         -0.1810    0.9780   -0.8610 ca        1 46A     -0.113500
      5 C8         -1.4340    1.3860   -0.4090 ca        1 46A     -0.116000
      6 C10        -1.8450   -0.8360    0.4540 ca        1 46A     -0.116000
      7 C13        -3.6260    2.0020    1.6470 ca        1 46A     -0.126000
      8 C15        -6.0250    1.7940    1.8280 ca        1 46A     -0.135000
      9 C17        -4.7850    0.3000    0.3770 ca        1 46A     -0.109500
     10 C28         5.1880    2.7240   -0.6330 ca        1 46A     -0.436600
     11 C           3.8870   -3.5750    1.7240 c3        1 46A     -0.078400
     12 C2          3.8430   -2.6250    0.5460 c3        1 46A     -0.100400
     13 C3          2.8570   -1.4900    0.8290 c3        1 46A      0.230800
     14 N           2.6960   -0.5530   -0.2620 nh        1 46A     -0.775300
     15 C9         -2.2780    0.4810    0.2490 cp        1 46A     -0.037000
     16 C11        -0.5890   -1.2380    0.0080 ca        1 46A     -0.113500
     17 C12        -3.5820    0.9240    0.7480 cp        1 46A      0.005000
     18 C14        -4.8360    2.4330    2.1820 ca        1 46A     -0.114000
     19 C16        -6.0010    0.7330    0.9270 ca        1 46A     -0.099000
     20 C18        -4.8140   -0.7840   -0.5970 cc        1 46A      0.540500
     21 N19        -4.2020   -0.7300   -1.8980 nc        1 46A     -0.346000
     22 N20        -4.4570   -1.8270   -2.4770 nd        1 46A     -0.151800
     23 N21        -5.1940   -2.5860   -1.6370 na        1 46A      0.092900
     24 N22        -5.4440   -1.9940   -0.4650 nd        1 46A     -0.485800
     25 C23         4.0480    2.5760   -1.4500 ca        1 46A      0.486600
     26 C25         3.5300    0.5650   -0.3810 ca        1 46A      0.909900
     27 N2          4.6380    0.6390    0.4620 nb        1 46A     -0.768000
     28 C27         5.4380    1.7150    0.3200 ca        1 46A      0.486600
     29 C29         6.6340    1.8420    1.2120 c3        1 46A     -0.154400
     30 C30         3.7580    3.6210   -2.4810 c3        1 46A     -0.154400
     31 C31         4.8460   -4.7110    1.4770 c3        1 46A     -0.092100
     32 H5          1.5500   -1.9010   -1.3510 h1        1 46A      0.066700
     33 H5A         1.7850   -0.2880   -2.1590 h1        1 46A      0.066700
     34 H7          0.4720    1.6920   -1.3870 ha        1 46A      0.140500
     35 H8         -1.7700    2.4200   -0.5770 ha        1 46A      0.136000
     36 H10        -2.5010   -1.5510    0.9730 ha        1 46A      0.136000
     37 H13        -2.6870    2.5010    1.9300 ha        1 46A      0.143000
     38 H15        -6.9810    2.1290    2.2560 ha        1 46A      0.137000
     39 H28         5.8510    3.5890   -0.7340 ha        1 46A      0.149000
     40 H           4.1970   -3.0140    2.6450 hc        1 46A      0.038200
     41 HA          2.8600   -3.9850    1.9170 hc        1 46A      0.038200
     42 H2          4.8660   -2.2060    0.3600 hc        1 46A      0.051200
     43 H2A         3.5350   -3.1830   -0.3770 hc        1 46A      0.051200
     44 H3          1.8410   -1.9380    1.0420 h1        1 46A      0.055200
     45 H3A         3.1830   -0.9500    1.7630 h1        1 46A      0.055200
     46 H11        -0.2600   -2.2750    0.1740 ha        1 46A      0.140500
     47 H14        -4.8540    3.2770    2.8880 ha        1 46A      0.136000
     48 H16        -6.9390    0.2340    0.6400 ha        1 46A      0.143000
     49 H29         6.3070    2.0030    2.2690 hc        1 46A      0.056033
     50 H29A        7.2570    0.9140    1.1740 hc        1 46A      0.056033
     51 H29B        7.2600    2.7090    0.8920 hc        1 46A      0.056033
     52 H30         2.6710    3.8800   -2.5040 hc        1 46A      0.056033
     53 H30A        4.3430    4.5470   -2.2610 hc        1 46A      0.056033
     54 H30B        4.0510    3.2410   -3.4910 hc        1 46A      0.056033
     55 H31         4.5400   -5.2970    0.5770 hc        1 46A      0.033367
     56 H31A        5.8790   -4.3240    1.3070 hc        1 46A      0.033367
     57 H31B        4.8660   -5.3990    2.3570 hc        1 46A      0.033367
     58 H27        -5.5210   -3.5060   -1.8530 hn        1 46A      0.350700
@<TRIPOS>BOND
     1    1   25 ar  
     2    1   26 ar  
     3    2    3 1   
     4    2   14 1   
     5    2   32 1   
     6    2   33 1   
     7    3    4 ar  
     8    3   16 ar  
     9    4    5 ar  
    10    4   34 1   
    11    5   15 ar  
    12    5   35 1   
    13    6   15 ar  
    14    6   16 ar  
    15    6   36 1   
    16    7   17 ar  
    17    7   18 ar  
    18    7   37 1   
    19    8   18 ar  
    20    8   19 ar  
    21    8   38 1   
    22    9   17 ar  
    23    9   19 ar  
    24    9   20 1   
    25   10   25 ar  
    26   10   28 ar  
    27   10   39 1   
    28   11   12 1   
    29   11   31 1   
    30   11   40 1   
    31   11   41 1   
    32   12   13 1   
    33   12   42 1   
    34   12   43 1   
    35   13   14 1   
    36   13   44 1   
    37   13   45 1   
    38   14   26 1   
    39   15   17 1   
    40   16   46 1   
    41   18   47 1   
    42   19   48 1   
    43   20   21 1   
    44   20   24 2   
    45   21   22 2   
    46   22   23 1   
    47   23   24 1   
    48   23   58 1   
    49   25   30 1   
    50   26   27 ar  
    51   27   28 ar  
    52   28   29 1   
    53   29   49 1   
    54   29   50 1   
    55   29   51 1   
    56   30   52 1   
    57   30   53 1   
    58   30   54 1   
    59   31   55 1   
    60   31   56 1   
    61   31   57 1   
@<TRIPOS>SUBSTRUCTURE
     1 46A         1 TEMP              0 ****  ****    0 ROOT
