@<TRIPOS>MOLECULE
46A
   58    61     1     0     0
SMALL
bcc


@<TRIPOS>ATOM
      1 N1          0.2140   -0.0720   -0.1040 nb        1 46A     -0.768000
      2 C5         -2.6060    0.0980   -0.1620 c3        1 46A      0.274100
      3 C6         -2.9490    1.5040   -0.5740 ca        1 46A     -0.105300
      4 C7         -2.0480    2.2580   -1.3320 ca        1 46A     -0.113500
      5 C8         -2.3790    3.5500   -1.7340 ca        1 46A     -0.116000
      6 C10        -4.5220    3.3450   -0.6340 ca        1 46A     -0.116000
      7 C13        -3.0960    6.5130   -1.3900 ca        1 46A     -0.126000
      8 C15        -4.5370    8.1430   -2.4370 ca        1 46A     -0.135000
      9 C17        -5.0930    5.7870   -2.5460 ca        1 46A     -0.109500
     10 C28         2.2400   -0.4520    1.1610 ca        1 46A     -0.436600
     11 C          -3.9040   -0.9860    4.1430 c3        1 46A     -0.078400
     12 C2         -3.0680   -1.2280    2.9050 c3        1 46A     -0.100400
     13 C3         -2.6300    0.1080    2.3020 c3        1 46A      0.230800
     14 N          -1.8700   -0.0100    1.0770 nh        1 46A     -0.775300
     15 C9         -3.6200    4.1030   -1.3920 cp        1 46A     -0.037000
     16 C11        -4.1860    2.0560   -0.2270 ca        1 46A     -0.113500
     17 C12        -3.9490    5.4720   -1.7920 cp        1 46A      0.005000
     18 C14        -3.3870    7.8360   -1.7090 ca        1 46A     -0.114000
     19 C16        -5.3860    7.1220   -2.8570 ca        1 46A     -0.099000
     20 C18        -5.9850    4.7480   -3.0450 cc        1 46A      0.540500
     21 N19        -5.5590    3.5930   -3.7910 nc        1 46A     -0.346000
     22 N20        -6.6000    2.9340   -4.0860 nd        1 46A     -0.151800
     23 N21        -7.6700    3.5870   -3.5830 na        1 46A      0.092900
     24 N22        -7.3500    4.7100   -2.9320 nd        1 46A     -0.485800
     25 C23         1.5530   -0.2310   -0.0510 ca        1 46A      0.486600
     26 C25        -0.4770   -0.1460    1.1030 ca        1 46A      0.909900
     27 N2          0.1290   -0.3620    2.3390 nb        1 46A     -0.768000
     28 C27         1.4710   -0.5070    2.3420 ca        1 46A      0.486600
     29 C29         2.1660   -0.7310    3.6480 c3        1 46A     -0.154400
     30 C30         2.3350   -0.1770   -1.3250 c3        1 46A     -0.154400
     31 C31        -4.3580   -2.2830    4.7610 c3        1 46A     -0.092100
     32 H5         -2.0380   -0.3960   -1.0020 h1        1 46A      0.066700
     33 H5A        -3.5680   -0.4810   -0.0220 h1        1 46A      0.066700
     34 H7         -1.0750    1.8270   -1.6140 ha        1 46A      0.140500
     35 H8         -1.6670    4.1380   -2.3330 ha        1 46A      0.136000
     36 H10        -5.4970    3.7730   -0.3580 ha        1 46A      0.136000
     37 H13        -2.1920    6.2700   -0.8100 ha        1 46A      0.143000
     38 H15        -4.7720    9.1880   -2.6840 ha        1 46A      0.137000
     39 H28         3.3270   -0.5750    1.1830 ha        1 46A      0.149000
     40 H          -3.3040   -0.4020    4.8910 hc        1 46A      0.038200
     41 HA         -4.7980   -0.3620    3.8780 hc        1 46A      0.038200
     42 H2         -3.6630   -1.8130    2.1560 hc        1 46A      0.051200
     43 H2A        -2.1670   -1.8410    3.1710 hc        1 46A      0.051200
     44 H3         -2.0410    0.6790    3.0750 h1        1 46A      0.055200
     45 H3A        -3.5520    0.7190    2.0700 h1        1 46A      0.055200
     46 H11        -4.9040    1.4700    0.3670 ha        1 46A      0.140500
     47 H14        -2.7110    8.6400   -1.3830 ha        1 46A      0.136000
     48 H16        -6.2890    7.3620   -3.4390 ha        1 46A      0.143000
     49 H29         3.2430   -0.9660    3.4740 hc        1 46A      0.055867
     50 H29A        2.0950    0.1890    4.2810 hc        1 46A      0.055867
     51 H29B        1.6980   -1.5790    4.2070 hc        1 46A      0.055867
     52 H30         3.4230   -0.0660   -1.1020 hc        1 46A      0.055867
     53 H30A        2.0090    0.6800   -1.9640 hc        1 46A      0.055867
     54 H30B        2.1790   -1.1240   -1.9010 hc        1 46A      0.055867
     55 H31        -3.4810   -2.9080    5.0540 hc        1 46A      0.033367
     56 H31A       -4.9780   -2.8680    4.0390 hc        1 46A      0.033367
     57 H31B       -4.9710   -2.0840    5.6730 hc        1 46A      0.033367
     58 H27        -8.6140    3.2690   -3.6720 hn        1 46A      0.350700
@<TRIPOS>BOND
     1    1   25 ar  
     2    1   26 ar  
     3    2    3 1   
     4    2   14 1   
     5    2   32 1   
     6    2   33 1   
     7    3    4 ar  
     8    3   16 ar  
     9    4    5 ar  
    10    4   34 1   
    11    5   15 ar  
    12    5   35 1   
    13    6   15 ar  
    14    6   16 ar  
    15    6   36 1   
    16    7   17 ar  
    17    7   18 ar  
    18    7   37 1   
    19    8   18 ar  
    20    8   19 ar  
    21    8   38 1   
    22    9   17 ar  
    23    9   19 ar  
    24    9   20 1   
    25   10   25 ar  
    26   10   28 ar  
    27   10   39 1   
    28   11   12 1   
    29   11   31 1   
    30   11   40 1   
    31   11   41 1   
    32   12   13 1   
    33   12   42 1   
    34   12   43 1   
    35   13   14 1   
    36   13   44 1   
    37   13   45 1   
    38   14   26 1   
    39   15   17 1   
    40   16   46 1   
    41   18   47 1   
    42   19   48 1   
    43   20   21 1   
    44   20   24 2   
    45   21   22 2   
    46   22   23 1   
    47   23   24 1   
    48   23   58 1   
    49   25   30 1   
    50   26   27 ar  
    51   27   28 ar  
    52   28   29 1   
    53   29   49 1   
    54   29   50 1   
    55   29   51 1   
    56   30   52 1   
    57   30   53 1   
    58   30   54 1   
    59   31   55 1   
    60   31   56 1   
    61   31   57 1   
@<TRIPOS>SUBSTRUCTURE
     1 46A         1 TEMP              0 ****  ****    0 ROOT
