@<TRIPOS>MOLECULE
46A
   59    62     1     0     0
SMALL
bcc


@<TRIPOS>ATOM
      1 N1         -0.1140   -1.4860   -0.1160 nb        1 46A     -0.686500
      2 C5         -3.1060   -0.3910   -0.7510 c3        1 46A      0.189100
      3 C6         -3.3100    1.0810   -0.7090 ca        1 46A     -0.160300
      4 C7         -2.4270    1.9300   -1.3850 ca        1 46A     -0.098500
      5 C8         -2.6640    3.3020   -1.4220 ca        1 46A     -0.098500
      6 C10        -4.6730    2.9890   -0.1070 ca        1 46A     -0.098500
      7 C13        -3.6320    6.0510    0.2850 ca        1 46A     -0.123000
      8 C15        -4.4880    8.0550   -0.7520 ca        1 46A     -0.118000
      9 C17        -4.6830    5.9220   -1.8940 ca        1 46A     -0.095500
     10 C28         1.6390    0.0760    0.4470 ca        1 46A     -0.332600
     11 C          -3.4230   -1.1110    4.1520 c3        1 46A     -0.076400
     12 C2         -2.5960   -1.4490    2.9270 c3        1 46A     -0.103400
     13 C3         -3.1300   -0.6750    1.7300 c3        1 46A      0.115800
     14 N          -2.4130   -0.9850    0.4530 n4        1 46A     -0.667100
     15 C9         -3.7920    3.8410   -0.7890 cp        1 46A      0.015000
     16 C11        -4.4350    1.6190   -0.0690 ca        1 46A     -0.098500
     17 C12        -4.0420    5.2870   -0.8160 cp        1 46A     -0.037000
     18 C14        -3.8510    7.4260    0.3180 ca        1 46A     -0.110000
     19 C16        -4.9040    7.3080   -1.8520 ca        1 46A     -0.094000
     20 C18        -5.1400    5.1840   -3.0650 cc        1 46A      0.530500
     21 N19        -4.4670    4.0620   -3.6550 nc        1 46A     -0.376000
     22 N20        -5.1460    3.7020   -4.6640 nd        1 46A     -0.148800
     23 N21        -6.2150    4.5180   -4.7630 na        1 46A      0.109900
     24 N22        -6.2640    5.4490   -3.8090 nd        1 46A     -0.469800
     25 C23         1.1990   -1.1410   -0.1240 ca        1 46A      0.483600
     26 C25        -0.9650   -0.5870    0.4770 ca        1 46A      0.729900
     27 N2         -0.6400    0.6080    1.0540 nb        1 46A     -0.686500
     28 C27         0.6830    0.9310    1.0330 ca        1 46A      0.483600
     29 C29         1.1190    2.2180    1.6530 c3        1 46A     -0.168400
     30 C30         2.1930   -2.0720   -0.7350 c3        1 46A     -0.168400
     31 C31        -2.9280   -1.8650    5.3600 c3        1 46A     -0.098100
     32 H5         -2.4860   -0.6750   -1.6520 hx        1 46A      0.102700
     33 H5A        -4.1060   -0.9140   -0.8160 hx        1 46A      0.102700
     34 H7         -1.5510    1.5170   -1.9080 ha        1 46A      0.132000
     35 H8         -1.9790    3.9640   -1.9760 ha        1 46A      0.158500
     36 H10        -5.5630    3.4060    0.3900 ha        1 46A      0.158500
     37 H13        -3.1330    5.5560    1.1320 ha        1 46A      0.137000
     38 H15        -4.6650    9.1410   -0.7290 ha        1 46A      0.150000
     39 H28         2.7050    0.3470    0.4330 ha        1 46A      0.185000
     40 H          -3.3710   -0.0070    4.3480 hc        1 46A      0.052200
     41 HA         -4.5000   -1.3670    3.9640 hc        1 46A      0.052200
     42 H2         -2.6470   -2.5540    2.7370 hc        1 46A      0.064200
     43 H2A        -1.5220   -1.1850    3.1180 hc        1 46A      0.064200
     44 H3         -4.2130   -0.9460    1.5550 hx        1 46A      0.109200
     45 H3A        -3.0740    0.4370    1.9190 hx        1 46A      0.109200
     46 H11        -5.1440    0.9580    0.4510 ha        1 46A      0.132000
     47 H14        -3.5230    8.0140    1.1880 ha        1 46A      0.146000
     48 H16        -5.4070    7.8110   -2.6930 ha        1 46A      0.157000
     49 H29         2.2040    2.3940    1.4500 hc        1 46A      0.079700
     50 H29A        0.9590    2.1850    2.7600 hc        1 46A      0.079700
     51 H29B        0.5310    3.0780    1.2410 hc        1 46A      0.079700
     52 H30         3.1340   -1.5190   -0.9780 hc        1 46A      0.079700
     53 H30A        2.4330   -2.8900   -0.0090 hc        1 46A      0.079700
     54 H30B        1.7980   -2.5400   -1.6720 hc        1 46A      0.079700
     55 H31        -1.8650   -1.6050    5.5810 hc        1 46A      0.048367
     56 H31A       -3.5480   -1.6040    6.2520 hc        1 46A      0.048367
     57 H31B       -2.9950   -2.9670    5.1950 hc        1 46A      0.048367
     58 H27        -6.9060    4.4550   -5.4880 hn        1 46A      0.361700
     59 HN1        -2.4320   -2.0120    0.3330 hn        1 46A      0.460800
@<TRIPOS>BOND
     1    1   25 ar  
     2    1   26 ar  
     3    2    3 1   
     4    2   14 1   
     5    2   32 1   
     6    2   33 1   
     7    3    4 ar  
     8    3   16 ar  
     9    4    5 ar  
    10    4   34 1   
    11    5   15 ar  
    12    5   35 1   
    13    6   15 ar  
    14    6   16 ar  
    15    6   36 1   
    16    7   17 ar  
    17    7   18 ar  
    18    7   37 1   
    19    8   18 ar  
    20    8   19 ar  
    21    8   38 1   
    22    9   17 ar  
    23    9   19 ar  
    24    9   20 1   
    25   10   25 ar  
    26   10   28 ar  
    27   10   39 1   
    28   11   12 1   
    29   11   31 1   
    30   11   40 1   
    31   11   41 1   
    32   12   13 1   
    33   12   42 1   
    34   12   43 1   
    35   13   14 1   
    36   13   44 1   
    37   13   45 1   
    38   14   26 1   
    39   14   59 1   
    40   15   17 1   
    41   16   46 1   
    42   18   47 1   
    43   19   48 1   
    44   20   21 1   
    45   20   24 2   
    46   21   22 2   
    47   22   23 1   
    48   23   24 1   
    49   23   58 1   
    50   25   30 1   
    51   26   27 ar  
    52   27   28 ar  
    53   28   29 1   
    54   29   49 1   
    55   29   50 1   
    56   29   51 1   
    57   30   52 1   
    58   30   53 1   
    59   30   54 1   
    60   31   55 1   
    61   31   56 1   
    62   31   57 1   
@<TRIPOS>SUBSTRUCTURE
     1 46A         1 TEMP              0 ****  ****    0 ROOT
