@<TRIPOS>MOLECULE
46A
   58    61     1     0     0
SMALL
bcc


@<TRIPOS>ATOM
      1 N1          0.2110   -0.0750   -0.1030 nb        1 46A     -0.768000
      2 C5         -2.6080    0.0970   -0.1610 c3        1 46A      0.274100
      3 C6         -2.9500    1.5040   -0.5730 ca        1 46A     -0.105300
      4 C7         -2.0490    2.2560   -1.3320 ca        1 46A     -0.113500
      5 C8         -2.3770    3.5480   -1.7350 ca        1 46A     -0.115500
      6 C10        -4.5210    3.3460   -0.6350 ca        1 46A     -0.115500
      7 C13        -3.0930    6.5130   -1.3910 ca        1 46A     -0.126000
      8 C15        -4.5320    8.1430   -2.4400 ca        1 46A     -0.135000
      9 C17        -5.0880    5.7870   -2.5490 ca        1 46A     -0.109500
     10 C28         2.2370   -0.4550    1.1610 ca        1 46A     -0.436600
     11 C          -3.9060   -0.9810    4.1460 c3        1 46A     -0.078400
     12 C2         -3.0700   -1.2260    2.9080 c3        1 46A     -0.100400
     13 C3         -2.6320    0.1090    2.3030 c3        1 46A      0.230800
     14 N          -1.8720   -0.0110    1.0780 nh        1 46A     -0.775300
     15 C9         -3.6180    4.1030   -1.3930 cp        1 46A     -0.037000
     16 C11        -4.1860    2.0570   -0.2270 ca        1 46A     -0.113500
     17 C12        -3.9450    5.4720   -1.7940 cp        1 46A      0.005000
     18 C14        -3.3830    7.8360   -1.7100 ca        1 46A     -0.114000
     19 C16        -5.3800    7.1230   -2.8600 ca        1 46A     -0.099000
     20 C18        -5.9810    4.7480   -3.0490 cc        1 46A      0.540500
     21 N19        -5.5550    3.5940   -3.7930 nc        1 46A     -0.346000
     22 N20        -6.5960    2.9350   -4.0900 nd        1 46A     -0.151800
     23 N21        -7.6660    3.5880   -3.5870 na        1 46A      0.092900
     24 N22        -7.3460    4.7120   -2.9370 nd        1 46A     -0.485800
     25 C23         1.5500   -0.2340   -0.0500 ca        1 46A      0.486600
     26 C25        -0.4790   -0.1480    1.1040 ca        1 46A      0.909900
     27 N2          0.1270   -0.3630    2.3400 nb        1 46A     -0.768000
     28 C27         1.4690   -0.5090    2.3430 ca        1 46A      0.486600
     29 C29         2.1640   -0.7320    3.6490 c3        1 46A     -0.154400
     30 C30         2.3320   -0.1830   -1.3250 c3        1 46A     -0.154400
     31 C31        -4.3610   -2.2780    4.7650 c3        1 46A     -0.092100
     32 H5         -2.0410   -0.3980   -1.0010 h1        1 46A      0.066700
     33 H5A        -3.5710   -0.4810   -0.0210 h1        1 46A      0.066700
     34 H7         -1.0750    1.8240   -1.6140 ha        1 46A      0.140500
     35 H8         -1.6650    4.1360   -2.3330 ha        1 46A      0.136000
     36 H10        -5.4960    3.7750   -0.3590 ha        1 46A      0.136000
     37 H13        -2.1900    6.2690   -0.8100 ha        1 46A      0.143000
     38 H15        -4.7660    9.1880   -2.6870 ha        1 46A      0.137000
     39 H28         3.3240   -0.5780    1.1840 ha        1 46A      0.149000
     40 H          -3.3050   -0.3980    4.8930 hc        1 46A      0.038200
     41 HA         -4.8000   -0.3570    3.8810 hc        1 46A      0.038200
     42 H2         -3.6660   -1.8110    2.1590 hc        1 46A      0.051200
     43 H2A        -2.1700   -1.8390    3.1740 hc        1 46A      0.051200
     44 H3         -3.5540    0.7210    2.0710 h1        1 46A      0.055200
     45 H3A        -2.0420    0.6810    3.0750 h1        1 46A      0.055200
     46 H11        -4.9040    1.4720    0.3670 ha        1 46A      0.140500
     47 H14        -2.7060    8.6390   -1.3840 ha        1 46A      0.136000
     48 H16        -6.2830    7.3630   -3.4430 ha        1 46A      0.143000
     49 H29         2.0990    0.1920    4.2780 hc        1 46A      0.055867
     50 H29A        3.2400   -0.9740    3.4740 hc        1 46A      0.055867
     51 H29B        1.6920   -1.5740    4.2130 hc        1 46A      0.055867
     52 H30         1.9920    0.6590   -1.9770 hc        1 46A      0.055867
     53 H30A        2.1950   -1.1410   -1.8870 hc        1 46A      0.055867
     54 H30B        3.4180   -0.0490   -1.1020 hc        1 46A      0.055867
     55 H31        -4.9730   -2.0780    5.6770 hc        1 46A      0.033367
     56 H31A       -3.4840   -2.9030    5.0590 hc        1 46A      0.033367
     57 H31B       -4.9820   -2.8630    4.0450 hc        1 46A      0.033367
     58 H27        -8.6110    3.2720   -3.6770 hn        1 46A      0.350700
@<TRIPOS>BOND
     1    1   25 ar  
     2    1   26 ar  
     3    2    3 1   
     4    2   14 1   
     5    2   32 1   
     6    2   33 1   
     7    3    4 ar  
     8    3   16 ar  
     9    4    5 ar  
    10    4   34 1   
    11    5   15 ar  
    12    5   35 1   
    13    6   15 ar  
    14    6   16 ar  
    15    6   36 1   
    16    7   17 ar  
    17    7   18 ar  
    18    7   37 1   
    19    8   18 ar  
    20    8   19 ar  
    21    8   38 1   
    22    9   17 ar  
    23    9   19 ar  
    24    9   20 1   
    25   10   25 ar  
    26   10   28 ar  
    27   10   39 1   
    28   11   12 1   
    29   11   31 1   
    30   11   40 1   
    31   11   41 1   
    32   12   13 1   
    33   12   42 1   
    34   12   43 1   
    35   13   14 1   
    36   13   44 1   
    37   13   45 1   
    38   14   26 1   
    39   15   17 1   
    40   16   46 1   
    41   18   47 1   
    42   19   48 1   
    43   20   21 1   
    44   20   24 2   
    45   21   22 2   
    46   22   23 1   
    47   23   24 1   
    48   23   58 1   
    49   25   30 1   
    50   26   27 ar  
    51   27   28 ar  
    52   28   29 1   
    53   29   49 1   
    54   29   50 1   
    55   29   51 1   
    56   30   52 1   
    57   30   53 1   
    58   30   54 1   
    59   31   55 1   
    60   31   56 1   
    61   31   57 1   
@<TRIPOS>SUBSTRUCTURE
     1 46A         1 TEMP              0 ****  ****    0 ROOT
