@<TRIPOS>MOLECULE
46A
   58    51     1     0     0
SMALL
bcc


@<TRIPOS>ATOM
      1 N1          2.1710   -0.9400    2.0710 n1        1 46A     -0.237000
      2 C5         -0.7060   -1.7130   -0.0640 c3        1 46A      0.031000
      3 C6         -1.0590   -0.3060   -0.5530 c2        1 46A     -0.101000
      4 C7         -0.2230    0.7650   -0.2480 c2        1 46A     -0.106000
      5 C8         -0.4910    2.0280   -0.7680 c1        1 46A     -0.115000
      6 C10        -2.4310    1.1540   -1.8990 c1        1 46A     -0.117000
      7 C13        -2.8290    4.3100   -1.5010 c1        1 46A     -0.126000
      8 C15        -2.5940    5.9350   -3.2540 c1        1 46A     -0.114500
      9 C17        -1.2830    3.9240   -3.2910 c1        1 46A     -0.001000
     10 C28         4.1640   -1.7890    1.1400 c1        1 46A     -0.305000
     11 C          -1.8510   -3.0170    4.2230 c3        1 46A     -0.157000
     12 C2         -1.1760   -3.0320    2.8270 c3        1 46A     -0.178000
     13 C3         -0.7430   -1.5920    2.4460 c3        1 46A     -0.007000
     14 N           0.0030   -1.6240    1.1980 n3        1 46A     -0.265000
     15 C9         -1.5960    2.2220   -1.5940 c1        1 46A     -0.039000
     16 C11        -2.1630   -0.1120   -1.3780 c1        1 46A     -0.125000
     17 C12        -1.8760    3.5120   -2.1120 c1        1 46A     -0.003000
     18 C14        -3.1890    5.5230   -2.0740 c1        1 46A     -0.115000
     19 C16        -1.6430    5.1380   -3.8630 c1        1 46A     -0.114500
     20 C18        -0.4120    3.1740   -4.0140 c1        1 46A     -0.096000
     21 N19        -0.7310    2.3670   -5.0400 n2        1 46A     -0.067000
     22 N20         0.4060    1.9120   -5.5790 n2        1 46A     -0.089000
     23 N21         1.4310    2.4370   -4.8890 n2        1 46A     -0.089000
     24 N22         0.9250    3.2160   -3.9220 n2        1 46A     -0.067000
     25 C23         3.5210   -0.9700    2.0320 c1        1 46A      0.064000
     26 C25         1.4480   -1.7260    1.2230 c2        1 46A      0.191000
     27 N2          2.0930   -2.5470    0.3280 n2        1 46A     -0.247000
     28 C27         3.4370   -2.5780    0.2880 c1        1 46A      0.064000
     29 C29         4.1560   -3.5890   -0.6240 c3        1 46A     -0.178000
     30 C30         4.3270   -0.0860    2.9660 c3        1 46A     -0.178000
     31 C31        -2.1960   -4.4710    4.6500 c3        1 46A     -0.210000
     32 H5         -1.5250   -2.2310    0.0580 h1        1 46A      0.105000
     33 H5A        -0.1380   -2.1540   -0.7250 h1        1 46A      0.105000
     34 H7          0.5550    0.6290    0.3340 ha        1 46A      0.152000
     35 H8          0.0980    2.7810   -0.5530 DU        1 46A      0.193667
     36 H10        -3.2060    1.2900   -2.4780 ha        1 46A      0.139000
     37 H13        -3.2460    4.0220   -0.6750 DU        1 46A      0.193667
     38 H15        -2.8480    6.7900   -3.6570 ha        1 46A      0.143500
     39 H28         5.1380   -1.8110    1.1120 ha        1 46A      0.149000
     40 H          -1.2370   -2.6210    4.8790 hc        1 46A      0.078000
     41 HA         -2.6750   -2.4830    4.1830 hc        1 46A      0.078000
     42 H2         -1.8110   -3.3680    2.1620 hc        1 46A      0.090000
     43 H2A        -0.3900   -3.6140    2.8510 hc        1 46A      0.090000
     44 H3         -0.1760   -1.2220    3.1560 h1        1 46A      0.095500
     45 H3A        -1.5380   -1.0290    2.3370 h1        1 46A      0.095500
     46 H11        -2.7540   -0.8670   -1.5930 ha        1 46A      0.130000
     47 H14        -3.8580    6.0830   -1.6450 ha        1 46A      0.136000
     48 H16        -1.2240    5.4290   -4.6960 ha        1 46A      0.143500
     49 H29         4.7810   -4.1310   -0.0860 hc        1 46A      0.095000
     50 H29A        4.6570   -3.1050   -1.3200 hc        1 46A      0.095000
     51 H29B        3.4940   -4.1780   -1.0470 hc        1 46A      0.095000
     52 H30         3.7740    0.6670    3.2630 hc        1 46A      0.095333
     53 H30A        5.1160    0.2550    2.4930 hc        1 46A      0.095333
     54 H30B        4.6140   -0.6090    3.7450 hc        1 46A      0.095333
     55 H31        -2.8540   -4.8500    4.0230 hc        1 46A      0.072667
     56 H31A       -2.5760   -4.4650    5.5610 hc        1 46A      0.072667
     57 H31B       -1.3790   -5.0200    4.6390 hc        1 46A      0.072667
     58 H27         2.3140    2.2900   -5.0490 DU        1 46A      0.193667
@<TRIPOS>BOND
     1    1   26 1   
     2    2    3 1   
     3    2   14 1   
     4    2   32 1   
     5    2   33 1   
     6    3    4 1   
     7    3   16 1   
     8    4    5 1   
     9    4   34 1   
    10    5   15 1   
    11    6   15 1   
    12    6   36 1   
    13    7   17 1   
    14    7   18 1   
    15    8   19 1   
    16    8   38 1   
    17    9   17 1   
    18   10   25 1   
    19   10   39 1   
    20   11   12 1   
    21   11   31 1   
    22   11   40 1   
    23   11   41 1   
    24   12   13 1   
    25   12   42 1   
    26   12   43 1   
    27   13   14 1   
    28   13   44 1   
    29   13   45 1   
    30   14   26 1   
    31   16   46 1   
    32   18   47 1   
    33   19   48 1   
    34   20   21 1   
    35   20   24 1   
    36   21   22 1   
    37   22   23 1   
    38   23   24 1   
    39   25   30 1   
    40   26   27 1   
    41   27   28 1   
    42   28   29 1   
    43   29   49 1   
    44   29   50 1   
    45   29   51 1   
    46   30   52 1   
    47   30   53 1   
    48   30   54 1   
    49   31   55 1   
    50   31   56 1   
    51   31   57 1   
@<TRIPOS>SUBSTRUCTURE
     1 46A         1 TEMP              0 ****  ****    0 ROOT
