@<TRIPOS>MOLECULE
46B
   45    41     1     0     0
SMALL
bcc


@<TRIPOS>ATOM
      1 O19        -5.3090    1.4100    6.2210 o         1 46B     -0.552000
      2 C18        -4.3110    0.6000    6.1240 c2        1 46B      0.346000
      3 O20        -4.0360   -0.2190    7.1080 o         1 46B     -0.552000
      4 C17        -3.5240    0.4950    4.7810 c3        1 46B     -0.114000
      5 O16        -2.3980    1.3960    4.8070 os        1 46B     -0.164000
      6 C13        -1.5860    1.3450    3.6120 c2        1 46B      0.133000
      7 C14        -1.8960    2.1590    2.5260 c1        1 46B     -0.229000
      8 C15        -1.0930    2.1490    1.4070 c1        1 46B     -0.087000
      9 C12        -0.4920    0.5410    3.5700 c2        1 46B     -0.186000
     10 C11         0.3160    0.5300    2.4460 c1        1 46B     -0.064000
     11 C10         0.0090    1.3400    1.3640 c1        1 46B     -0.105000
     12 C2          0.8480    1.2950    0.1420 c2        1 46B     -0.012000
     13 N1          1.7730    2.2750    0.3280 n2        1 46B     -0.120000
     14 C9          2.6130    2.2960   -0.7880 c1        1 46B     -0.014000
     15 C8          3.6470    3.1660   -1.1600 c1        1 46B     -0.101500
     16 C7          4.2420    3.0390   -2.4000 c1        1 46B     -0.101500
     17 C3          1.1010    0.6950   -1.0880 c1        1 46B     -0.071000
     18 N4          2.1940    1.3220   -1.6510 n2        1 46B     -0.064000
     19 C5          2.7910    1.1950   -2.8950 c1        1 46B      0.007000
     20 C6          3.8190    2.0590   -3.2670 c1        1 46B     -0.233000
     21 BR1         4.7360    1.5120   -4.8480 br        1 46B      0.058000
     22 N21         0.1690   -0.3700   -1.4300 n2        1 46B     -0.232000
     23 C22         0.6690   -1.6330   -1.9600 c3        1 46B     -0.076000
     24 C23        -0.4940   -2.4630   -2.4820 c3        1 46B     -0.166000
     25 C24         0.0220   -3.9020   -2.8750 c3        1 46B     -0.157000
     26 C25        -1.1780   -4.7830   -3.3180 c3        1 46B     -0.211000
     27 H171       -3.2040   -0.4280    4.6590 h1        1 46B      0.062000
     28 H172       -4.1220    0.7390    4.0310 h1        1 46B      0.062000
     29 H14        -2.6440    2.7910    2.5840 ha        1 46B      0.145000
     30 H12        -0.2750   -0.0330    4.3370 ha        1 46B      0.150000
     31 H15        -1.2530    2.7740    0.7030 ha        1 46B      0.120000
     32 H11         1.1250    0.0450    2.4550 ha        1 46B      0.132000
     33 H8          3.8530    3.9300   -0.6060 ha        1 46B      0.155000
     34 H7          4.9870    3.6670   -2.6710 ha        1 46B      0.155000
     35 H5          2.4830    0.4830   -3.5260 ha        1 46B      0.182000
     36 H121       -0.7730   -0.2440   -1.3010 hn        1 46B      0.196000
     37 H221        1.1200   -2.1210   -1.2570 h1        1 46B      0.076000
     38 H222        1.2980   -1.4540   -2.6900 h1        1 46B      0.076000
     39 H231       -1.1710   -2.5400   -1.7900 hc        1 46B      0.091000
     40 H232       -0.8740   -2.0320   -3.2590 hc        1 46B      0.091000
     41 H241        0.6670   -3.8300   -3.6160 hc        1 46B      0.078500
     42 H242        0.4490   -4.3040   -2.1160 hc        1 46B      0.078500
     43 H251       -1.7890   -4.9150   -2.5530 hc        1 46B      0.073000
     44 H252       -0.8540   -5.6330   -3.6180 hc        1 46B      0.073000
     45 H253       -1.6540   -4.3430   -4.0430 hc        1 46B      0.073000
@<TRIPOS>BOND
     1    1    2 1   
     2    2    3 1   
     3    2    4 1   
     4    4    5 1   
     5    4   27 1   
     6    4   28 1   
     7    5    6 1   
     8    6    7 1   
     9    6    9 1   
    10    7   29 1   
    11    8   11 1   
    12    8   31 1   
    13    9   10 1   
    14    9   30 1   
    15   10   32 1   
    16   11   12 1   
    17   12   13 1   
    18   12   17 1   
    19   13   14 1   
    20   14   18 1   
    21   15   16 1   
    22   15   33 1   
    23   16   34 1   
    24   17   18 1   
    25   19   20 1   
    26   19   35 1   
    27   20   21 1   
    28   22   23 1   
    29   22   36 1   
    30   23   24 1   
    31   23   37 1   
    32   23   38 1   
    33   24   25 1   
    34   24   39 1   
    35   24   40 1   
    36   25   26 1   
    37   25   41 1   
    38   25   42 1   
    39   26   43 1   
    40   26   44 1   
    41   26   45 1   
@<TRIPOS>SUBSTRUCTURE
     1 46B         1 TEMP              0 ****  ****    0 ROOT
