@<TRIPOS>MOLECULE
46B
   45    47     1     0     0
SMALL
bcc


@<TRIPOS>ATOM
      1 O19         7.5920    2.5850    0.1940 o         1 46B     -0.817300
      2 C18         7.5310    1.3960   -0.2110 c         1 46B      0.926600
      3 O20         8.4970    0.5980   -0.3210 o         1 46B     -0.817300
      4 C17         6.1430    0.8830   -0.7020 c3        1 46B     -0.013600
      5 O16         5.4090    0.4770    0.4610 os        1 46B     -0.280900
      6 C13         4.1180    0.0870    0.2610 ca        1 46B      0.177100
      7 C14         3.4020   -0.2620    1.4300 ca        1 46B     -0.207500
      8 C15         2.0750   -0.6470    1.3360 ca        1 46B     -0.076000
      9 C12         3.4840    0.0110   -0.9910 ca        1 46B     -0.207500
     10 C11         2.1510   -0.3770   -1.0680 ca        1 46B     -0.076000
     11 C10         1.4270   -0.6850    0.0900 ca        1 46B     -0.115800
     12 C2          0.0190   -1.0330    0.0110 cc        1 46B      0.135400
     13 N1         -0.5500   -2.1570    0.6030 nc        1 46B     -0.259600
     14 C9         -1.8750   -2.1120    0.3000 cd        1 46B     -0.040300
     15 C8         -2.9510   -2.9950    0.6500 cd        1 46B     -0.089000
     16 C7         -4.2170   -2.7260    0.2120 cc        1 46B     -0.115000
     17 C3         -0.9720   -0.2590   -0.6780 cd        1 46B     -0.013100
     18 N4         -2.1830   -0.9610   -0.5080 na        1 46B      0.009700
     19 C5         -3.4590   -0.7150   -0.9420 cd        1 46B     -0.018300
     20 C6         -4.4810   -1.5760   -0.5940 cc        1 46B     -0.091900
     21 BR1        -6.2190   -1.2410   -1.1850 br        1 46B     -0.082100
     22 N21        -0.8460    0.9030   -1.4660 nh        1 46B     -0.673000
     23 C22        -1.4070    2.1170   -0.8970 c3        1 46B      0.160800
     24 C23        -0.6480    2.7410    0.2710 c3        1 46B     -0.119400
     25 C24        -1.3360    4.0070    0.7330 c3        1 46B     -0.073400
     26 C25        -0.5950    4.6460    1.8790 c3        1 46B     -0.094100
     27 H171        5.5940    1.7080   -1.2220 h1        1 46B      0.022700
     28 H172        6.2670    0.0020   -1.3810 h1        1 46B      0.022700
     29 H14         3.9180   -0.2180    2.4000 ha        1 46B      0.147500
     30 H12         4.0390    0.2480   -1.9090 ha        1 46B      0.147500
     31 H15         1.5190   -0.9240    2.2450 ha        1 46B      0.126500
     32 H11         1.6710   -0.4610   -2.0550 ha        1 46B      0.126500
     33 H8         -2.7110   -3.8720    1.2680 ha        1 46B      0.163000
     34 H7         -5.0510   -3.3950    0.4750 ha        1 46B      0.147000
     35 H5         -3.6030    0.1810   -1.5740 h4        1 46B      0.181000
     36 H121        0.1290    1.0300   -1.6860 hn        1 46B      0.402800
     37 H221       -1.4460    2.8610   -1.7450 h1        1 46B      0.047200
     38 H222       -2.4650    1.9090   -0.5740 h1        1 46B      0.047200
     39 H231       -0.5870    2.0110    1.1200 hc        1 46B      0.058200
     40 H232        0.4050    2.9780   -0.0380 hc        1 46B      0.058200
     41 H241       -1.4040    4.7310   -0.1220 hc        1 46B      0.032700
     42 H242       -2.3870    3.7690    1.0490 hc        1 46B      0.032700
     43 H251        0.4470    4.9100    1.5760 hc        1 46B      0.035700
     44 H252       -1.1160    5.5790    2.2060 hc        1 46B      0.035700
     45 H253       -0.5390    3.9490    2.7500 hc        1 46B      0.035700
@<TRIPOS>BOND
     1    1    2 1   
     2    2    3 1   
     3    2    4 1   
     4    4    5 1   
     5    4   27 1   
     6    4   28 1   
     7    5    6 1   
     8    6    7 ar  
     9    6    9 ar  
    10    7    8 ar  
    11    7   29 1   
    12    8   11 ar  
    13    8   31 1   
    14    9   10 ar  
    15    9   30 1   
    16   10   11 ar  
    17   10   32 1   
    18   11   12 1   
    19   12   13 1   
    20   12   17 2   
    21   13   14 2   
    22   14   15 1   
    23   14   18 1   
    24   15   16 2   
    25   15   33 1   
    26   16   20 1   
    27   16   34 1   
    28   17   18 1   
    29   17   22 1   
    30   18   19 1   
    31   19   20 2   
    32   19   35 1   
    33   20   21 1   
    34   22   23 1   
    35   22   36 1   
    36   23   24 1   
    37   23   37 1   
    38   23   38 1   
    39   24   25 1   
    40   24   39 1   
    41   24   40 1   
    42   25   26 1   
    43   25   41 1   
    44   25   42 1   
    45   26   43 1   
    46   26   44 1   
    47   26   45 1   
@<TRIPOS>SUBSTRUCTURE
     1 46B         1 TEMP              0 ****  ****    0 ROOT
