@<TRIPOS>MOLECULE
46B
   45    47     1     0     0
SMALL
bcc


@<TRIPOS>ATOM
      1 O19         0.1060   -1.3730   -1.1630 o         1 46B     -0.817300
      2 C18         0.8550   -0.4180   -0.8350 c         1 46B      0.926600
      3 O20         0.8560    0.1780    0.2740 o         1 46B     -0.817300
      4 C17         1.8190    0.1380   -1.9270 c3        1 46B     -0.013600
      5 O16         2.9770   -0.7080   -1.9350 os        1 46B     -0.280900
      6 C13         3.9090   -0.4540   -2.8980 ca        1 46B      0.177100
      7 C14         5.0170   -1.3330   -2.9160 ca        1 46B     -0.207500
      8 C15         6.0060   -1.1760   -3.8720 ca        1 46B     -0.076000
      9 C12         3.8360    0.5910   -3.8350 ca        1 46B     -0.207500
     10 C11         4.8370    0.7340   -4.7890 ca        1 46B     -0.076000
     11 C10         5.9160   -0.1570   -4.8350 ca        1 46B     -0.115800
     12 C2          6.9280   -0.0380   -5.8690 cc        1 46B      0.135400
     13 N1          8.2990   -0.0110   -5.6310 nc        1 46B     -0.259600
     14 C9          8.8920    0.1010   -6.8500 cd        1 46B     -0.040300
     15 C8         10.2760    0.1620   -7.2220 cd        1 46B     -0.089000
     16 C7         10.6190    0.2780   -8.5390 cc        1 46B     -0.115000
     17 C3          6.6500    0.0540   -7.2720 cd        1 46B     -0.013100
     18 N4          7.9080    0.1610   -7.9000 na        1 46B      0.009700
     19 C5          8.2740    0.2850   -9.2150 cd        1 46B     -0.018300
     20 C6          9.6120    0.3420   -9.5520 cc        1 46B     -0.091900
     21 BR1        10.1110    0.5100  -11.3420 br        1 46B     -0.082100
     22 N21         5.4230    0.1320   -7.9630 nh        1 46B     -0.673000
     23 C22         5.0670   -1.0330   -8.7550 c3        1 46B      0.160800
     24 C23         4.6340   -2.2790   -7.9860 c3        1 46B     -0.119400
     25 C24         4.2710   -3.3920   -8.9440 c3        1 46B     -0.073400
     26 C25         3.8290   -4.6290   -8.2040 c3        1 46B     -0.094100
     27 H171        1.3210    0.1010   -2.9280 h1        1 46B      0.022700
     28 H172        2.1320    1.1830   -1.6800 h1        1 46B      0.022700
     29 H14         5.0710   -2.1320   -2.1630 ha        1 46B      0.147500
     30 H12         2.9960    1.3000   -3.8110 ha        1 46B      0.147500
     31 H15         6.8720   -1.8550   -3.8820 ha        1 46B      0.126500
     32 H11         4.7860    1.5730   -5.5000 ha        1 46B      0.126500
     33 H8         11.0230    0.1140   -6.4170 ha        1 46B      0.163000
     34 H7         11.6770    0.3250   -8.8370 ha        1 46B      0.147000
     35 H5          7.4540    0.3440   -9.9530 h4        1 46B      0.181000
     36 H121        4.6990    0.3440   -7.2940 hn        1 46B      0.402800
     37 H221        4.2170   -0.7020   -9.4180 h1        1 46B      0.047200
     38 H222        5.9380   -1.2980   -9.4180 h1        1 46B      0.047200
     39 H231        3.7520   -2.0410   -7.3340 hc        1 46B      0.058200
     40 H232        5.4630   -2.6160   -7.3090 hc        1 46B      0.058200
     41 H241        3.4490   -3.0470   -9.6250 hc        1 46B      0.032700
     42 H242        5.1560   -3.6350   -9.5900 hc        1 46B      0.032700
     43 H251        4.6450   -5.0020   -7.5380 hc        1 46B      0.035700
     44 H252        2.9350   -4.4110   -7.5710 hc        1 46B      0.035700
     45 H253        3.5630   -5.4380   -8.9250 hc        1 46B      0.035700
@<TRIPOS>BOND
     1    1    2 1   
     2    2    3 1   
     3    2    4 1   
     4    4    5 1   
     5    4   27 1   
     6    4   28 1   
     7    5    6 1   
     8    6    7 ar  
     9    6    9 ar  
    10    7    8 ar  
    11    7   29 1   
    12    8   11 ar  
    13    8   31 1   
    14    9   10 ar  
    15    9   30 1   
    16   10   11 ar  
    17   10   32 1   
    18   11   12 1   
    19   12   13 1   
    20   12   17 2   
    21   13   14 2   
    22   14   15 1   
    23   14   18 1   
    24   15   16 2   
    25   15   33 1   
    26   16   20 1   
    27   16   34 1   
    28   17   18 1   
    29   17   22 1   
    30   18   19 1   
    31   19   20 2   
    32   19   35 1   
    33   20   21 1   
    34   22   23 1   
    35   22   36 1   
    36   23   24 1   
    37   23   37 1   
    38   23   38 1   
    39   24   25 1   
    40   24   39 1   
    41   24   40 1   
    42   25   26 1   
    43   25   41 1   
    44   25   42 1   
    45   26   43 1   
    46   26   44 1   
    47   26   45 1   
@<TRIPOS>SUBSTRUCTURE
     1 46B         1 TEMP              0 ****  ****    0 ROOT
