@<TRIPOS>MOLECULE
46B
   45    47     1     0     0
SMALL
bcc


@<TRIPOS>ATOM
      1 O19         0.0660   -1.2530   -1.1940 o         1 46B     -0.817300
      2 C18         0.8600   -0.3450   -0.8370 c         1 46B      0.926600
      3 O20         0.8850    0.2200    0.2880 o         1 46B     -0.817300
      4 C17         1.8540    0.1940   -1.9110 c3        1 46B     -0.013600
      5 O16         2.9700   -0.7070   -1.9390 os        1 46B     -0.280900
      6 C13         3.9170   -0.4720   -2.8910 ca        1 46B      0.177100
      7 C14         4.9810   -1.4030   -2.9300 ca        1 46B     -0.207500
      8 C15         5.9810   -1.2670   -3.8780 ca        1 46B     -0.076000
      9 C12         3.8980    0.6010   -3.7990 ca        1 46B     -0.207500
     10 C11         4.9090    0.7220   -4.7460 ca        1 46B     -0.076000
     11 C10         5.9440   -0.2190   -4.8130 ca        1 46B     -0.115800
     12 C2          6.9660   -0.1210   -5.8400 cc        1 46B      0.135400
     13 N1          8.3350   -0.1660   -5.5980 nc        1 46B     -0.259600
     14 C9          8.9380   -0.0490   -6.8120 cd        1 46B     -0.040300
     15 C8         10.3250   -0.0440   -7.1780 cd        1 46B     -0.089000
     16 C7         10.6790    0.0900   -8.4900 cc        1 46B     -0.115000
     17 C3          6.6980    0.0230   -7.2420 cd        1 46B     -0.013100
     18 N4          7.9620    0.0870   -7.8620 na        1 46B      0.009700
     19 C5          8.3400    0.2280   -9.1720 cd        1 46B     -0.018300
     20 C6          9.6810    0.2300   -9.5040 cc        1 46B     -0.091900
     21 Br1        10.1950    0.4230  -11.2870 br        1 46B     -0.082100
     22 N21         5.4790    0.1790   -7.9340 nu        1 46B     -0.673000
     23 C22         5.0720   -0.9450   -8.7580 c3        1 46B      0.160800
     24 C23         4.5780   -2.1910   -8.0260 c3        1 46B     -0.119400
     25 C24         4.1660   -3.2580   -9.0160 c3        1 46B     -0.073400
     26 C25         3.6640   -4.4930   -8.3120 c3        1 46B     -0.094100
     27 H171        1.3590    0.2080   -2.9140 h1        1 46B      0.022700
     28 H172        2.2160    1.2160   -1.6340 h1        1 46B      0.022700
     29 H14         4.9940   -2.2240   -2.1990 ha        1 46B      0.147500
     30 H12         3.0930    1.3480   -3.7580 ha        1 46B      0.147500
     31 H15         6.8130   -1.9870   -3.9050 ha        1 46B      0.126500
     32 H11         4.9010    1.5810   -5.4340 ha        1 46B      0.126500
     33 H8         11.0650   -0.1510   -6.3720 ha        1 46B      0.163000
     34 H7         11.7390    0.0950   -8.7830 ha        1 46B      0.147000
     35 H5          7.5260    0.3470   -9.9110 h4        1 46B      0.181000
     36 H121        4.7630    0.4060   -7.2610 hn        1 46B      0.402800
     37 H221        4.2400   -0.5570   -9.4150 h1        1 46B      0.047200
     38 H222        5.9310   -1.2330   -9.4270 h1        1 46B      0.047200
     39 H231        3.7060   -1.9290   -7.3700 hc        1 46B      0.058200
     40 H232        5.3870   -2.5860   -7.3570 hc        1 46B      0.058200
     41 H241        5.0400   -3.5250   -9.6670 hc        1 46B      0.032700
     42 H242        3.3630   -2.8560   -9.6890 hc        1 46B      0.032700
     43 H251        3.3620   -5.2690   -9.0560 hc        1 46B      0.035700
     44 H252        4.4590   -4.9230   -7.6550 hc        1 46B      0.035700
     45 H253        2.7790   -4.2510   -7.6750 hc        1 46B      0.035700
@<TRIPOS>BOND
     1    1    2 1   
     2    2    3 1   
     3    2    4 1   
     4    4    5 1   
     5    4   27 1   
     6    4   28 1   
     7    5    6 1   
     8    6    7 ar  
     9    6    9 ar  
    10    7    8 ar  
    11    7   29 1   
    12    8   11 ar  
    13    8   31 1   
    14    9   10 ar  
    15    9   30 1   
    16   10   11 ar  
    17   10   32 1   
    18   11   12 1   
    19   12   13 1   
    20   12   17 2   
    21   13   14 2   
    22   14   15 1   
    23   14   18 1   
    24   15   16 2   
    25   15   33 1   
    26   16   20 1   
    27   16   34 1   
    28   17   18 1   
    29   17   22 1   
    30   18   19 1   
    31   19   20 2   
    32   19   35 1   
    33   20   21 1   
    34   22   23 1   
    35   22   36 1   
    36   23   24 1   
    37   23   37 1   
    38   23   38 1   
    39   24   25 1   
    40   24   39 1   
    41   24   40 1   
    42   25   26 1   
    43   25   41 1   
    44   25   42 1   
    45   26   43 1   
    46   26   44 1   
    47   26   45 1   
@<TRIPOS>SUBSTRUCTURE
     1 46B         1 TEMP              0 ****  ****    0 ROOT
