@<TRIPOS>MOLECULE
46B
   46    48     1     0     0
SMALL
bcc


@<TRIPOS>ATOM
      1 O19         3.0190   -0.8000   -5.1550 o         1 46B     -0.857300
      2 C18         3.3700   -1.3960   -4.0840 c         1 46B      0.880600
      3 O20         4.3270   -2.2300   -4.1280 o         1 46B     -0.857300
      4 C17         2.6910   -1.0580   -2.7600 c3        1 46B      0.047400
      5 O16         2.8600    0.3250   -2.3560 os        1 46B     -0.345900
      6 C13         3.9860    0.8780   -2.9520 ca        1 46B      0.130100
      7 C14         5.2620    0.6130   -2.4320 ca        1 46B     -0.124500
      8 C15         6.3660    0.7950   -3.2610 ca        1 46B     -0.100500
      9 C12         3.8290    1.6170   -4.1390 ca        1 46B     -0.124500
     10 C11         4.9350    1.7870   -4.9630 ca        1 46B     -0.100500
     11 C10         6.1650    1.2290   -4.5800 ca        1 46B     -0.107800
     12 C2          7.1040    0.7790   -5.5950 cc        1 46B      0.233400
     13 N1          8.3760    1.2140   -5.8690 nc        1 46B     -0.249600
     14 C9          8.8890    0.3270   -6.7840 cd        1 46B      0.001700
     15 C8         10.1760    0.2890   -7.4090 cd        1 46B     -0.085000
     16 C7         10.4830   -0.7360   -8.2620 cc        1 46B     -0.093000
     17 C3          6.7810   -0.3990   -6.3710 cd        1 46B     -0.178100
     18 N4          7.9420   -0.7030   -7.1060 na        1 46B      0.038700
     19 C5          8.2860   -1.7440   -7.9320 cd        1 46B     -0.060300
     20 C6          9.5370   -1.7720   -8.5220 cc        1 46B     -0.055900
     21 BR1         9.9900   -3.1830   -9.6520 br        1 46B     -0.032100
     22 N21         5.5300   -1.1090   -6.3560 n4        1 46B     -0.616800
     23 C22         4.9540   -1.3750   -7.7070 c3        1 46B      0.129800
     24 C23         3.8420   -2.4170   -7.6540 c3        1 46B     -0.120400
     25 C24         3.2020   -2.5440   -9.0200 c3        1 46B     -0.072400
     26 C25         2.1180   -3.5920   -9.0090 c3        1 46B     -0.093100
     27 H171        1.5800   -1.1770   -2.8440 h1        1 46B      0.061200
     28 H172        3.1070   -1.6910   -1.9350 h1        1 46B      0.061200
     29 H14         5.3700    0.1720   -1.4320 ha        1 46B      0.161000
     30 H12         2.8250    1.9300   -4.4580 ha        1 46B      0.161000
     31 H15         7.3710    0.5110   -2.9190 ha        1 46B      0.142000
     32 H11         4.8300    2.2800   -5.9400 ha        1 46B      0.142000
     33 H8         10.8850    1.0980   -7.1720 ha        1 46B      0.182000
     34 H7         11.4700   -0.7760   -8.7510 ha        1 46B      0.168000
     35 H5          7.5410   -2.5470   -8.0780 h4        1 46B      0.182000
     36 H121        4.8140   -0.5280   -5.8220 hn        1 46B      0.510800
     37 H221        4.5450   -0.3980   -8.0940 hx        1 46B      0.072700
     38 H222        5.7610   -1.7180   -8.4090 hx        1 46B      0.072700
     39 H231        4.2570   -3.4070   -7.3320 hc        1 46B      0.094700
     40 H232        3.0700   -2.1120   -6.8880 hc        1 46B      0.094700
     41 H241        3.9800   -2.8130   -9.7830 hc        1 46B      0.037700
     42 H242        2.7650   -1.5560   -9.3240 hc        1 46B      0.037700
     43 H251        2.5380   -4.5910   -8.7400 hc        1 46B      0.040700
     44 H252        1.6450   -3.6660  -10.0170 hc        1 46B      0.040700
     45 H253        1.3280   -3.3310   -8.2640 hc        1 46B      0.040700
     46 H212        5.5910   -1.9890   -5.7970 hn        1 46B      0.510800
@<TRIPOS>BOND
     1    1    2 1   
     2    2    3 1   
     3    2    4 1   
     4    4    5 1   
     5    4   27 1   
     6    4   28 1   
     7    5    6 1   
     8    6    7 ar  
     9    6    9 ar  
    10    7    8 ar  
    11    7   29 1   
    12    8   11 ar  
    13    8   31 1   
    14    9   10 ar  
    15    9   30 1   
    16   10   11 ar  
    17   10   32 1   
    18   11   12 1   
    19   12   13 1   
    20   12   17 2   
    21   13   14 2   
    22   14   15 1   
    23   14   18 1   
    24   15   16 2   
    25   15   33 1   
    26   16   20 1   
    27   16   34 1   
    28   17   18 1   
    29   17   22 1   
    30   18   19 1   
    31   19   20 2   
    32   19   35 1   
    33   20   21 1   
    34   22   23 1   
    35   22   36 1   
    36   22   46 1   
    37   23   24 1   
    38   23   37 1   
    39   23   38 1   
    40   24   25 1   
    41   24   39 1   
    42   24   40 1   
    43   25   26 1   
    44   25   41 1   
    45   25   42 1   
    46   26   43 1   
    47   26   44 1   
    48   26   45 1   
@<TRIPOS>SUBSTRUCTURE
     1 46B         1 TEMP              0 ****  ****    0 ROOT
