@<TRIPOS>MOLECULE
46C
   51    45     1     0     0
SMALL
bcc


@<TRIPOS>ATOM
      1 C4          2.1210   -0.1160    0.3500 c1        1 46C     -0.137000
      2 C5          3.5250   -0.0110    0.3590 c1        1 46C     -0.054000
      3 C6          4.2100    0.0700    1.5690 c1        1 46C     -0.158000
      4 C10        -0.0820   -0.2210    1.5290 c1        1 46C     -0.140000
      5 N12        -0.0820   -0.2500   -1.0140 n3        1 46C     -0.225000
      6 C13         1.3610   -0.2830   -0.9950 c1        1 46C      0.347000
      7 C15        -0.8670   -0.1540    2.8480 c1        1 46C     -0.035000
      8 C17        -2.3230   -0.4680    0.2020 c1        1 46C      0.266000
      9 C20        -4.5610   -0.8200    1.2100 c3        1 46C     -0.211000
     10 C26        -0.7880   -0.1620   -2.2740 c3        1 46C      0.019000
     11 C1          3.5030    0.0460    2.7750 c1        1 46C     -0.030000
     12 C2          2.1190   -0.0570    2.7670 c1        1 46C     -0.143000
     13 C3          1.4240   -0.1390    1.5420 c2        1 46C      0.053000
     14 C11        -0.8170   -0.2750    0.2200 c2        1 46C      0.043000
     15 CL14        4.5320    0.1930    4.1800 cl        1 46C     -0.028000
     16 O16         1.9750   -0.5510   -2.0100 o         1 46C     -0.350000
     17 O18        -2.9180   -0.5120   -0.8560 o         1 46C     -0.245000
     18 C19        -3.0780   -0.6610    1.5030 c2        1 46C     -0.206000
     19 C27         0.2140    0.1530   -3.4070 c2        1 46C     -0.164000
     20 C30         0.1440   -0.5450   -4.6080 c2        1 46C     -0.131000
     21 C31         0.9470   -0.1700   -5.6790 c1        1 46C     -0.117000
     22 C32         1.8200    0.9040   -5.5520 c1        1 46C     -0.083000
     23 C33         1.8910    1.6020   -4.3530 c1        1 46C     -0.115000
     24 C34         1.0880    1.2270   -3.2800 c1        1 46C     -0.137000
     25 C39        -1.3430    1.0570    3.3360 c1        1 46C     -0.105000
     26 C40        -1.9410    1.1140    4.5880 c1        1 46C     -0.131000
     27 C41        -2.0630   -0.0370    5.3520 c1        1 46C     -0.131000
     28 C42        -1.5870   -1.2470    4.8650 c1        1 46C     -0.142000
     29 C43        -0.9880   -1.3050    3.6120 c2        1 46C     -0.125000
     30 C49         2.7650    1.2490   -6.6850 c2        1 46C      0.354000
     31 O50         3.9160    0.7410   -6.7210 o         1 46C     -0.562500
     32 O51         2.4350    2.1150   -7.5360 o         1 46C     -0.562500
     33 H5          4.0180    0.0060   -0.4820 ha        1 46C      0.164000
     34 H6          5.1840    0.1430    1.5740 ha        1 46C      0.147000
     35 H20        -4.7160   -1.6810    0.7660 hc        1 46C      0.085333
     36 H20A       -4.8570   -0.0930    0.6240 hc        1 46C      0.085333
     37 H20B       -5.0660   -0.7900    2.0500 hc        1 46C      0.085333
     38 H26        -1.2330   -1.0160   -2.4590 h1        1 46C      0.101000
     39 H26A       -1.4580    0.5510   -2.2240 h1        1 46C      0.101000
     40 H2          1.6250   -0.0740    3.6120 ha        1 46C      0.159000
     41 H19        -2.7470   -1.4640    1.9560 ha        1 46C      0.110500
     42 H19A       -2.9410    0.1170    2.0780 ha        1 46C      0.110500
     43 H30        -0.4990   -1.2790   -4.7110 ha        1 46C      0.127000
     44 H31         0.8970   -0.6630   -6.5250 ha        1 46C      0.155000
     45 H33         2.5080    2.3600   -4.2630 ha        1 46C      0.155000
     46 H34         1.0760    1.7700   -2.4690 ha        1 46C      0.114000
     47 H39        -1.2580    1.8700    2.7970 ha        1 46C      0.163000
     48 H40        -2.2770    1.9680    4.9320 ha        1 46C      0.130500
     49 H41        -2.4840    0.0030    6.2360 ha        1 46C      0.130500
     50 H42        -1.6720   -2.0600    5.4040 ha        1 46C      0.126000
     51 H43        -0.6540   -2.1550    3.2690 ha        1 46C      0.134000
@<TRIPOS>BOND
     1    1    2 1   
     2    1   13 1   
     3    2   33 1   
     4    3   11 1   
     5    3   34 1   
     6    4   13 1   
     7    4   14 1   
     8    5    6 1   
     9    5   10 1   
    10    5   14 1   
    11    6   16 1   
    12    7   25 1   
    13    7   29 1   
    14    8   14 1   
    15    8   17 1   
    16    9   18 1   
    17    9   35 1   
    18    9   36 1   
    19    9   37 1   
    20   10   19 1   
    21   10   38 1   
    22   10   39 1   
    23   11   15 1   
    24   12   13 1   
    25   12   40 1   
    26   18   41 1   
    27   18   42 1   
    28   19   20 1   
    29   19   24 1   
    30   20   21 1   
    31   20   43 1   
    32   21   44 1   
    33   22   23 1   
    34   22   30 1   
    35   23   45 1   
    36   24   46 1   
    37   25   47 1   
    38   26   27 1   
    39   26   48 1   
    40   27   49 1   
    41   28   29 1   
    42   28   50 1   
    43   29   51 1   
    44   30   31 1   
    45   30   32 1   
@<TRIPOS>SUBSTRUCTURE
     1 46C         1 TEMP              0 ****  ****    0 ROOT
