@<TRIPOS>MOLECULE
46C
   51    55     1     0     0
SMALL
bcc


@<TRIPOS>ATOM
      1 C4          0.0040    1.2440   -0.4000 c3        1 46C     -0.091300
      2 C5          1.4380    0.9020   -0.7320 c2        1 46C     -0.131300
      3 C6          2.1840    0.8340    0.3590 c1        1 46C     -0.078800
      4 C10        -1.8200    0.2350    1.0100 ce        1 46C     -0.112000
      5 N12        -2.2160    0.5970   -1.3680 n         1 46C     -0.356000
      6 C13        -0.8820    0.9500   -1.6010 c         1 46C      0.715500
      7 C15        -2.3030   -0.1000    2.3400 ce        1 46C     -0.098300
      8 C20        -5.8390   -1.6730    0.5920 c3        1 46C     -0.093100
      9 C26        -3.0760    0.2050   -2.4860 c3        1 46C      0.128200
     10 C1          1.8820    0.6550    1.6450 cf        1 46C      0.014300
     11 C2          0.5120    0.1540    1.8190 cf        1 46C     -0.153000
     12 C3         -0.3990    0.4950    0.8650 ce        1 46C     -0.007200
     13 C11        -2.6530    0.2950   -0.0740 cf        1 46C      0.033400
     14 Cl14        2.8110    1.0770    2.9780 cl        1 46C     -0.072400
     15 O16        -0.4590    1.1120   -2.7600 o         1 46C     -0.620500
     16 O18        -4.8940    0.9730    0.3630 o         1 46C     -0.506100
     17 C19        -4.5910   -1.3680   -0.2100 c3        1 46C     -0.144700
     18 C27        -3.5090   -1.2260   -2.4320 c2        1 46C     -0.251400
     19 C30        -2.7410   -2.2140   -2.9430 ce        1 46C     -0.031000
     20 C31        -3.1260   -3.5980   -2.8290 ce        1 46C     -0.218000
     21 C32        -4.3570   -3.9280   -2.3860 cf        1 46C     -0.091400
     22 C33        -5.3690   -2.8760   -2.1130 c3        1 46C     -0.058200
     23 C34        -4.8010   -1.5130   -1.7300 c3        1 46C      0.010500
     24 C39        -2.3920   -1.5440    2.7850 c3        1 46C     -0.022000
     25 C40        -3.6660   -1.7520    3.5640 c2        1 46C     -0.152200
     26 C41        -4.3200   -0.7590    4.2080 ce        1 46C     -0.148000
     27 C42        -3.6270    0.5380    4.3010 ce        1 46C     -0.163100
     28 C43        -2.8120    0.7070    3.2660 c1        1 46C     -0.008800
     29 C49        -4.7900   -5.3690   -2.1520 c         1 46C      0.899800
     30 O50        -4.2380   -6.2760   -2.8310 o         1 46C     -0.822300
     31 O51        -5.6770   -5.5670   -1.2720 o         1 46C     -0.822300
     32 H5         -0.1230    2.3470   -0.1820 hc        1 46C      0.112700
     33 H6          1.7180    0.6610   -1.7630 ha        1 46C      0.178000
     34 H20        -5.6980   -1.3390    1.6510 hc        1 46C      0.048700
     35 H20A       -6.7200   -1.1360    0.1660 hc        1 46C      0.048700
     36 H20B       -6.0440   -2.7710    0.5950 hc        1 46C      0.048700
     37 H26        -3.9770    0.8840   -2.4560 h1        1 46C      0.071700
     38 H26A       -2.5130    0.4030   -3.4430 h1        1 46C      0.071700
     39 H2          0.2400   -0.3850    2.7350 ha        1 46C      0.157000
     40 H19        -5.5610   -0.7360   -2.0340 hc        1 46C      0.041700
     41 H19A       -3.7760   -2.0810    0.0980 hc        1 46C      0.083700
     42 H30        -1.7890   -1.9870   -3.4480 ha        1 46C      0.116000
     43 H31        -2.3990   -4.3770   -3.1010 ha        1 46C      0.150000
     44 H33        -5.9730   -2.7500   -3.0560 hc        1 46C      0.072700
     45 H34        -6.0770   -3.2550   -1.3270 hc        1 46C      0.072700
     46 H39        -2.4060   -2.1860    1.8630 hc        1 46C      0.080700
     47 H40        -1.5210   -1.8680    3.4140 hc        1 46C      0.080700
     48 H41        -4.0310   -2.7900    3.5830 ha        1 46C      0.143000
     49 H42        -5.2690   -0.9010    4.7360 ha        1 46C      0.138000
     50 H43        -3.7210    1.1610    5.1920 ha        1 46C      0.151000
     51 C17        -4.1380    0.0460    0.0690 c         1 46C      0.583300
@<TRIPOS>BOND
     1    1    2 1   
     2    1    6 1   
     3    1   12 1   
     4    1   32 1   
     5    2    3 2   
     6    2   33 1   
     7    3   10 2   
     8    4    7 1   
     9    4   12 1   
    10    4   13 2   
    11    5    6 1   
    12    5    9 1   
    13    5   13 1   
    14    6   15 2   
    15    7   24 1   
    16    7   28 2   
    17    8   17 1   
    18    8   34 1   
    19    8   35 1   
    20    8   36 1   
    21    9   18 1   
    22    9   37 1   
    23    9   38 1   
    24   10   11 1   
    25   10   14 1   
    26   11   12 2   
    27   11   39 1   
    28   13   51 1   
    29   16   51 2   
    30   17   23 1   
    31   17   41 1   
    32   17   51 1   
    33   18   19 2   
    34   18   23 1   
    35   19   20 1   
    36   19   42 1   
    37   20   21 2   
    38   20   43 1   
    39   21   22 1   
    40   21   29 1   
    41   22   23 1   
    42   22   44 1   
    43   22   45 1   
    44   23   40 1   
    45   24   25 1   
    46   24   46 1   
    47   24   47 1   
    48   25   26 2   
    49   25   48 1   
    50   26   27 1   
    51   26   49 1   
    52   27   28 2   
    53   27   50 1   
    54   29   30 1   
    55   29   31 1   
@<TRIPOS>SUBSTRUCTURE
     1 46C         1 TEMP              0 ****  ****    0 ROOT
