@<TRIPOS>MOLECULE
46C
   51    54     1     0     0
SMALL
bcc


@<TRIPOS>ATOM
      1 C4         -1.5970   -1.9340    0.8280 ca        1 46C     -0.160600
      2 C5         -2.1900   -3.2050    0.7330 ca        1 46C     -0.054000
      3 C6         -3.4140   -3.3610    0.1030 ca        1 46C     -0.160000
      4 C10        -1.5910    0.4790    0.3950 cc        1 46C     -0.127400
      5 N12         0.2850   -0.5190    1.5730 n         1 46C     -0.324000
      6 C13        -0.2930   -1.8050    1.5050 c         1 46C      0.706100
      7 C15        -2.2620    1.6640   -0.1450 ca        1 46C     -0.041800
      8 C20         1.4000    3.8340   -0.0670 c3        1 46C     -0.085100
      9 C26         1.6210   -0.3770    2.1510 c3        1 46C      0.125300
     10 C1         -4.0540   -2.2330   -0.4410 ca        1 46C      0.049400
     11 C2         -3.4810   -0.9710   -0.3610 ca        1 46C     -0.144000
     12 C3         -2.2350   -0.8060    0.2780 ca        1 46C      0.044200
     13 C11        -0.3620    0.5720    1.0160 cd        1 46C      0.031400
     14 CL14       -5.5600   -2.4270   -1.2140 cl        1 46C     -0.106400
     15 O16         0.2860   -2.7770    2.0300 o         1 46C     -0.630500
     16 O18         0.2490    2.5680    2.1760 o         1 46C     -0.520100
     17 C19         0.9610    2.3950   -0.1350 c3        1 46C     -0.184400
     18 C27         2.7410   -0.3590    1.1570 ca        1 46C     -0.166300
     19 C30         3.6160    0.7330    1.1120 ca        1 46C     -0.146000
     20 C31         4.6760    0.7410    0.2090 ca        1 46C     -0.113000
     21 C32         4.8750   -0.3340   -0.6640 ca        1 46C     -0.110600
     22 C33         4.0090   -1.4300   -0.6030 ca        1 46C     -0.113000
     23 C34         2.9510   -1.4470    0.3030 ca        1 46C     -0.146000
     24 C39        -2.3510    1.8540   -1.5320 ca        1 46C     -0.115000
     25 C40        -3.0070    2.9710   -2.0460 ca        1 46C     -0.134500
     26 C41        -3.5810    3.9050   -1.1840 ca        1 46C     -0.130000
     27 C42        -3.4940    3.7230    0.1960 ca        1 46C     -0.134500
     28 C43        -2.8370    2.6080    0.7160 ca        1 46C     -0.115000
     29 C49         6.0180   -0.3030   -1.6710 c         1 46C      0.906200
     30 O50         6.7480    0.7270   -1.6990 o         1 46C     -0.825300
     31 O51         6.1660   -1.3060   -2.4240 o         1 46C     -0.825300
     32 H5         -1.6620   -4.0700    1.1670 ha        1 46C      0.163000
     33 H6         -3.8800   -4.3530    0.0270 ha        1 46C      0.146000
     34 H20         1.9320    4.1110   -1.0090 hc        1 46C      0.042700
     35 H20A        0.5220    4.5100    0.0650 hc        1 46C      0.042700
     36 H20B        2.0930    3.9880    0.7960 hc        1 46C      0.042700
     37 H26         1.6280    0.5710    2.7640 h1        1 46C      0.077200
     38 H26A        1.7740   -1.2500    2.8520 h1        1 46C      0.077200
     39 H2         -3.9850   -0.0920   -0.7950 ha        1 46C      0.158000
     40 H19         1.8560    1.7260   -0.3050 hc        1 46C      0.096200
     41 H19A        0.2530    2.2400   -0.9940 hc        1 46C      0.096200
     42 H30         3.4680    1.5840    1.7930 ha        1 46C      0.117000
     43 H31         5.3770    1.5900    0.1580 ha        1 46C      0.156500
     44 H33         4.1870   -2.2750   -1.2880 ha        1 46C      0.156500
     45 H34         2.2780   -2.3170    0.3600 ha        1 46C      0.117000
     46 H39        -1.8960    1.1180   -2.2120 ha        1 46C      0.144500
     47 H40        -3.0690    3.1150   -3.1340 ha        1 46C      0.130500
     48 H41        -4.0980    4.7860   -1.5920 ha        1 46C      0.127000
     49 H42        -3.9410    4.4600    0.8780 ha        1 46C      0.130500
     50 H43        -2.7590    2.4710    1.8050 ha        1 46C      0.144500
     51 C17         0.2930    1.9320    1.1220 c         1 46C      0.588300
@<TRIPOS>BOND
     1    1    2 ar  
     2    1    6 1   
     3    1   12 ar  
     4    2    3 ar  
     5    2   32 1   
     6    3   10 ar  
     7    3   33 1   
     8    4    7 1   
     9    4   12 1   
    10    4   13 2   
    11    5    6 1   
    12    5    9 1   
    13    5   13 1   
    14    6   15 2   
    15    7   24 ar  
    16    7   28 ar  
    17    8   17 1   
    18    8   34 1   
    19    8   35 1   
    20    8   36 1   
    21    9   18 1   
    22    9   37 1   
    23    9   38 1   
    24   10   11 ar  
    25   10   14 1   
    26   11   12 ar  
    27   11   39 1   
    28   13   51 1   
    29   16   51 2   
    30   17   40 1   
    31   17   41 1   
    32   17   51 1   
    33   18   19 ar  
    34   18   23 ar  
    35   19   20 ar  
    36   19   42 1   
    37   20   21 ar  
    38   20   43 1   
    39   21   22 ar  
    40   21   29 1   
    41   22   23 ar  
    42   22   44 1   
    43   23   45 1   
    44   24   25 ar  
    45   24   46 1   
    46   25   26 ar  
    47   25   47 1   
    48   26   27 ar  
    49   26   48 1   
    50   27   28 ar  
    51   27   49 1   
    52   28   50 1   
    53   29   30 1   
    54   29   31 1   
@<TRIPOS>SUBSTRUCTURE
     1 46C         1 TEMP              0 ****  ****    0 ROOT
