@<TRIPOS>MOLECULE
46C
   51    54     1     0     0
SMALL
bcc


@<TRIPOS>ATOM
      1 C4         -0.5540    1.0730   -0.3690 c3        1 46C     -0.089300
      2 C5          0.9060    1.3040   -0.6610 c2        1 46C     -0.146300
      3 C6          1.7100    0.4700   -0.0300 c1        1 46C     -0.090800
      4 C10        -2.1890    0.1650    1.2510 ce        1 46C     -0.174000
      5 N12        -2.6900    0.0560   -1.1230 n         1 46C     -0.364000
      6 C13        -1.4110    0.5070   -1.4820 c         1 46C      0.708500
      7 C15        -2.5880    0.1650    2.6350 ce        1 46C      0.000700
      8 C20        -6.1700   -2.0540    1.2980 c3        1 46C      0.021100
      9 C26        -3.6130   -0.3020   -2.1820 c3        1 46C      0.121200
     10 C1          1.5100   -0.4250    0.9450 cf        1 46C      0.029300
     11 C2          0.2390   -0.2560    1.6370 cf        1 46C     -0.150000
     12 C3         -0.7750    0.3110    0.9200 ce        1 46C      0.002800
     13 C11        -3.0890   -0.0240    0.2200 cf        1 46C      0.091400
     14 CL14        2.4720   -1.7670    1.2650 cl        1 46C     -0.074400
     15 O16        -1.0460    0.4940   -2.6730 o         1 46C     -0.645500
     16 O18        -5.3880    0.5830    0.1680 o         1 46C     -0.790300
     17 C19        -4.8160   -1.5980    0.9670 c2        1 46C     -0.550200
     18 C27        -3.5540   -1.7520   -2.5860 ce        1 46C     -0.197200
     19 C30        -2.6380   -2.1480   -3.5940 ce        1 46C      0.090000
     20 C31        -2.6070   -3.4600   -4.0560 cf        1 46C     -0.231000
     21 C32        -3.4590   -4.4160   -3.5220 cf        1 46C      0.066800
     22 C33        -4.3640   -4.0790   -2.4210 c3        1 46C     -0.134000
     23 C34        -4.3690   -2.6800   -1.9890 c2        1 46C      0.004800
     24 C39        -3.9460    0.6680    3.0680 c3        1 46C     -0.044000
     25 C40        -3.8180    1.4700    4.3330 c2        1 46C     -0.150200
     26 C41        -2.7920    1.3410    5.2020 ce        1 46C     -0.166000
     27 C42        -1.8720    0.2180    4.9770 ce        1 46C     -0.168100
     28 C43        -1.8340   -0.1460    3.7000 c1        1 46C     -0.108800
     29 C49        -3.5380   -5.8510   -4.0810 c         1 46C      0.874600
     30 O50        -2.4980   -6.3120   -4.6040 o         1 46C     -0.765800
     31 O51        -4.6590   -6.4060   -3.9580 o         1 46C     -0.765800
     32 H5         -0.9470    2.1260   -0.1830 hc        1 46C      0.117700
     33 H6          1.1880    2.1880   -1.2400 ha        1 46C      0.150000
     34 H20        -6.3030   -2.1520    2.4070 hc        1 46C     -0.001300
     35 H20A       -6.9400   -1.3360    0.9200 hc        1 46C     -0.001300
     36 H20B       -6.3750   -3.0610    0.8490 hc        1 46C     -0.001300
     37 H26        -4.6660   -0.0440   -1.8530 h1        1 46C      0.096700
     38 H26A       -3.3660    0.3300   -3.0860 h1        1 46C      0.096700
     39 H2          0.0820   -0.7170    2.6230 ha        1 46C      0.181000
     40 H19        -5.0210   -2.3920   -1.1300 ha        1 46C      0.220000
     41 H19A       -3.9890   -2.2640    1.2280 ha        1 46C      0.102000
     42 H30        -1.9430   -1.3870   -3.9990 ha        1 46C      0.176000
     43 H31        -1.9010   -3.7700   -4.8470 ha        1 46C      0.185000
     44 H33        -5.4090   -4.4210   -2.7270 hc        1 46C      0.178200
     45 H34        -4.1260   -4.7540   -1.5360 hc        1 46C      0.178200
     46 H39        -4.3530    1.3250    2.2480 hc        1 46C      0.108700
     47 H40        -4.6880   -0.1650    3.2110 hc        1 46C      0.108700
     48 H41        -4.6450    2.1710    4.5170 ha        1 46C      0.122000
     49 H42        -2.6830    1.9540    6.1040 ha        1 46C      0.119000
     50 H43        -1.4150   -0.2990    5.8240 ha        1 46C      0.136000
     51 C17        -4.5660   -0.3340    0.4830 cf        1 46C      0.520500
@<TRIPOS>BOND
     1    1    2 1   
     2    1    6 1   
     3    1   12 1   
     4    1   32 1   
     5    2    3 2   
     6    2   33 1   
     7    3   10 2   
     8    4    7 1   
     9    4   12 1   
    10    4   13 2   
    11    5    6 1   
    12    5    9 1   
    13    5   13 1   
    14    6   15 2   
    15    7   24 1   
    16    7   28 2   
    17    8   17 1   
    18    8   34 1   
    19    8   35 1   
    20    8   36 1   
    21    9   18 1   
    22    9   37 1   
    23    9   38 1   
    24   10   11 1   
    25   10   14 1   
    26   11   12 2   
    27   11   39 1   
    28   13   51 1   
    29   16   51 1   
    30   17   41 1   
    31   17   51 2   
    32   18   19 1   
    33   18   23 2   
    34   19   20 2   
    35   19   42 1   
    36   20   21 1   
    37   20   43 1   
    38   21   22 1   
    39   21   29 2   
    40   22   23 1   
    41   22   44 1   
    42   22   45 1   
    43   23   40 1   
    44   24   25 1   
    45   24   46 1   
    46   24   47 1   
    47   25   26 2   
    48   25   48 1   
    49   26   27 1   
    50   26   49 1   
    51   27   28 2   
    52   27   50 1   
    53   29   30 1   
    54   29   31 1   
@<TRIPOS>SUBSTRUCTURE
     1 46C         1 TEMP              0 ****  ****    0 ROOT
