@<TRIPOS>MOLECULE
46C
   51    55     1     0     0
SMALL
bcc


@<TRIPOS>ATOM
      1 C4         -0.0450    0.5490    0.1400 cc        1 46C     -0.230400
      2 C5          1.4240    0.7620    0.0530 c3        1 46C      0.032000
      3 C6          2.1250    0.7730    1.3150 ce        1 46C     -0.198300
      4 C10        -2.1610    0.1710    1.2750 cd        1 46C     -0.134000
      5 N12        -2.1260    0.3400   -1.1460 n         1 46C     -0.307000
      6 C13        -0.7270    0.5250   -1.1610 c         1 46C      0.690700
      7 C15        -2.8710   -0.0300    2.5110 cf        1 46C     -0.073300
      8 C20        -6.1990   -1.5010    0.1930 c3        1 46C     -0.091100
      9 C26        -2.8550    0.1400   -2.4020 c3        1 46C      0.119200
     10 C1          3.3340    0.9050    1.9300 ce        1 46C     -0.198700
     11 C2          2.1830    0.6750    2.7570 c1        1 46C      0.202200
     12 C3         -0.7430    0.3710    1.2940 cd        1 46C     -0.017000
     13 C11        -2.8100    0.1880    0.0430 cc        1 46C      0.046400
     14 CL14        4.9290    1.1510    1.7540 cl        1 46C      0.022600
     15 O16        -0.1290    0.6780   -2.2480 o         1 46C     -0.662500
     16 O18        -5.0160    1.0820    0.0600 o         1 46C     -0.504100
     17 C19        -4.8370   -1.2920   -0.4370 c3        1 46C     -0.142700
     18 C27        -3.4710   -1.2200   -2.5060 c2        1 46C     -0.250400
     19 C30        -2.7750   -2.2600   -3.0150 ce        1 46C     -0.027000
     20 C31        -3.3380   -3.5820   -3.0830 ce        1 46C     -0.218000
     21 C32        -4.6410   -3.7840   -2.7950 cf        1 46C     -0.088400
     22 C33        -5.5420   -2.6470   -2.4850 c3        1 46C     -0.057200
     23 C34        -4.8630   -1.3770   -1.9770 c3        1 46C      0.009500
     24 C39        -2.1670   -0.5240    3.7570 c3        1 46C     -0.017000
     25 C40        -3.0320   -1.5340    4.4680 c2        1 46C     -0.163200
     26 C41        -4.3740   -1.6020    4.3320 ce        1 46C     -0.139000
     27 C42        -5.0220   -0.5000    3.6020 ce        1 46C     -0.153100
     28 C43        -4.1890    0.0390    2.7210 c1        1 46C     -0.047800
     29 C49        -5.2740   -5.1710   -2.8000 c         1 46C      0.898800
     30 O50        -4.7050   -6.0810   -3.4620 o         1 46C     -0.822300
     31 O51        -6.3340   -5.3270   -2.1300 o         1 46C     -0.822300
     32 H5          1.6130    1.7370   -0.4880 hc        1 46C      0.093200
     33 H6          1.8620   -0.0440   -0.6100 hc        1 46C      0.093200
     34 H20        -6.9820   -0.9380   -0.3680 hc        1 46C      0.048033
     35 H20A       -6.4630   -2.5870    0.2010 hc        1 46C      0.048033
     36 H20B       -6.1850   -1.1320    1.2500 hc        1 46C      0.048033
     37 H26        -3.6530    0.9360   -2.4580 h1        1 46C      0.076200
     38 H26A       -2.1290    0.3030   -3.2500 h1        1 46C      0.076200
     39 H2         -0.2260    0.3940    2.2710 ha        1 46C      0.159000
     40 H19        -5.4840   -0.5040   -2.3380 hc        1 46C      0.040700
     41 H19A       -4.1290   -2.0760   -0.0490 hc        1 46C      0.087700
     42 H30        -1.7460   -2.1220   -3.3870 ha        1 46C      0.116000
     43 H31        -2.6910   -4.4240   -3.3720 ha        1 46C      0.151000
     44 H33        -6.3240   -3.0060   -1.7620 hc        1 46C      0.074200
     45 H34        -6.0850   -2.3940   -3.4400 hc        1 46C      0.074200
     46 H39        -1.2150   -1.0300    3.4420 hc        1 46C      0.074200
     47 H40        -1.9020    0.3020    4.4680 hc        1 46C      0.074200
     48 H41        -2.4850   -2.2220    5.1290 ha        1 46C      0.129000
     49 H42        -4.9950   -2.3650    4.8150 ha        1 46C      0.137000
     50 H43        -6.0150   -0.1450    3.8860 ha        1 46C      0.154000
     51 C17        -4.3150    0.0770   -0.0670 c         1 46C      0.587300
@<TRIPOS>BOND
     1    1    2 1   
     2    1    6 1   
     3    1   12 2   
     4    2    3 1   
     5    2   32 1   
     6    2   33 1   
     7    3   10 1   
     8    3   11 2   
     9    4    7 1   
    10    4   12 1   
    11    4   13 2   
    12    5    6 1   
    13    5    9 1   
    14    5   13 1   
    15    6   15 2   
    16    7   24 1   
    17    7   28 2   
    18    8   17 1   
    19    8   34 1   
    20    8   35 1   
    21    8   36 1   
    22    9   18 1   
    23    9   37 1   
    24    9   38 1   
    25   10   11 2   
    26   10   14 1   
    27   12   39 1   
    28   13   51 1   
    29   16   51 2   
    30   17   23 1   
    31   17   41 1   
    32   17   51 1   
    33   18   19 2   
    34   18   23 1   
    35   19   20 1   
    36   19   42 1   
    37   20   21 2   
    38   20   43 1   
    39   21   22 1   
    40   21   29 1   
    41   22   23 1   
    42   22   44 1   
    43   22   45 1   
    44   23   40 1   
    45   24   25 1   
    46   24   46 1   
    47   24   47 1   
    48   25   26 2   
    49   25   48 1   
    50   26   27 1   
    51   26   49 1   
    52   27   28 2   
    53   27   50 1   
    54   29   30 1   
    55   29   31 1   
@<TRIPOS>SUBSTRUCTURE
     1 46C         1 TEMP              0 ****  ****    0 ROOT
