@<TRIPOS>MOLECULE
46F
   63    63     1     0     0
SMALL
bcc


@<TRIPOS>ATOM
      1 C1          0.8130   -0.8180    2.2800 c2        1 46F     -0.008000
      2 C2         -2.4350    0.6050    4.6180 c2        1 46F     -0.140000
      3 C3          2.0010   -1.5140    2.7010 c2        1 46F     -0.251000
      4 C4         -2.5740   -0.0180    3.4560 c2        1 46F     -0.049000
      5 C5         -9.4360    1.2680   -3.1470 c2        1 46F     -0.211000
      6 C6         -8.5070   -0.2500    4.1900 c1        1 46F      0.349000
      7 C7         -4.6180   -1.5380   -0.3150 c1        1 46F     -0.064000
      8 C8         -7.9420   -0.4170    3.0060 c2        1 46F     -0.530000
      9 C9         -4.7590   -5.0710    4.6290 c2        1 46F     -0.169000
     10 C10        -3.8430   -5.2130    5.6640 c2        1 46F     -0.079000
     11 C11        -0.4090   -1.1010    2.7630 c2        1 46F     -0.273000
     12 C12         3.2390   -1.2380    2.2330 c2        1 46F      0.042000
     13 C13        -8.9730    0.4420   -4.0850 c2        1 46F     -0.053000
     14 C14        -5.6400   -1.1730   -1.1320 c2        1 46F     -1.197000
     15 C15        -4.4740   -4.1160    3.6050 c2        1 46F      0.045000
     16 C16        -2.6830   -4.4050    5.6340 c2        1 46F     -0.115000
     17 C17        -3.7410   -1.1710    1.8760 c2        1 46F      0.307000
     18 C18        -6.5820   -4.6470    2.5020 c3        1 46F     -0.100000
     19 C19        -6.6390   -0.9870    2.7190 c2        1 46F      0.164000
     20 C20        -4.8730   -3.3520    1.3140 c3        1 46F     -0.011000
     21 C21        -4.9420   -1.7800    1.1650 c3        1 46F     -0.004000
     22 C22         4.7610   -0.0400    0.8900 c3        1 46F     -0.081000
     23 C23        -1.6110   -0.3450    2.3270 c3        1 46F      0.089000
     24 C24        -6.9630   -0.4640   -4.9850 c3        1 46F      0.544000
     25 N25        -3.2910   -3.3770    3.6660 n2        1 46F     -0.131000
     26 N26        -2.4650   -3.5150    4.6120 n2        1 46F     -0.015000
     27 N27        -5.3850   -3.8420    2.5670 nh        1 46F     -0.263000
     28 N28        -6.2320   -1.2210    1.5150 n2        1 46F     -0.391000
     29 N29        -2.4980   -1.1060    1.4040 n7        1 46F     -0.198000
     30 O30        -3.8710   -0.5310    3.0770 os        1 46F     -0.138000
     31 O31        -7.6710    0.2500   -0.6040 o         1 46F     -0.470900
     32 O32        -7.9480   -2.0540   -0.6520 o         1 46F     -0.470900
     33 O33         3.4060   -0.2440    1.3010 os        1 46F     -0.222000
     34 F35        -6.6610    0.6660   -5.6650 f         1 46F     -0.137667
     35 F36        -5.8280   -1.0240   -4.4970 f         1 46F     -0.137667
     36 F37        -7.5860   -1.3400   -5.8100 f         1 46F     -0.137667
     37 S38        -7.1160   -0.9820   -0.7510 s4        1 46F      2.090800
     38 Cl39       -1.5320   -4.5340    6.8730 cl        1 46F      0.067000
     39 H1          0.9630   -0.0180    1.5290 ha        1 46F      0.136000
     40 H2         -3.2730    0.7510    5.3150 ha        1 46F      0.163000
     41 H3          1.8860   -2.3160    3.4480 ha        1 46F      0.151000
     42 H4          4.1420   -1.7760    2.5640 h4        1 46F      0.149000
     43 H5         -8.8820    1.5120   -2.2290 ha        1 46F      0.151500
     44 H6         -9.4610    0.1580   -5.0280 h4        1 46F      0.166000
     45 H7        -10.4260    1.7330   -3.2550 ha        1 46F      0.151500
     46 H8         -5.3070   -0.9940   -2.1840 h4        1 46F      0.249000
     47 H9         -5.6680   -5.6880    4.6090 ha        1 46F      0.167000
     48 H10        -4.0080   -5.9350    6.4790 ha        1 46F      0.178000
     49 H18        -7.1380   -4.5600    3.4740 h1        1 46F      0.099333
     50 H18A       -6.3530   -5.7300    2.3070 h1        1 46F      0.099333
     51 H19        -7.2440   -4.2620    1.6810 h1        1 46F      0.099333
     52 H19A       -8.5570   -0.0600    2.1410 ha        1 46F      0.228000
     53 H20        -6.0050   -1.1940    3.6140 h4        1 46F      0.150000
     54 H20A       -3.8010   -3.6520    1.1370 h1        1 46F      0.130000
     55 H21        -5.4860   -3.7730    0.4640 h1        1 46F      0.130000
     56 H22         5.1650   -0.9650    0.4150 h1        1 46F      0.094667
     57 H22A        4.6870    0.7920    0.1450 h1        1 46F      0.094667
     58 H22B        5.3880    0.2630    1.7630 h1        1 46F      0.094667
     59 H23        -1.4590    1.0040    4.9310 ha        1 46F      0.163000
     60 H23A       -0.5780   -1.8950    3.5080 ha        1 46F      0.171000
     61 HN29       -1.3160    0.6070    1.7860 h1        1 46F      0.146000
     62 H292       -2.2070   -1.4950    0.5290 hn        1 46F      0.320000
     63 O34        -7.7430   -0.1970   -3.8480 os        1 46F     -0.333000
@<TRIPOS>BOND
     1    1    3 1   
     2    1   11 1   
     3    1   39 1   
     4    2    4 1   
     5    2   40 1   
     6    2   59 1   
     7    3   12 1   
     8    3   41 1   
     9    4   23 1   
    10    4   30 1   
    11    5   13 1   
    12    5   43 1   
    13    5   45 1   
    14    6    8 1   
    15    7   14 1   
    16    7   21 1   
    17    8   19 1   
    18    8   52 1   
    19    9   10 1   
    20    9   15 1   
    21    9   47 1   
    22   10   16 1   
    23   10   48 1   
    24   11   23 1   
    25   11   60 1   
    26   12   33 1   
    27   12   42 1   
    28   13   44 1   
    29   13   63 1   
    30   14   37 1   
    31   14   46 1   
    32   15   25 1   
    33   15   27 1   
    34   16   26 1   
    35   16   38 1   
    36   17   21 1   
    37   17   29 1   
    38   17   30 1   
    39   18   27 1   
    40   18   49 1   
    41   18   50 1   
    42   18   51 1   
    43   19   28 1   
    44   19   53 1   
    45   20   21 1   
    46   20   27 1   
    47   20   54 1   
    48   20   55 1   
    49   21   28 1   
    50   22   33 1   
    51   22   56 1   
    52   22   57 1   
    53   22   58 1   
    54   23   29 1   
    55   23   61 1   
    56   24   34 1   
    57   24   35 1   
    58   24   36 1   
    59   24   63 1   
    60   25   26 1   
    61   29   62 1   
    62   31   37 1   
    63   32   37 1   
@<TRIPOS>SUBSTRUCTURE
     1 46F         1 TEMP              0 ****  ****    0 ROOT
