@<TRIPOS>MOLECULE
46F
   62    65     1     0     0
SMALL
bcc


@<TRIPOS>ATOM
      1 C1         -2.2230   -4.5980   -1.2870 ca        1 46F     -0.081000
      2 C2         -2.2170   -3.1230    0.6300 ca        1 46F     -0.081000
      3 C3         -3.4810   -5.0700   -0.9330 ca        1 46F     -0.183000
      4 C4         -3.4800   -3.5810    1.0010 ca        1 46F     -0.183000
      5 C5          4.8640   -0.4970   -0.9850 ca        1 46F     -0.184000
      6 C6          4.9540    0.9980    0.9500 ca        1 46F     -0.184000
      7 C7          3.8170    0.2570   -1.4960 ca        1 46F      0.020000
      8 C8          3.9030    1.7310    0.4080 ca        1 46F      0.020000
      9 C9         -4.0320    1.9600    1.3720 ca        1 46F     -0.225300
     10 C10        -5.4160    2.0480    1.4860 ca        1 46F     -0.167300
     11 C11        -1.5840   -3.6250   -0.5100 ca        1 46F     -0.168300
     12 C12        -4.1100   -4.5560    0.2170 ca        1 46F      0.133100
     13 C13         5.4260   -0.1170    0.2480 ca        1 46F      0.192100
     14 C14         3.3170    1.3750   -0.8120 ca        1 46F     -0.404500
     15 C15        -3.4770    1.7050    0.0820 ca        1 46F      0.559200
     16 C16        -6.1830    1.8810    0.3150 ca        1 46F      0.374300
     17 C17         0.0460   -0.6960   -0.6340 c         1 46F      0.634100
     18 C18        -1.2520    2.5720    0.5090 c3        1 46F      0.175800
     19 C19         0.2460    2.1930    0.5190 c3        1 46F      0.208800
     20 C20        -1.6110    1.0510   -1.3560 c3        1 46F      0.184800
     21 C21        -0.0990    0.6780   -1.3400 c3        1 46F      0.167500
     22 C22        -6.0330   -4.5690    1.6200 c3        1 46F      0.112700
     23 C23        -0.2120   -3.1380   -0.8770 c3        1 46F      0.130300
     24 C24         7.1230   -0.6940    1.8810 c3        1 46F      0.827700
     25 N25        -4.3330    1.5550   -1.0140 nb        1 46F     -0.344000
     26 N26        -5.5860    1.6320   -0.9000 nb        1 46F     -0.263000
     27 N27        -2.0810    1.5170   -0.0620 nh        1 46F     -0.722300
     28 N28         0.7170    1.7090   -0.7550 n3        1 46F     -0.795500
     29 N29        -0.1690   -1.8080   -1.4340 n         1 46F     -0.550900
     30 O30         0.3900   -0.8070    0.5570 o         1 46F     -0.592100
     31 O31         2.2520    3.6360   -1.0680 o         1 46F     -0.648300
     32 O32         2.0030    2.0350   -2.8540 o         1 46F     -0.648300
     33 O33        -5.3540   -5.0910    0.4830 os        1 46F     -0.325900
     34 F35         6.2880   -0.7730    2.9460 f         1 46F     -0.208300
     35 F36         8.0480   -1.6810    1.9610 f         1 46F     -0.208300
     36 F37         7.7460    0.5100    1.8880 f         1 46F     -0.208300
     37 S38         2.0700    2.2950   -1.4670 sy        1 46F      1.513200
     38 CL39       -7.8770    1.9830    0.3950 cl        1 46F     -0.127000
     39 H1         -1.7280   -4.9980   -2.1840 ha        1 46F      0.142000
     40 H2         -1.7080   -2.3570    1.2380 ha        1 46F      0.142000
     41 H3         -3.9930   -5.8350   -1.5330 ha        1 46F      0.145000
     42 H4         -3.9640   -3.1760    1.8990 ha        1 46F      0.145000
     43 H5          5.2580   -1.3730   -1.5200 ha        1 46F      0.162500
     44 H6          5.4020    1.2930    1.9100 ha        1 46F      0.162500
     45 H7          3.3770   -0.0200   -2.4720 ha        1 46F      0.159000
     46 H8          3.5340    2.6230    0.9460 ha        1 46F      0.159000
     47 H9         -3.3940    2.0660    2.2600 ha        1 46F      0.159000
     48 H10        -5.8960    2.2380    2.4560 ha        1 46F      0.162000
     49 H18        -1.5590    2.7440    1.5770 h1        1 46F      0.053200
     50 H18A       -1.3860    3.5390   -0.0570 h1        1 46F      0.053200
     51 H19         0.8270    3.1190    0.8000 h1        1 46F      0.078200
     52 H19A        0.4120    1.3980    1.3050 h1        1 46F      0.078200
     53 H20        -1.7640    1.8310   -2.1580 h1        1 46F      0.069200
     54 H20A       -2.1950    0.1330   -1.6440 h1        1 46F      0.069200
     55 H21         0.2150    0.5670   -2.4260 h1        1 46F      0.099700
     56 H22        -5.4550   -4.7770    2.5530 h1        1 46F      0.045367
     57 H22A       -6.2100   -3.4720    1.5050 h1        1 46F      0.045367
     58 H22B       -7.0030   -5.1280    1.6230 h1        1 46F      0.045367
     59 H23         0.4400   -3.1570    0.0460 h1        1 46F      0.070200
     60 H23A        0.2390   -3.8310   -1.6450 h1        1 46F      0.070200
     61 HN29       -0.6760   -1.6750   -2.2790 hn        1 46F      0.303500
     62 O34         6.4610   -0.9390    0.6680 os        1 46F     -0.366900
@<TRIPOS>BOND
     1    1    3 ar  
     2    1   11 ar  
     3    1   39 1   
     4    2    4 ar  
     5    2   11 ar  
     6    2   40 1   
     7    3   12 ar  
     8    3   41 1   
     9    4   12 ar  
    10    4   42 1   
    11    5    7 ar  
    12    5   13 ar  
    13    5   43 1   
    14    6    8 ar  
    15    6   13 ar  
    16    6   44 1   
    17    7   14 ar  
    18    7   45 1   
    19    8   14 ar  
    20    8   46 1   
    21    9   10 ar  
    22    9   15 ar  
    23    9   47 1   
    24   10   16 ar  
    25   10   48 1   
    26   11   23 1   
    27   12   33 1   
    28   13   62 1   
    29   14   37 1   
    30   15   25 ar  
    31   15   27 1   
    32   16   26 ar  
    33   16   38 1   
    34   17   21 1   
    35   17   29 1   
    36   17   30 2   
    37   18   19 1   
    38   18   27 1   
    39   18   49 1   
    40   18   50 1   
    41   19   28 1   
    42   19   51 1   
    43   19   52 1   
    44   20   21 1   
    45   20   27 1   
    46   20   53 1   
    47   20   54 1   
    48   21   28 1   
    49   21   55 1   
    50   22   33 1   
    51   22   56 1   
    52   22   57 1   
    53   22   58 1   
    54   23   29 1   
    55   23   59 1   
    56   23   60 1   
    57   24   34 1   
    58   24   35 1   
    59   24   36 1   
    60   24   62 1   
    61   25   26 ar  
    62   28   37 1   
    63   29   61 1   
    64   31   37 2   
    65   32   37 2   
@<TRIPOS>SUBSTRUCTURE
     1 46F         1 TEMP              0 ****  ****    0 ROOT
