@<TRIPOS>MOLECULE
46F
   63    63     1     0     0
SMALL
bcc


@<TRIPOS>ATOM
      1 C1         -1.4090   -0.5900    0.7370 c2        1 46F     -0.049000
      2 C2         -4.6030   -2.1920    5.7350 c2        1 46F     -0.101000
      3 C3         -0.1190   -1.1240    0.8480 c1        1 46F     -0.208000
      4 C4         -5.2000   -2.6430    6.8430 c2        1 46F     -0.143000
      5 C5         -6.7740   -0.9950   -0.0180 c2        1 46F     -0.247000
      6 C6         -4.6050    0.7140   -3.2580 c1        1 46F     -0.641000
      7 C7         -7.7270   -1.8060   -0.7300 c2        1 46F      0.110000
      8 C8         -4.5770    0.4260   -2.0340 c1        1 46F      0.130000
      9 C9         -1.4490   -2.6540    3.7310 c2        1 46F     -0.172000
     10 C10        -0.5470   -2.3330    4.6970 c2        1 46F     -0.043000
     11 C11        -1.8540    0.4240    1.4950 c2        1 46F     -0.167000
     12 C12         0.9900   -1.5680    0.9380 c1        1 46F     -0.021000
     13 C13        -4.5640    0.9880   -4.5630 c2        1 46F      0.377000
     14 C14        -7.8490   -3.1230   -0.4690 c2        1 46F     -0.991000
     15 C15        -2.8670   -2.8420    4.0740 c2        1 46F      0.233000
     16 C16        -1.0340   -2.1490    6.0460 c2        1 46F     -0.078000
     17 C17        -5.1030   -0.5490    1.7660 c2        1 46F      0.338000
     18 C18        -5.0460   -3.8940    3.4360 c3        1 46F     -0.069000
     19 C19        -6.2400   -3.0080    3.0090 c3        1 46F     -0.068000
     20 C20        -3.1900   -3.6840    1.8320 c3        1 46F     -0.126000
     21 C21        -6.1220   -1.4560    1.0970 c2        1 46F      0.084000
     22 C22         2.9960   -2.2380   -0.0230 c3        1 46F     -0.079000
     23 C23        -3.2320    1.0040    1.4410 c3        1 46F     -0.006000
     24 C24        -6.6330    2.2770   -4.6980 c3        1 46F      0.552000
     25 N25        -3.2280   -2.4800    5.3860 na        1 46F     -0.075000
     26 N26        -2.3360   -2.1940    6.3350 n2        1 46F      0.017000
     27 N27        -3.7120   -3.3970    3.1590 nh        1 46F     -0.187000
     28 N28        -6.3490   -2.7330    1.6010 n3        1 46F     -0.721000
     29 N29        -4.2600    0.1330    0.9340 n         1 46F     -0.367000
     30 O30        -5.0260   -0.4520    3.0130 o         1 46F     -0.417000
     31 O31        -7.7850   -4.7930    1.4250 o         1 46F     -0.924000
     32 O32        -5.8740   -4.6190    0.0480 o         1 46F     -0.924000
     33 O33         2.1820   -2.0950    1.1640 os        1 46F     -0.121000
     34 F35        -6.3000    3.1930   -3.7640 f         1 46F     -0.116000
     35 F36        -7.2400    2.8700   -5.7480 f         1 46F     -0.116000
     36 F37        -7.4310    1.3240   -4.1700 f         1 46F     -0.116000
     37 S38        -6.9800   -3.9740    0.6220 s6        1 46F      2.855000
     38 CL39        0.0820   -1.8390    7.2800 cl        1 46F      0.121000
     39 H1         -2.0410   -1.0640   -0.0380 ha        1 46F      0.140000
     40 H2         -1.1960    0.9240    2.2260 ha        1 46F      0.141000
     41 H3         -6.2400   -2.3520    7.0600 ha        1 46F      0.157000
     42 H4         -4.7250   -3.2970    7.5880 ha        1 46F      0.157000
     43 H5         -6.5720    0.0130   -0.4160 ha        1 46F      0.183000
     44 H6         -3.7580    0.6610   -5.2640 h4        1 46F      0.205000
     45 H7         -8.3440   -1.3030   -1.4960 ha        1 46F      0.159000
     46 H8         -8.6090   -3.6930   -1.0390 h4        1 46F      0.209000
     47 H9         -1.1230   -2.7470    2.6780 ha        1 46F      0.203000
     48 H10         0.5270   -2.1980    4.4790 ha        1 46F      0.202000
     49 H18        -5.1330   -4.8930    2.9070 h1        1 46F      0.130500
     50 H18A       -5.1730   -4.0980    4.5370 h1        1 46F      0.130500
     51 H19        -7.1620   -3.5960    3.3180 h1        1 46F      0.144500
     52 H19A       -6.2520   -2.0520    3.6030 h1        1 46F      0.144500
     53 H20        -2.3430   -4.4200    1.9030 h1        1 46F      0.127333
     54 H20A       -2.8320   -2.7360    1.3440 h1        1 46F      0.127333
     55 H21        -3.9960   -4.1370    1.1880 h1        1 46F      0.127333
     56 H22         2.4980   -2.9250   -0.7460 h1        1 46F      0.102333
     57 H22A        3.9390   -2.6830    0.3820 h1        1 46F      0.102333
     58 H22B        3.1820   -1.2380   -0.4810 h1        1 46F      0.102333
     59 H23        -3.5160    1.3390    2.4840 h1        1 46F      0.119500
     60 H23A       -3.1950    1.9220    0.7800 h1        1 46F      0.119500
     61 HN29       -5.0600   -1.4810    5.0140 h4        1 46F      0.205000
     62 H292       -4.3650    0.0720   -0.0700 hn        1 46F      0.287000
     63 O34        -5.4650    1.6950   -5.2720 os        1 46F     -0.249000
@<TRIPOS>BOND
     1    1    3 1   
     2    1   11 1   
     3    1   39 1   
     4    2    4 1   
     5    2   25 1   
     6    2   61 1   
     7    3   12 1   
     8    4   41 1   
     9    4   42 1   
    10    5    7 1   
    11    5   21 1   
    12    5   43 1   
    13    6    8 1   
    14    6   13 1   
    15    7   14 1   
    16    7   45 1   
    17    9   10 1   
    18    9   15 1   
    19    9   47 1   
    20   10   16 1   
    21   10   48 1   
    22   11   23 1   
    23   11   40 1   
    24   12   33 1   
    25   13   44 1   
    26   13   63 1   
    27   14   37 1   
    28   14   46 1   
    29   15   25 1   
    30   15   27 1   
    31   16   26 1   
    32   16   38 1   
    33   17   21 1   
    34   17   29 1   
    35   17   30 1   
    36   18   19 1   
    37   18   27 1   
    38   18   49 1   
    39   18   50 1   
    40   19   28 1   
    41   19   51 1   
    42   19   52 1   
    43   20   27 1   
    44   20   53 1   
    45   20   54 1   
    46   20   55 1   
    47   21   28 1   
    48   22   33 1   
    49   22   56 1   
    50   22   57 1   
    51   22   58 1   
    52   23   29 1   
    53   23   59 1   
    54   23   60 1   
    55   24   34 1   
    56   24   35 1   
    57   24   36 1   
    58   24   63 1   
    59   25   26 1   
    60   28   37 1   
    61   29   62 1   
    62   31   37 1   
    63   32   37 1   
@<TRIPOS>SUBSTRUCTURE
     1 46F         1 TEMP              0 ****  ****    0 ROOT
