@<TRIPOS>MOLECULE
46F
   62    60     1     0     0
SMALL
bcc


@<TRIPOS>ATOM
      1 C1         -0.8930    0.3940    1.2280 c2        1 46F     -0.001000
      2 C2         -0.9350    4.0350    0.3110 c2        1 46F     -0.568000
      3 C3          0.2830   -0.3300    0.7960 c2        1 46F     -0.200000
      4 C4         -0.9930    4.9740    1.2120 c1        1 46F      0.162000
      5 C5         -4.2160   -0.5870   -1.6820 c2        1 46F     -0.239000
      6 C6         -8.3560    2.3960   -1.1020 c1        1 46F     -0.003500
      7 C7         -6.2820   -2.0320    0.5360 c1        1 46F     -0.113000
      8 C8         -7.3360    1.9320   -1.4190 c1        1 46F     -0.003500
      9 C9         -4.3930   -4.6790    5.3270 c2        1 46F     -0.162000
     10 C10        -3.3110   -4.8850    6.1790 c2        1 46F     -0.100000
     11 C11        -1.8840   -0.1530    1.8770 c1        1 46F     -0.245000
     12 C12         1.3160    0.2290    0.1360 c2        1 46F     -0.008000
     13 C13        -4.4090    0.6070   -2.2440 c2        1 46F     -0.048000
     14 C14        -7.4360   -2.5670    0.0590 c2        1 46F     -1.054000
     15 C15        -4.6880   -5.6830    4.3600 c2        1 46F      0.024000
     16 C16        -2.5780   -6.0800    6.0300 c2        1 46F     -0.117000
     17 C17        -5.0220   -1.7500    2.7860 c2        1 46F      0.332000
     18 C18        -7.0100   -5.0870    3.9990 c3        1 46F     -0.058000
     19 C19        -7.3360   -3.5800    3.8290 c3        1 46F     -0.093000
     20 C20        -5.8360   -6.4300    2.3340 c3        1 46F     -0.112000
     21 C21        -6.1920   -2.3310    2.0230 c2        1 46F      0.104000
     22 C22         2.4130    2.0270   -0.9200 c3        1 46F     -0.078000
     23 C23        -2.8650   -0.6640    2.5790 c2        1 46F      0.014000
     24 C24        -3.3970    2.4600   -3.3430 c3        1 46F      0.536000
     25 N25        -3.8910   -6.8310    4.2940 n2        1 46F     -0.069000
     26 N26        -2.9110   -7.0060    5.0670 n2        1 46F     -0.006000
     27 N27        -5.7370   -5.4830    3.4260 nh        1 46F     -0.236000
     28 N28        -7.1630   -3.0750    2.4940 n3        1 46F     -0.451000
     29 N29        -4.0120   -1.2440    2.0110 n         1 46F     -0.270000
     30 O30        -5.0130   -1.7430    4.0360 o         1 46F     -0.367000
     31 O31        -9.5580   -2.7860    1.5180 o         1 46F     -0.888500
     32 O32        -8.4170   -4.7690    0.9530 o         1 46F     -0.888500
     33 O33         1.2950    1.5790   -0.1550 os        1 46F     -0.232000
     34 F35        -3.2140    3.1650   -2.1960 f         1 46F     -0.149333
     35 F36        -2.3510    2.6770   -4.1750 f         1 46F     -0.149333
     36 F37        -4.5420    2.8880   -3.9330 f         1 46F     -0.149333
     37 S38        -8.3780   -3.3840    1.0920 s6        1 46F      2.742000
     38 CL39       -1.2520   -6.3900    7.0450 cl        1 46F      0.040000
     39 H1         -0.9230    1.4760    0.9810 ha        1 46F      0.153000
     40 H2         -0.0610    3.3720    0.1730 ha        1 46F      0.202500
     41 H3          0.3280   -1.4060    1.0280 ha        1 46F      0.143000
     42 H4          2.2030   -0.3340   -0.1920 h4        1 46F      0.138000
     43 H5         -3.3040   -1.1730   -1.8470 ha        1 46F      0.158000
     44 H6         -5.2900    1.2580   -2.1330 h4        1 46F      0.149000
     45 H7         -4.9910   -1.0440   -1.0400 ha        1 46F      0.158000
     46 H8         -7.6760   -2.4600   -1.0080 h4        1 46F      0.220000
     47 H9         -4.9750   -3.7470    5.3830 ha        1 46F      0.171000
     48 H10        -3.0340   -4.1380    6.9370 ha        1 46F      0.165000
     49 H18        -7.8420   -5.6810    3.5200 h1        1 46F      0.111500
     50 H18A       -7.0420   -5.2760    5.1110 h1        1 46F      0.111500
     51 H19        -8.4260   -3.4410    4.0940 h1        1 46F      0.136500
     52 H19A       -6.7180   -2.9780    4.5580 h1        1 46F      0.136500
     53 H20        -6.1000   -7.4650    2.6800 h1        1 46F      0.099000
     54 H20A       -4.8510   -6.4690    1.7970 h1        1 46F      0.099000
     55 H21        -6.6280   -6.0740    1.6210 h1        1 46F      0.099000
     56 H22         3.3630    1.8570   -0.3580 h1        1 46F      0.086333
     57 H22A        2.4440    1.5070   -1.9070 h1        1 46F      0.086333
     58 H22B        2.2220    3.1220   -1.0540 h1        1 46F      0.086333
     59 H23        -1.7480    3.8110   -0.4010 ha        1 46F      0.202500
     60 H23A       -2.8500   -0.6750    3.6900 h4        1 46F      0.178000
     61 HN29       -4.1310   -1.2300    1.0140 hn        1 46F      0.279000
     62 O34        -3.4150    1.0820   -3.1110 os        1 46F     -0.263000
@<TRIPOS>BOND
     1    1    3 1   
     2    1   11 1   
     3    1   39 1   
     4    2    4 1   
     5    2   40 1   
     6    2   59 1   
     7    3   12 1   
     8    3   41 1   
     9    5   13 1   
    10    5   43 1   
    11    5   45 1   
    12    6    8 1   
    13    7   14 1   
    14    7   21 1   
    15    9   10 1   
    16    9   15 1   
    17    9   47 1   
    18   10   16 1   
    19   10   48 1   
    20   11   23 1   
    21   12   33 1   
    22   12   42 1   
    23   13   44 1   
    24   13   62 1   
    25   14   37 1   
    26   14   46 1   
    27   15   25 1   
    28   15   27 1   
    29   16   26 1   
    30   16   38 1   
    31   17   21 1   
    32   17   29 1   
    33   17   30 1   
    34   18   19 1   
    35   18   27 1   
    36   18   49 1   
    37   18   50 1   
    38   19   28 1   
    39   19   51 1   
    40   19   52 1   
    41   20   27 1   
    42   20   53 1   
    43   20   54 1   
    44   20   55 1   
    45   21   28 1   
    46   22   33 1   
    47   22   56 1   
    48   22   57 1   
    49   22   58 1   
    50   23   29 1   
    51   23   60 1   
    52   24   34 1   
    53   24   35 1   
    54   24   36 1   
    55   24   62 1   
    56   25   26 1   
    57   28   37 1   
    58   29   61 1   
    59   31   37 1   
    60   32   37 1   
@<TRIPOS>SUBSTRUCTURE
     1 46F         1 TEMP              0 ****  ****    0 ROOT
