@<TRIPOS>MOLECULE
46F
   62    55     1     0     0
SMALL
bcc


@<TRIPOS>ATOM
      1 C1          4.5380   -1.7570    2.2070 c1        1 46F     -0.060167
      2 C2          4.5160   -1.3770   -0.1620 c1        1 46F     -0.030500
      3 C3          5.2810   -2.9080    2.0240 c1        1 46F     -0.060167
      4 C4          5.2610   -2.5310   -0.3500 c1        1 46F     -0.104500
      5 C5         -3.4060   -1.7530   -3.7000 c1        1 46F     -0.060167
      6 C6         -2.4710   -0.0720   -5.1650 c1        1 46F     -0.151500
      7 C7         -2.7970   -1.1370   -2.6090 c1        1 46F     -0.060167
      8 C8         -1.8610    0.5450   -4.0750 c1        1 46F      0.073500
      9 C9         -2.9280    2.2540    4.6090 c1        1 46F     -0.060167
     10 C10        -3.1090    3.1260    5.6420 c1        1 46F     -0.060167
     11 C11         4.1560   -0.9900    1.1040 c1        1 46F     -0.122100
     12 C12         5.6450   -3.3000    0.7470 c1        1 46F      0.113600
     13 C13        -3.2460   -1.2240   -4.9760 c1        1 46F      0.173600
     14 C14        -2.0200    0.0170   -2.7980 c1        1 46F     -0.447200
     15 C15        -2.4780    2.7160    3.3900 c1        1 46F      0.419600
     16 C16        -2.8430    4.4590    5.4670 c1        1 46F      0.296700
     17 C17         1.0310    0.8470    0.5280 c1        1 46F      0.506500
     18 C18        -2.9620    2.1620    1.1420 c3        1 46F      0.174800
     19 C19        -2.6630    1.3560   -0.0550 c3        1 46F      0.042300
     20 C20        -0.8290    1.6830    2.0380 c3        1 46F      0.095500
     21 C21        -0.4830    0.8190    0.8320 c2        1 46F      0.294200
     22 C22         7.5980   -4.6790    0.6410 c3        1 46F      0.113700
     23 C23         3.3420    0.2980    1.3070 c3        1 46F      0.036400
     24 C24        -5.0970   -1.4940   -6.4160 c3        1 46F      0.827700
     25 N25        -2.2160    4.0340    3.2200 n1        1 46F     -0.403800
     26 N26        -2.3990    4.9130    4.2640 n1        1 46F     -0.326800
     27 N27        -2.2240    1.7620    2.2800 n3        1 46F     -0.586200
     28 N28        -1.2810    1.2720   -0.3270 nh        1 46F     -0.524600
     29 N29         1.9280   -0.0090    1.2590 n3        1 46F     -0.356400
     30 O30         1.4590    1.5620   -0.3500 o         1 46F     -0.577500
     31 O31        -0.4180    2.2280   -2.5720 o         1 46F     -0.650300
     32 O32         0.5390    0.2900   -1.8790 o         1 46F     -0.650300
     33 O33         6.2270   -4.4850    0.2440 os        1 46F     -0.310400
     34 O34        -3.7920   -1.8960   -6.0920 os        1 46F     -0.350400
     35 F35        -5.8090   -2.5650   -6.8440 f         1 46F     -0.207300
     36 F36        -5.0510   -0.5710   -7.3850 f         1 46F     -0.207300
     37 F37        -5.6930   -0.9670   -5.3200 f         1 46F     -0.207300
     38 S38        -0.7560    0.9750   -1.8740 s6        1 46F      1.563000
     39 CL39       -3.4460    5.3610    6.8330 cl        1 46F     -0.050900
     40 H1          4.2830   -1.4830    3.0990 ha        1 46F      0.094333
     41 H2          4.2520   -0.8450   -0.9240 ha        1 46F      0.118500
     42 H3          5.5480   -3.4440    2.7920 ha        1 46F      0.094333
     43 H4          5.5180   -2.8060   -1.2540 ha        1 46F      0.093500
     44 H5         -3.9460   -2.5580   -3.5680 ha        1 46F      0.094333
     45 H6         -2.3530    0.3110   -6.0920 ha        1 46F      0.103500
     46 H7         -2.9070   -1.5050   -1.7200 ha        1 46F      0.094333
     47 H8         -1.3120    1.3600   -4.2100 ha        1 46F      0.110500
     48 H9         -3.1150    1.3100    4.7310 ha        1 46F      0.094333
     49 H10        -3.4260    2.8030    6.5000 ha        1 46F      0.094333
     50 H18        -3.8900    2.0840    1.3370 h1        1 46F      0.070200
     51 H18A       -2.7550    3.1180    0.9440 h1        1 46F      0.070200
     52 H19        -3.0170    0.4470    0.0760 h1        1 46F      0.053700
     53 H19A       -3.0940    1.7460   -0.7960 h1        1 46F      0.053700
     54 H20        -0.3910    1.3060    2.8320 h1        1 46F      0.072200
     55 H20A       -0.4930    2.5640    1.8900 h1        1 46F      0.072200
     56 H21        -0.6220   -0.1230    1.0160 h4        1 46F     -0.027200
     57 H22         7.6300   -4.9350    1.5560 h1        1 46F      0.044367
     58 H22A        7.9960   -5.3730    0.0980 h1        1 46F      0.044367
     59 H22B        8.1000   -3.8370    0.5170 h1        1 46F      0.044367
     60 H23         3.5560    0.6800    2.1550 h1        1 46F      0.068200
     61 H23A        3.5650    0.9540    0.5780 h1        1 46F      0.068200
     62 HN29        1.6330   -0.7400    1.6130 hn        1 46F      0.268700
@<TRIPOS>BOND
     1    1    3 3   
     2    1   40 1   
     3    2   11 3   
     4    2   41 1   
     5    3   42 1   
     6    4   12 3   
     7    4   43 1   
     8    5    7 3   
     9    5   44 1   
    10    6   13 3   
    11    6   45 1   
    12    7   46 1   
    13    8   14 3   
    14    8   47 1   
    15    9   10 3   
    16    9   48 1   
    17   10   49 1   
    18   11   23 1   
    19   12   33 1   
    20   13   34 1   
    21   14   38 1   
    22   15   25 3   
    23   15   27 1   
    24   16   26 3   
    25   16   39 1   
    26   17   29 2   
    27   17   30 2   
    28   18   19 1   
    29   18   27 1   
    30   18   50 1   
    31   18   51 1   
    32   19   28 1   
    33   19   52 1   
    34   19   53 1   
    35   20   21 1   
    36   20   27 1   
    37   20   54 1   
    38   20   55 1   
    39   21   28 2   
    40   21   56 1   
    41   22   33 1   
    42   22   57 1   
    43   22   58 1   
    44   22   59 1   
    45   23   29 1   
    46   23   60 1   
    47   23   61 1   
    48   24   34 1   
    49   24   35 1   
    50   24   36 1   
    51   24   37 1   
    52   28   38 1   
    53   29   62 1   
    54   31   38 2   
    55   32   38 2   
@<TRIPOS>SUBSTRUCTURE
     1 46F         1 TEMP              0 ****  ****    0 ROOT
