@<TRIPOS>MOLECULE
46G
   48    52     1     0     0
SMALL
bcc


@<TRIPOS>ATOM
      1 C22         1.0200   -1.7100    3.4840 c3        1 46G     -0.135400
      2 C21         2.3610   -1.7630    2.8760 cc        1 46G      0.325600
      3 C20         3.1720   -0.5870    2.5540 cc        1 46G     -0.336600
      4 N5          3.0470   -2.8710    2.5250 nd        1 46G     -0.347300
      5 O2          4.2090   -2.5220    2.0130 os        1 46G     -0.123100
      6 C7          4.3320   -1.1050    2.0100 cd        1 46G      0.313200
      7 C1          5.5460   -0.5430    1.4840 cd        1 46G     -0.142500
      8 C2          5.7010    0.8800    1.4790 cd        1 46G     -0.153000
      9 C3          6.8500    1.4540    0.9780 cc        1 46G      0.185900
     10 F1          7.0330    2.7880    0.9520 f         1 46G     -0.100900
     11 C5          6.5420   -1.3690    0.9900 cc        1 46G     -0.028300
     12 N1          7.6990   -0.8160    0.4940 na        1 46G     -0.046200
     13 C4          7.8950    0.6010    0.4630 cc        1 46G     -0.112300
     14 N2          9.1300    0.8490   -0.0960 nd        1 46G     -0.049000
     15 N3          9.6890   -0.2890   -0.4050 nd        1 46G     -0.329700
     16 C6          8.8730   -1.3450   -0.0720 cc        1 46G      0.266800
     17 C8          9.1670   -2.8260   -0.2410 c3        1 46G      0.250300
     18 C18        10.2750   -3.0150   -1.2900 c3        1 46G     -0.105100
     19 F2          8.0110   -3.4760   -0.6800 f         1 46G     -0.231300
     20 C9          9.6300   -3.3770    1.0980 ca        1 46G     -0.122300
     21 C14         8.9940   -4.4430    1.6920 ca        1 46G     -0.097000
     22 C13         9.4530   -4.9570    2.9320 ca        1 46G     -0.117300
     23 C17         8.8120   -6.0560    3.5630 ca        1 46G     -0.122000
     24 C16         9.3120   -6.5080    4.7710 ca        1 46G      0.001800
     25 O1          8.6640   -7.5780    5.3500 os        1 46G     -0.316900
     26 C19         9.1830   -8.0260    6.5980 c3        1 46G      0.110700
     27 C15        10.4550   -5.8520    5.3440 ca        1 46G      0.370200
     28 N4         11.0670   -4.8290    4.7780 nb        1 46G     -0.631000
     29 C12        10.5850   -4.3620    3.5710 ca        1 46G      0.372600
     30 C11        11.2230   -3.2540    2.9260 ca        1 46G     -0.151300
     31 C10        10.7550   -2.7820    1.7280 ca        1 46G     -0.119000
     32 H1          0.3330   -1.1260    2.8210 hc        1 46G      0.061367
     33 H2          1.0810   -1.1970    4.4770 hc        1 46G      0.061367
     34 H3          0.5880   -2.7310    3.6350 hc        1 46G      0.061367
     35 H4          2.8900    0.4470    2.7200 ha        1 46G      0.178000
     36 H5          4.8910    1.5090    1.8780 ha        1 46G      0.166000
     37 H6          6.4630   -2.4730    0.9640 h4        1 46G      0.204000
     38 H7         10.4450   -4.1070   -1.4440 hc        1 46G      0.065367
     39 H8          9.9640   -2.5540   -2.2570 hc        1 46G      0.065367
     40 H9         11.2210   -2.5390   -0.9400 hc        1 46G      0.065367
     41 H10         8.1210   -4.9190    1.2160 ha        1 46G      0.150000
     42 H11         7.9380   -6.5340    3.0970 ha        1 46G      0.159000
     43 H12        10.2360   -8.3800    6.4840 h1        1 46G      0.048367
     44 H13         9.1190   -7.2170    7.3660 h1        1 46G      0.048367
     45 H14         8.5070   -8.8780    6.8660 h1        1 46G      0.048367
     46 H15        10.8730   -6.1940    6.3080 h4        1 46G      0.028100
     47 H16        12.0970   -2.7870    3.4090 ha        1 46G      0.156000
     48 H17        11.2520   -1.9270    1.2400 ha        1 46G      0.154000
@<TRIPOS>BOND
     1    1    2 1   
     2    1   32 1   
     3    1   33 1   
     4    1   34 1   
     5    2    3 1   
     6    2    4 2   
     7    3    6 2   
     8    3   35 1   
     9    4    5 1   
    10    5    6 1   
    11    6    7 1   
    12    7    8 1   
    13    7   11 2   
    14    8    9 2   
    15    8   36 1   
    16    9   10 1   
    17    9   13 1   
    18   11   12 1   
    19   11   37 1   
    20   12   13 1   
    21   12   16 1   
    22   13   14 2   
    23   14   15 1   
    24   15   16 2   
    25   16   17 1   
    26   17   18 1   
    27   17   19 1   
    28   17   20 1   
    29   18   38 1   
    30   18   39 1   
    31   18   40 1   
    32   20   21 ar  
    33   20   31 ar  
    34   21   22 ar  
    35   21   41 1   
    36   22   23 ar  
    37   22   29 ar  
    38   23   24 ar  
    39   23   42 1   
    40   24   25 1   
    41   24   27 ar  
    42   25   26 1   
    43   26   43 1   
    44   26   44 1   
    45   26   45 1   
    46   27   28 ar  
    47   27   46 1   
    48   28   29 ar  
    49   29   30 ar  
    50   30   31 ar  
    51   30   47 1   
    52   31   48 1   
@<TRIPOS>SUBSTRUCTURE
     1 46G         1 TEMP              0 ****  ****    0 ROOT
