@<TRIPOS>MOLECULE
46K
   43    45     1     0     0
SMALL
bcc


@<TRIPOS>ATOM
      1 C1          0.4710   -1.2880   -0.3950 c3        1 46K     -0.186100
      2 N1          1.4200    0.4820    1.1170 nt        1 46K     -0.724000
      3 O1          0.6800    1.0530   -0.9760 o         1 46K     -0.511100
      4 S1          3.8300    0.1130    1.1260 s4        1 46K      1.686300
      5 C2          0.8150    0.1480   -0.1460 c         1 46K      0.615100
      6 N2          5.5080    5.2080   -0.9640 nu        1 46K     -0.558400
      7 O2          3.7190   -0.9360    0.2650 o         1 46K     -0.450400
      8 S2          6.3930    8.3880    2.5460 ss        1 46K     -0.094100
      9 C3          4.2640    1.4710    0.5860 ca        1 46K     -0.712500
     10 N3          6.7770    9.0540   -2.5320 ns        1 46K     -0.456100
     11 O3          3.8030   -0.0690    2.4760 o         1 46K     -0.450400
     12 C4          4.4010    1.7240   -0.8180 ca        1 46K      0.069000
     13 N4          7.1680   10.8630    2.7260 nc        1 46K     -0.487100
     14 O4          6.1250    6.9050   -3.2330 o         1 46K     -0.617500
     15 C5          4.8030    2.9280   -1.3130 ca        1 46K     -0.223500
     16 C6          5.1140    4.0270   -0.4310 ca        1 46K      0.318600
     17 C7          5.8460    6.3580   -0.2440 c2        1 46K      0.072000
     18 C8          6.2290    7.5060   -0.8450 cc        1 46K     -0.109400
     19 C9          6.3530    7.7310   -2.3370 c         1 46K      0.709700
     20 C10         6.9340    9.6890   -1.2860 ca        1 46K      0.095600
     21 C11         7.3400   11.0020   -1.0190 ca        1 46K     -0.160000
     22 C12         7.4280   11.4240    0.3040 ca        1 46K     -0.005000
     23 C13         7.1140   10.5440    1.3540 ca        1 46K      0.048400
     24 C14         6.8160    9.8240    3.4390 cd        1 46K      0.387100
     25 C15         6.6950    9.1880    1.0860 ca        1 46K     -0.015100
     26 C16         6.6070    8.7700   -0.2280 ca        1 46K     -0.103800
     27 C17         4.9820    3.7870    0.9810 ca        1 46K     -0.223500
     28 C18         4.5760    2.5700    1.4470 ca        1 46K      0.069000
     29 HN3         6.9430    9.4790   -3.4090 hn        1 46K      0.362500
     30 H1         -0.0420   -1.3730   -1.3860 hc        1 46K      0.095033
     31 H1A         1.4070   -1.9040   -0.4170 hc        1 46K      0.095033
     32 H1B        -0.2100   -1.6820    0.3990 hc        1 46K      0.095033
     33 HN1         1.0810   -0.0980    1.8650 hn        1 46K      0.300500
     34 H4          4.1700    0.8990   -1.5200 ha        1 46K      0.168500
     35 H5          4.8890    3.0680   -2.4060 ha        1 46K      0.174500
     36 H7          5.7870    6.2960    0.8610 h4        1 46K      0.175000
     37 H11         7.5870   11.6940   -1.8380 ha        1 46K      0.162000
     38 H12         7.7460   12.4560    0.5330 ha        1 46K      0.172000
     39 H14         6.7850    9.8400    4.5340 h5        1 46K      0.076800
     40 H17         5.2110    4.5870    1.7030 ha        1 46K      0.174500
     41 H18         4.4880    2.4120    2.5410 ha        1 46K      0.168500
     42 HN2         5.5660    5.2760   -1.9730 hn        1 46K      0.496800
     43 H121        1.2950    1.4540    1.3440 hn        1 46K      0.300500
@<TRIPOS>BOND
     1    1    5 1   
     2    1   30 1   
     3    1   31 1   
     4    1   32 1   
     5    2    5 1   
     6    2   33 1   
     7    2   43 1   
     8    3    5 2   
     9    4    7 1   
    10    4    9 1   
    11    4   11 1   
    12    6   16 1   
    13    6   17 1   
    14    6   42 1   
    15    8   24 1   
    16    8   25 1   
    17    9   12 ar  
    18    9   28 ar  
    19   10   19 1   
    20   10   20 1   
    21   10   29 1   
    22   12   15 ar  
    23   12   34 1   
    24   13   23 1   
    25   13   24 2   
    26   14   19 2   
    27   15   16 ar  
    28   15   35 1   
    29   16   27 ar  
    30   17   18 2   
    31   17   36 1   
    32   18   19 1   
    33   18   26 1   
    34   20   21 ar  
    35   20   26 ar  
    36   21   22 ar  
    37   21   37 1   
    38   22   23 ar  
    39   22   38 1   
    40   23   25 ar  
    41   24   39 1   
    42   25   26 ar  
    43   27   28 ar  
    44   27   40 1   
    45   28   41 1   
@<TRIPOS>SUBSTRUCTURE
     1 46K         1 TEMP              0 ****  ****    0 ROOT
