@<TRIPOS>MOLECULE
46K
   42    39     1     0     0
SMALL
bcc


@<TRIPOS>ATOM
      1 C1         -6.1340   -5.6730    0.8690 c3        1 46K     -0.243000
      2 N1         -4.1650   -4.2290    0.1700 n         1 46K     -0.862000
      3 O1         -4.4190   -6.3590   -0.6130 o         1 46K     -0.319000
      4 S1         -2.5570   -4.1590   -0.1620 s4        1 46K      2.084800
      5 C2         -4.8520   -5.4680    0.0910 c2        1 46K      0.327000
      6 N2         -0.3150    1.2910   -0.4260 n3        1 46K     -0.255000
      7 O2         -2.2600   -4.7600   -1.4330 o         1 46K     -0.525400
      8 S2          3.6270    2.1820    2.0940 ss        1 46K      0.365000
      9 C3         -1.9890   -2.4790   -0.0960 c1        1 46K     -0.883000
     10 N3          2.3150    4.0780   -2.3820 n         1 46K     -0.321000
     11 O3         -1.8040   -4.9990    0.7270 o         1 46K     -0.525400
     12 C4         -1.4960   -1.9140   -1.2610 c1        1 46K      0.020000
     13 N4          5.6810    3.4020    2.3260 n2        1 46K     -0.077000
     14 O4          0.2550    2.9470   -2.5770 o         1 46K     -0.364000
     15 C5         -0.8870   -0.6690   -1.2230 c1        1 46K     -0.209000
     16 C6         -0.7710    0.0100   -0.0210 c2        1 46K      0.148000
     17 C7          0.9050    1.8040    0.0850 c2        1 46K      0.099000
     18 C8          1.6250    2.6800   -0.6440 c1        1 46K     -0.234000
     19 C9          1.2760    3.1890   -1.9650 c2        1 46K      0.359000
     20 C10         3.3100    4.1820   -1.2700 c2        1 46K      0.078000
     21 C11         4.5200    4.9120   -1.1500 c2        1 46K     -0.161000
     22 C12         5.3340    4.7440   -0.0180 c1        1 46K     -0.039000
     23 C13         4.9520    3.8550    0.9950 c1        1 46K     -0.090000
     24 C14         4.8790    2.4090    2.9630 c1        1 46K     -0.273000
     25 C15         3.7320    3.1180    0.8760 c1        1 46K     -0.260000
     26 C16         2.9230    3.2860   -0.2510 c1        1 46K     -0.037000
     27 C17        -1.2640   -0.5560    1.1450 c2        1 46K     -0.215000
     28 C18        -1.8730   -1.8010    1.1070 c2        1 46K      0.024000
     29 HN3         2.3690    4.4980   -3.1900 hn        1 46K      0.259000
     30 H1         -5.9320   -5.7110    1.8270 hc        1 46K      0.111333
     31 H1A        -6.7460   -4.9280    0.6930 hc        1 46K      0.111333
     32 H1B        -6.5540   -6.5140    0.5900 hc        1 46K      0.111333
     33 HN1        -4.6180   -3.4700    0.3940 hn        1 46K      0.242000
     34 H4         -1.5780   -2.3920   -2.1090 ha        1 46K      0.161000
     35 H5         -0.5400   -0.2710   -2.0440 ha        1 46K      0.153000
     36 H7          1.2030    1.5520    0.9790 h4        1 46K      0.163000
     37 H11         4.7830    5.5380   -1.8520 ha        1 46K      0.147000
     38 H12         6.1680    5.2450    0.0620 ha        1 46K      0.157000
     39 H14         5.1130    1.9160    3.7730 DU        1 46K      0.195000
     40 H17        -1.1820   -0.0780    1.9920 ha        1 46K      0.145000
     41 H18        -2.2200   -2.1990    1.9280 ha        1 46K      0.161000
     42 HN2        -0.8150    1.7920   -1.0000 hn        1 46K      0.274000
@<TRIPOS>BOND
     1    1    5 1   
     2    1   30 1   
     3    1   31 1   
     4    1   32 1   
     5    2    4 1   
     6    2    5 1   
     7    2   33 1   
     8    3    5 1   
     9    4    7 1   
    10    4   11 1   
    11    6   16 1   
    12    6   17 1   
    13    6   42 1   
    14    8   24 1   
    15    8   25 1   
    16    9   12 1   
    17    9   28 1   
    18   10   19 1   
    19   10   20 1   
    20   10   29 1   
    21   12   34 1   
    22   13   23 1   
    23   13   24 1   
    24   14   19 1   
    25   15   16 1   
    26   15   35 1   
    27   16   27 1   
    28   17   18 1   
    29   17   36 1   
    30   18   19 1   
    31   20   21 1   
    32   20   26 1   
    33   21   22 1   
    34   21   37 1   
    35   22   38 1   
    36   23   25 1   
    37   27   28 1   
    38   27   40 1   
    39   28   41 1   
@<TRIPOS>SUBSTRUCTURE
     1 46K         1 TEMP              0 ****  ****    0 ROOT
