@<TRIPOS>MOLECULE
46K
   43    45     1     0     0
SMALL
bcc


@<TRIPOS>ATOM
      1 C1          0.4630   -1.2790   -0.4180 c3        1 46K     -0.186100
      2 N1          1.3800    0.5080    1.0930 n         1 46K     -0.724000
      3 O1          0.6980    1.0520   -1.0270 o         1 46K     -0.511100
      4 S1          3.7870    0.1310    1.1710 s4        1 46K      1.686300
      5 C2          0.8070    0.1590   -0.1800 c         1 46K      0.615100
      6 N2          5.5370    5.1900   -0.9480 nh        1 46K     -0.558400
      7 O2          3.6950   -0.9300    0.3230 o         1 46K     -0.450400
      8 S2          6.3450    8.4170    2.5370 ss        1 46K     -0.094100
      9 C3          4.2400    1.4800    0.6230 ca        1 46K     -0.712500
     10 N3          6.8540    9.0100   -2.5390 n         1 46K     -0.456100
     11 O3          3.7230   -0.0310    2.5230 o         1 46K     -0.450400
     12 C4          4.4150    1.7120   -0.7800 ca        1 46K      0.069000
     13 N4          7.1210   10.8930    2.7000 nc        1 46K     -0.487100
     14 O4          6.2130    6.8530   -3.2250 o         1 46K     -0.617500
     15 C5          4.8340    2.9070   -1.2830 ca        1 46K     -0.223500
     16 C6          5.1250    4.0180   -0.4080 ca        1 46K      0.318600
     17 C7          5.8600    6.3490   -0.2370 c2        1 46K      0.072000
     18 C8          6.2620    7.4870   -0.8440 cc        1 46K     -0.109400
     19 C9          6.4220    7.6910   -2.3360 c         1 46K      0.709700
     20 C10         6.9820    9.6630   -1.2980 ca        1 46K      0.095600
     21 C11         7.3840   10.9780   -1.0400 ca        1 46K     -0.160000
     22 C12         7.4410   11.4190    0.2790 ca        1 46K     -0.005000
     23 C13         7.0990   10.5550    1.3330 ca        1 46K      0.048400
     24 C14         6.7490    9.8650    3.4200 cd        1 46K      0.387100
     25 C15         6.6840    9.1960    1.0740 ca        1 46K     -0.015100
     26 C16         6.6280    8.7590   -0.2360 ca        1 46K     -0.103800
     27 C17         4.9560    3.7990    1.0030 ca        1 46K     -0.223500
     28 C18         4.5340    2.5910    1.4760 ca        1 46K      0.069000
     29 HN3         7.0420    9.4220   -3.4180 hn        1 46K      0.362500
     30 H1          1.3970   -1.8990   -0.4060 hc        1 46K      0.095033
     31 H1A        -0.2400   -1.6590    0.3630 hc        1 46K      0.095033
     32 H1B        -0.0230   -1.3770   -1.4210 hc        1 46K      0.095033
     33 HN1         1.2520    1.4840    1.3030 hn        1 46K      0.300500
     34 H4          4.1990    0.8770   -1.4760 ha        1 46K      0.168500
     35 H5          4.9490    3.0300   -2.3740 ha        1 46K      0.174500
     36 H7          5.7750    6.3020    0.8670 h4        1 46K      0.175000
     37 H11         7.6520   11.6580   -1.8630 ha        1 46K      0.162000
     38 H12         7.7550   12.4530    0.5000 ha        1 46K      0.172000
     39 H14         6.6910    9.8960    4.5130 h5        1 46K      0.076800
     40 H17         5.1690    4.6090    1.7190 ha        1 46K      0.174500
     41 H18         4.4170    2.4490    2.5690 ha        1 46K      0.168500
     42 HN2         5.6210    5.2430   -1.9560 hn        1 46K      0.496800
     43 H121        1.0190   -0.0600    1.8400 hn        1 46K      0.300500
@<TRIPOS>BOND
     1    1    5 1   
     2    1   30 1   
     3    1   31 1   
     4    1   32 1   
     5    2    5 1   
     6    2   33 1   
     7    2   43 1   
     8    3    5 2   
     9    4    7 1   
    10    4    9 1   
    11    4   11 1   
    12    6   16 1   
    13    6   17 1   
    14    6   42 1   
    15    8   24 1   
    16    8   25 1   
    17    9   12 ar  
    18    9   28 ar  
    19   10   19 1   
    20   10   20 1   
    21   10   29 1   
    22   12   15 ar  
    23   12   34 1   
    24   13   23 1   
    25   13   24 2   
    26   14   19 2   
    27   15   16 ar  
    28   15   35 1   
    29   16   27 ar  
    30   17   18 2   
    31   17   36 1   
    32   18   19 1   
    33   18   26 1   
    34   20   21 ar  
    35   20   26 ar  
    36   21   22 ar  
    37   21   37 1   
    38   22   23 ar  
    39   22   38 1   
    40   23   25 ar  
    41   24   39 1   
    42   25   26 ar  
    43   27   28 ar  
    44   27   40 1   
    45   28   41 1   
@<TRIPOS>SUBSTRUCTURE
     1 46K         1 TEMP              0 ****  ****    0 ROOT
