@<TRIPOS>MOLECULE
46K
   42    45     1     0     0
SMALL
bcc


@<TRIPOS>ATOM
      1 C1         -6.8220    0.2780    2.8110 c3        1 46K     -0.177100
      2 N1         -5.7640   -0.7000    0.7840 n         1 46K     -0.676300
      3 O1         -5.7820    1.5690    1.0630 o         1 46K     -0.582100
      4 S1         -5.0900   -0.8300   -0.7250 sy        1 46K      1.519900
      5 C2         -6.0930    0.4490    1.5040 c         1 46K      0.693100
      6 N2          0.3960    1.2600   -0.1870 nh        1 46K     -0.622400
      7 O2         -5.7920   -0.0480   -1.6500 o         1 46K     -0.643800
      8 S2          3.5410   -2.3400   -0.1400 ss        1 46K     -0.086100
      9 C3         -3.5400   -0.2480   -0.5270 ca        1 46K     -0.441500
     10 N3          4.4900    2.6910    0.1850 n         1 46K     -0.468100
     11 O3         -5.0330   -2.2200   -0.9870 o         1 46K     -0.643800
     12 C4         -3.2760    1.1300   -0.5150 ca        1 46K      0.032500
     13 N4          6.1180   -2.6350    0.0340 nc        1 46K     -0.505100
     14 O4          2.2910    3.5000    0.0610 o         1 46K     -0.639500
     15 C5         -1.9850    1.6200   -0.4050 ca        1 46K     -0.214000
     16 C6         -0.8870    0.7260   -0.3000 ca        1 46K      0.230600
     17 C7          1.5550    0.5300   -0.1380 c2        1 46K      0.184000
     18 C8          2.7900    1.0870   -0.0210 cc        1 46K     -0.246400
     19 C9          3.0900    2.5490    0.0730 c         1 46K      0.721700
     20 C10         5.0940    1.4230    0.1640 ca        1 46K      0.070600
     21 C11         6.4520    1.0940    0.2460 ca        1 46K     -0.162000
     22 C12         6.8280   -0.2450    0.2060 ca        1 46K     -0.040000
     23 C13         5.8560   -1.2510    0.0850 ca        1 46K      0.049400
     24 C14         4.9910   -3.2940   -0.0820 cd        1 46K      0.367100
     25 C15         4.4540   -0.9180   -0.0010 ca        1 46K     -0.034100
     26 C16         4.0790    0.4090    0.0390 ca        1 46K     -0.046800
     27 C17        -1.1500   -0.6650   -0.3080 ca        1 46K     -0.214000
     28 C18        -2.4530   -1.1250   -0.4200 ca        1 46K      0.032500
     29 HN3         4.9760    3.5450    0.2540 hn        1 46K      0.345500
     30 H1         -7.8080   -0.2200    2.6420 hc        1 46K      0.073367
     31 H1A        -6.2170   -0.3380    3.5180 hc        1 46K      0.073367
     32 H1B        -6.9970    1.2860    3.2620 hc        1 46K      0.073367
     33 HN1        -6.0060   -1.5490    1.2500 hn        1 46K      0.333500
     34 H4         -4.1230    1.8400   -0.5910 ha        1 46K      0.169000
     35 H5         -1.8210    2.7090   -0.4010 ha        1 46K      0.148500
     36 H7          1.4630   -0.5750   -0.2010 h4        1 46K      0.163000
     37 H11         7.2150    1.8790    0.3410 ha        1 46K      0.146000
     38 H12         7.8930   -0.5190    0.2700 ha        1 46K      0.156000
     39 H14         4.9530   -4.3860   -0.1410 h5        1 46K      0.064800
     40 H17        -0.3370   -1.4010   -0.2270 ha        1 46K      0.148500
     41 H18        -2.6400   -2.2160   -0.4390 ha        1 46K      0.169000
     42 HN2         0.4720    2.2620   -0.1530 hn        1 46K      0.479800
@<TRIPOS>BOND
     1    1    5 1   
     2    1   30 1   
     3    1   31 1   
     4    1   32 1   
     5    2    4 1   
     6    2    5 1   
     7    2   33 1   
     8    3    5 2   
     9    4    7 2   
    10    4    9 1   
    11    4   11 2   
    12    6   16 1   
    13    6   17 1   
    14    6   42 1   
    15    8   24 1   
    16    8   25 1   
    17    9   12 ar  
    18    9   28 ar  
    19   10   19 1   
    20   10   20 1   
    21   10   29 1   
    22   12   15 ar  
    23   12   34 1   
    24   13   23 1   
    25   13   24 2   
    26   14   19 2   
    27   15   16 ar  
    28   15   35 1   
    29   16   27 ar  
    30   17   18 2   
    31   17   36 1   
    32   18   19 1   
    33   18   26 1   
    34   20   21 ar  
    35   20   26 ar  
    36   21   22 ar  
    37   21   37 1   
    38   22   23 ar  
    39   22   38 1   
    40   23   25 ar  
    41   24   39 1   
    42   25   26 ar  
    43   27   28 ar  
    44   27   40 1   
    45   28   41 1   
@<TRIPOS>SUBSTRUCTURE
     1 46K         1 TEMP              0 ****  ****    0 ROOT
