@<TRIPOS>MOLECULE
46K
   44    47     1     0     0
SMALL
bcc


@<TRIPOS>ATOM
      1 C1         -0.1130    0.2940   -0.3540 c3        1 46K     -0.191100
      2 N1          1.8570    1.1670    1.0110 n4        1 46K     -0.635700
      3 O1          0.9090    2.5010   -0.6110 o         1 46K     -0.430100
      4 S1          3.4300    0.2700    0.4300 sy        1 46K      1.464200
      5 C2          0.8300    1.4090   -0.0670 c         1 46K      0.571100
      6 N2          7.3540    4.6200   -0.3930 n4        1 46K     -0.527200
      7 O2          3.0110   -0.2740   -0.7630 o         1 46K     -0.543800
      8 S2          6.8270    8.4490    2.6180 ss        1 46K     -0.056100
      9 C3          4.4240    1.5600    0.2480 ca        1 46K     -0.468500
     10 N3          5.8880    8.1850   -2.4330 n         1 46K     -0.432100
     11 O3          3.7170   -0.4760    1.5500 o         1 46K     -0.543800
     12 C4          4.4790    2.2690   -0.9660 ca        1 46K      0.027000
     13 N4          6.1620   10.9540    2.4040 nc        1 46K     -0.467100
     14 O4          6.3940    5.8970   -2.7490 o         1 46K     -0.637500
     15 C5          5.4130    3.2820   -1.1760 ca        1 46K     -0.121000
     16 C6          6.3240    3.5950   -0.1520 ca        1 46K      0.082600
     17 C7          7.0230    5.9150    0.1960 c2        1 46K     -0.146000
     18 C8          6.5820    6.9560   -0.5380 cc        1 46K      0.021600
     19 C9          6.2940    6.9160   -2.0440 c         1 46K      0.698700
     20 C10         5.8950    9.0480   -1.3110 ca        1 46K      0.110600
     21 C11         5.5730   10.4030   -1.2620 ca        1 46K     -0.157000
     22 C12         5.6500   11.0680   -0.0350 ca        1 46K      0.040000
     23 C13         6.0460   10.3800    1.1230 ca        1 46K      0.048400
     24 C14         6.5610   10.0550    3.2640 cd        1 46K      0.407100
     25 C15         6.3830    8.9740    1.0820 ca        1 46K     -0.008100
     26 C16         6.3040    8.3150   -0.1350 ca        1 46K     -0.154800
     27 C17         6.2770    2.9180    1.0790 ca        1 46K     -0.121000
     28 C18         5.3330    1.9130    1.2640 ca        1 46K      0.027000
     29 HN3         5.6860    8.4660   -3.3630 hn        1 46K      0.382500
     30 H1         -0.5670   -0.1280    0.5780 hc        1 46K      0.125367
     31 H1A         0.4260   -0.5200   -0.9100 hc        1 46K      0.125367
     32 H1B        -0.9380    0.6850   -1.0110 hc        1 46K      0.125367
     33 HN1         1.4200    0.6080    1.7480 hn        1 46K      0.465300
     34 H4          3.7830    2.0120   -1.7910 ha        1 46K      0.196500
     35 H5          5.4290    3.8180   -2.1480 ha        1 46K      0.202000
     36 H7          7.1920    5.9700    1.2880 hx        1 46K      0.208000
     37 H11         5.2660   10.9520   -2.1670 ha        1 46K      0.180000
     38 H12         5.4020   12.1440    0.0230 ha        1 46K      0.193000
     39 H14         6.7280   10.2740    4.3270 h5        1 46K      0.095800
     40 H17         6.9790    3.1570    1.8990 ha        1 46K      0.202000
     41 H18         5.3220    1.3630    2.2290 ha        1 46K      0.196500
     42 HN2         8.2440    4.3000    0.0180 hn        1 46K      0.487800
     43 H121        2.1020    2.0670    1.4240 hn        1 46K      0.465300
     44 H22         7.4780    4.7240   -1.4240 hn        1 46K      0.487800
@<TRIPOS>BOND
     1    1    5 1   
     2    1   30 1   
     3    1   31 1   
     4    1   32 1   
     5    2    4 1   
     6    2    5 1   
     7    2   33 1   
     8    2   43 1   
     9    3    5 2   
    10    4    7 2   
    11    4    9 1   
    12    4   11 2   
    13    6   16 1   
    14    6   17 1   
    15    6   42 1   
    16    6   44 1   
    17    8   24 1   
    18    8   25 1   
    19    9   12 ar  
    20    9   28 ar  
    21   10   19 1   
    22   10   20 1   
    23   10   29 1   
    24   12   15 ar  
    25   12   34 1   
    26   13   23 1   
    27   13   24 2   
    28   14   19 2   
    29   15   16 ar  
    30   15   35 1   
    31   16   27 ar  
    32   17   18 2   
    33   17   36 1   
    34   18   19 1   
    35   18   26 1   
    36   20   21 ar  
    37   20   26 ar  
    38   21   22 ar  
    39   21   37 1   
    40   22   23 ar  
    41   22   38 1   
    42   23   25 ar  
    43   24   39 1   
    44   25   26 ar  
    45   27   28 ar  
    46   27   40 1   
    47   28   41 1   
@<TRIPOS>SUBSTRUCTURE
     1 46K         1 TEMP              0 ****  ****    0 ROOT
