@<TRIPOS>MOLECULE
46M
   30    31     1     0     0
SMALL
bcc


@<TRIPOS>ATOM
      1 O3         -1.2620   -2.5100    0.2940 oh        1 46M     -0.617800
      2 C3         -1.3500   -1.2000    0.8300 c3        1 46M      0.125100
      3 C4         -0.2160   -0.3070    0.3330 c3        1 46M      0.064100
      4 O4          1.0150   -0.7680    0.8780 os        1 46M     -0.435600
      5 C7          2.1310   -0.0450    0.3300 c3        1 46M      0.200600
      6 C9          2.2420   -0.1720   -1.2270 c         1 46M      0.898600
      7 O7          1.6160   -1.1250   -1.7690 o         1 46M     -0.813300
      8 O8          2.9560    0.6690   -1.8260 o         1 46M     -0.813300
      9 C8          3.3800   -0.5850    1.0100 c3        1 46M     -0.067100
     10 O6          1.9480    1.2930    0.8020 os        1 46M     -0.431600
     11 C6          0.7880    1.9330    0.2850 c3        1 46M      0.146400
     12 C5         -0.4290    1.1440    0.7840 c3        1 46M      0.081100
     13 O5         -1.6290    1.6590    0.2180 os        1 46M     -0.438600
     14 C1         -2.7710    0.9190    0.6500 c3        1 46M      0.320900
     15 O1         -3.8020    1.5300   -0.0740 oh        1 46M     -0.592800
     16 C2         -2.6900   -0.6000    0.3660 c3        1 46M      0.084100
     17 O2         -2.9510   -0.8110   -1.0100 oh        1 46M     -0.606800
     18 HO3        -0.3620   -2.6190   -0.0510 ho        1 46M      0.446000
     19 H3         -1.3360   -1.2820    1.9510 h1        1 46M      0.054700
     20 H4         -0.1750   -0.3540   -0.7970 h1        1 46M      0.109700
     21 H81         3.3350   -0.4190    2.1110 hc        1 46M      0.043367
     22 H82         3.4580   -1.6770    0.7990 hc        1 46M      0.043367
     23 H83         4.2630   -0.0520    0.5840 hc        1 46M      0.043367
     24 H61         0.8110    2.9670    0.7100 h1        1 46M      0.063700
     25 H62         0.8170    1.9610   -0.8360 h1        1 46M      0.063700
     26 H5         -0.4880    1.2020    1.9060 h1        1 46M      0.042700
     27 H1         -2.9760    1.1140    1.7390 h2        1 46M      0.061700
     28 HO1        -3.6410    1.3440   -1.0110 ho        1 46M      0.429000
     29 H2         -3.5390   -1.1040    0.9090 h1        1 46M      0.066700
     30 HO2        -2.1340   -1.1220   -1.4260 ho        1 46M      0.430000
@<TRIPOS>BOND
     1    1    2 1   
     2    1   18 1   
     3    2    3 1   
     4    2   16 1   
     5    2   19 1   
     6    3    4 1   
     7    3   12 1   
     8    3   20 1   
     9    4    5 1   
    10    5    6 1   
    11    5    9 1   
    12    5   10 1   
    13    6    7 1   
    14    6    8 1   
    15    9   21 1   
    16    9   22 1   
    17    9   23 1   
    18   10   11 1   
    19   11   12 1   
    20   11   24 1   
    21   11   25 1   
    22   12   13 1   
    23   12   26 1   
    24   13   14 1   
    25   14   15 1   
    26   14   16 1   
    27   14   27 1   
    28   15   28 1   
    29   16   17 1   
    30   16   29 1   
    31   17   30 1   
@<TRIPOS>SUBSTRUCTURE
     1 46M         1 TEMP              0 ****  ****    0 ROOT
