@<TRIPOS>MOLECULE
46M
   30    31     1     0     0
SMALL
bcc


@<TRIPOS>ATOM
      1 O3         -2.2210    0.0660   -1.5800 oh        1 46M     -0.591800
      2 C3         -0.8080    0.0660   -1.5800 c3        1 46M      0.168100
      3 C4         -0.3170    0.0660   -0.1550 c3        1 46M      0.080100
      4 O4         -0.7900    1.2320    0.5660 os        1 46M     -0.422600
      5 C7         -0.3120    1.2690    2.0220 c3        1 46M      0.198600
      6 C9         -1.0050    0.3080    2.8250 c         1 46M      0.897600
      7 O7         -0.4190   -0.2390    3.8010 o         1 46M     -0.812800
      8 O8         -2.2230    0.0620    2.6020 o         1 46M     -0.812800
      9 C8         -0.7160    2.5800    2.7130 c3        1 46M     -0.066100
     10 O6          1.2030    1.0850    2.0600 os        1 46M     -0.432600
     11 C6          1.6760   -0.0940    1.2960 c3        1 46M      0.145400
     12 C5          1.1800   -0.0910   -0.0630 c3        1 46M      0.079100
     13 O5          1.6830   -1.2960   -0.8230 os        1 46M     -0.442600
     14 C1          1.1990   -1.3190   -2.2530 c3        1 46M      0.316900
     15 O1          1.5560   -2.5150   -2.8240 oh        1 46M     -0.624800
     16 C2         -0.3090   -1.1610   -2.3560 c3        1 46M      0.061100
     17 O2         -0.9480   -2.3170   -1.8460 oh        1 46M     -0.583800
     18 HO3        -2.5170    0.7220   -2.1010 ho        1 46M      0.434000
     19 H3         -0.4900    0.8750   -2.0260 h1        1 46M      0.067700
     20 H4         -0.7100   -0.7140    0.2790 h1        1 46M      0.117700
     21 H81        -0.2470    3.3260    2.2950 hc        1 46M      0.042033
     22 H82        -0.4790    2.5350    3.6590 hc        1 46M      0.042033
     23 H83        -1.6790    2.7100    2.6250 hc        1 46M      0.042033
     24 H61         1.3700   -0.9060    1.7430 h1        1 46M      0.064200
     25 H62         2.6520   -0.0900    1.2770 h1        1 46M      0.064200
     26 H5          1.5670    0.6930   -0.4980 h1        1 46M      0.039700
     27 H1          1.6280   -0.5920   -2.7440 h2        1 46M      0.057700
     28 HO1         2.3940   -2.4660   -3.1130 ho        1 46M      0.433000
     29 H2         -0.5500   -1.0580   -3.2970 h1        1 46M      0.037700
     30 HO2        -1.3680   -2.7380   -2.5050 ho        1 46M      0.402000
@<TRIPOS>BOND
     1    1    2 1   
     2    1   18 1   
     3    2    3 1   
     4    2   16 1   
     5    2   19 1   
     6    3    4 1   
     7    3   12 1   
     8    3   20 1   
     9    4    5 1   
    10    5    6 1   
    11    5    9 1   
    12    5   10 1   
    13    6    7 1   
    14    6    8 1   
    15    9   21 1   
    16    9   22 1   
    17    9   23 1   
    18   10   11 1   
    19   11   12 1   
    20   11   24 1   
    21   11   25 1   
    22   12   13 1   
    23   12   26 1   
    24   13   14 1   
    25   14   15 1   
    26   14   16 1   
    27   14   27 1   
    28   15   28 1   
    29   16   17 1   
    30   16   29 1   
    31   17   30 1   
@<TRIPOS>SUBSTRUCTURE
     1 46M         1 TEMP              0 ****  ****    0 ROOT
