@<TRIPOS>MOLECULE
46U
   58    60     1     0     0
SMALL
bcc


@<TRIPOS>ATOM
      1 O32         1.2860    0.2860    0.8070 o         1 46U     -0.588100
      2 C14         1.9380    1.1110    0.1410 c         1 46U      0.664100
      3 C5          3.4290    0.9440   -0.1300 c3        1 46U      0.067400
      4 O21         3.7200   -0.4320    0.0600 os        1 46U     -0.393600
      5 C44         5.1240   -0.7210   -0.0250 c3        1 46U      0.141100
      6 C49         5.2100   -2.2120   -0.3420 c3        1 46U     -0.091400
      7 C48         6.6520   -2.6700   -0.3510 c3        1 46U     -0.075400
      8 C47         7.3440   -2.3500    0.9580 c3        1 46U     -0.079400
      9 C46         7.2510   -0.8730    1.2810 c3        1 46U     -0.075400
     10 C45         5.8140   -0.3990    1.2970 c3        1 46U     -0.091400
     11 N1          1.3140    2.2200   -0.4130 n         1 46U     -0.468800
     12 C1         -0.0530    2.5850   -0.0620 c3        1 46U      0.032700
     13 C7         -1.1070    1.8850   -0.9530 c         1 46U      0.652100
     14 O22        -1.9360    2.5440   -1.6130 o         1 46U     -0.625100
     15 C2         -0.1570    4.1210   -0.1870 c3        1 46U     -0.088400
     16 C3          1.1420    4.5930   -0.8310 c3        1 46U     -0.090400
     17 C4          2.0490    3.3560   -0.9380 c3        1 46U      0.088000
     18 N23        -1.0830    0.5090   -0.9810 n         1 46U     -0.549900
     19 C24        -2.0820   -0.2560   -1.6780 c3        1 46U      0.131300
     20 C25        -3.2890   -0.6180   -0.8570 ca        1 46U     -0.108300
     21 C30        -3.4870   -1.9320   -0.4250 ca        1 46U     -0.124000
     22 C29        -4.6250   -2.2650    0.3090 ca        1 46U     -0.104000
     23 C28        -5.5690   -1.2800    0.6160 ca        1 46U     -0.139900
     24 C21        -6.7950   -1.6320    1.4010 ce        1 46U      0.650800
     25 N46        -7.0860   -0.9210    2.4490 n2        1 46U     -0.825100
     26 N47        -7.4760   -2.7780    0.9300 nh        1 46U     -0.958800
     27 C27        -5.3660    0.0400    0.1990 ca        1 46U     -0.104000
     28 C26        -4.2300    0.3670   -0.5380 ca        1 46U     -0.124000
     29 H5          3.6910    1.2430   -1.1810 h1        1 46U      0.050700
     30 H5A         4.0010    1.5780    0.5990 h1        1 46U      0.050700
     31 H44         5.5880   -0.1230   -0.8570 h1        1 46U      0.035700
     32 H49         4.6250   -2.7820    0.4260 hc        1 46U      0.053950
     33 H49A        4.7350   -2.4050   -1.3380 hc        1 46U      0.053950
     34 H48         6.6870   -3.7760   -0.5340 hc        1 46U      0.040950
     35 H48A        7.2000   -2.1720   -1.1950 hc        1 46U      0.040950
     36 H47         6.8710   -2.9430    1.7850 hc        1 46U      0.043700
     37 H47A        8.4210   -2.6540    0.8980 hc        1 46U      0.043700
     38 H46         7.7180   -0.6770    2.2810 hc        1 46U      0.040950
     39 H46A        7.8310   -0.2870    0.5190 hc        1 46U      0.040950
     40 H45         5.7820    0.7050    1.4830 hc        1 46U      0.053950
     41 H45A        5.2520   -0.8980    2.1300 hc        1 46U      0.053950
     42 H1         -0.2700    2.2620    1.0010 h1        1 46U      0.085700
     43 H2         -1.0430    4.4110   -0.8060 hc        1 46U      0.075700
     44 H2A        -0.2820    4.5670    0.8310 hc        1 46U      0.075700
     45 H3          0.9500    5.0170   -1.8470 hc        1 46U      0.056700
     46 H3A         1.6330    5.3840   -0.2140 hc        1 46U      0.056700
     47 H4          3.0020    3.5140   -0.3600 h1        1 46U      0.044200
     48 H4A         2.3200    3.1530   -2.0110 h1        1 46U      0.044200
     49 HN23       -0.5220    0.0240   -0.3140 hn        1 46U      0.339500
     50 H24        -2.4290    0.3410   -2.5730 h1        1 46U      0.066700
     51 H24A       -1.5860   -1.1990   -2.0490 h1        1 46U      0.066700
     52 H30        -2.7430   -2.7080   -0.6590 ha        1 46U      0.146000
     53 H29        -4.7680   -3.3000    0.6560 ha        1 46U      0.145500
     54 HN46       -7.9100   -1.1820    2.9480 hn        1 46U      0.380400
     55 HN47       -7.2790   -3.0320   -0.0100 hn        1 46U      0.397300
     56 HN4A       -8.4320   -2.8650    1.1840 hn        1 46U      0.397300
     57 H27        -6.0970    0.8200    0.4610 ha        1 46U      0.145500
     58 H26        -4.0600    1.4040   -0.8730 ha        1 46U      0.146000
@<TRIPOS>BOND
     1    1    2 2   
     2    2    3 1   
     3    2   11 1   
     4    3    4 1   
     5    3   29 1   
     6    3   30 1   
     7    4    5 1   
     8    5    6 1   
     9    5   10 1   
    10    5   31 1   
    11    6    7 1   
    12    6   32 1   
    13    6   33 1   
    14    7    8 1   
    15    7   34 1   
    16    7   35 1   
    17    8    9 1   
    18    8   36 1   
    19    8   37 1   
    20    9   10 1   
    21    9   38 1   
    22    9   39 1   
    23   10   40 1   
    24   10   41 1   
    25   11   12 1   
    26   11   17 1   
    27   12   13 1   
    28   12   15 1   
    29   12   42 1   
    30   13   14 2   
    31   13   18 1   
    32   15   16 1   
    33   15   43 1   
    34   15   44 1   
    35   16   17 1   
    36   16   45 1   
    37   16   46 1   
    38   17   47 1   
    39   17   48 1   
    40   18   19 1   
    41   18   49 1   
    42   19   20 1   
    43   19   50 1   
    44   19   51 1   
    45   20   21 ar  
    46   20   28 ar  
    47   21   22 ar  
    48   21   52 1   
    49   22   23 ar  
    50   22   53 1   
    51   23   24 1   
    52   23   27 ar  
    53   24   25 2   
    54   24   26 1   
    55   25   54 1   
    56   26   55 1   
    57   26   56 1   
    58   27   28 ar  
    59   27   57 1   
    60   28   58 1   
@<TRIPOS>SUBSTRUCTURE
     1 46U         1 TEMP              0 ****  ****    0 ROOT
