@<TRIPOS>MOLECULE
46U
   58    55     1     0     0
SMALL
bcc


@<TRIPOS>ATOM
      1 O32        -0.2790    0.6850    1.2760 o         1 46U     -0.399000
      2 C14         0.9420    0.6230    1.2450 c1        1 46U      0.310000
      3 C5          1.7450    0.6960    2.5510 c2        1 46U     -0.034000
      4 O21         1.9070   -0.6370    3.0960 os        1 46U     -0.276000
      5 C44         2.2110   -0.6600    4.4990 c3        1 46U      0.033000
      6 C49         3.6000   -0.1040    4.7070 c3        1 46U     -0.168000
      7 C48         4.6820   -1.0240    4.1650 c3        1 46U     -0.152500
      8 C47         4.5440   -2.4480    4.6790 c3        1 46U     -0.156000
      9 C46         3.1520   -3.0060    4.4710 c3        1 46U     -0.152500
     10 C45         2.0730   -2.0880    5.0130 c3        1 46U     -0.168000
     11 N1          1.6330    0.6440   -0.0280 n3        1 46U     -0.305000
     12 C1          0.9680    0.7430   -1.4700 c3        1 46U      0.008000
     13 C7          0.1640   -0.5120   -1.8870 c2        1 46U      0.296000
     14 O22         0.5490   -1.6290   -1.5510 o         1 46U     -0.380000
     15 C2          2.0410    1.0020   -2.2510 c3        1 46U     -0.166000
     16 C3          3.3170    0.3690   -1.5160 c3        1 46U     -0.172000
     17 C4          3.1600    0.5750   -0.2530 c3        1 46U     -0.021000
     18 N23        -1.0430   -0.3690   -2.6790 n         1 46U     -0.363000
     19 C24        -2.2820   -0.8810   -2.1890 c3        1 46U      0.004000
     20 C25        -3.4530   -0.0910   -2.8250 c2        1 46U     -0.095000
     21 C30        -3.3720    1.2890   -2.9470 c2        1 46U     -0.121000
     22 C29        -4.4660    2.0140   -3.4200 c1        1 46U     -0.105000
     23 C28        -5.6400    1.3520   -3.7700 c1        1 46U     -0.103000
     24 C21        -6.8430    2.1550   -4.3470 c1        1 46U      0.119000
     25 N46        -7.7170    2.7310   -3.5210 n1        1 46U     -0.306000
     26 N47        -7.0110    2.2740   -5.7590 n3        1 46U     -0.334000
     27 C27        -5.7200   -0.0250   -3.6490 c1        1 46U     -0.117000
     28 C26        -4.6230   -0.7510   -3.1740 c1        1 46U     -0.113000
     29 H5          1.2640    1.2600    3.2000 h4        1 46U      0.100500
     30 H5A         2.6240    1.0830    2.3710 h4        1 46U      0.100500
     31 H44         1.5730   -0.0960    4.9680 h1        1 46U      0.080000
     32 H49         3.6650    0.7560    4.2580 hc        1 46U      0.089250
     33 H49A        3.7480    0.0270    5.6640 hc        1 46U      0.089250
     34 H48         5.5580   -0.6750    4.4310 hc        1 46U      0.084000
     35 H48A        4.6290   -1.0340    3.1910 hc        1 46U      0.084000
     36 H47         5.1860   -3.0150    4.2090 hc        1 46U      0.080000
     37 H47A        4.7530   -2.4610    5.6440 hc        1 46U      0.080000
     38 H46         3.0880   -3.8710    4.9220 hc        1 46U      0.084000
     39 H46A        3.0040   -3.1380    3.5170 hc        1 46U      0.084000
     40 H45         2.1260   -2.0780    5.9890 hc        1 46U      0.089250
     41 H45A        1.1950   -2.4370    4.7460 hc        1 46U      0.089250
     42 H1          0.2920    1.4420   -1.5220 h1        1 46U      0.123000
     43 H2          1.9220    0.5840   -3.1370 hc        1 46U      0.113500
     44 H2A         2.1560    1.9620   -2.3490 hc        1 46U      0.113500
     45 H3          4.1430    0.8120   -1.8310 hc        1 46U      0.095000
     46 H3A         3.3640   -0.5940   -1.6950 hc        1 46U      0.095000
     47 H4          3.5810    1.4270    0.0070 h1        1 46U      0.097500
     48 H4A         3.5440   -0.1610    0.2590 h1        1 46U      0.097500
     49 HN23       -1.0290    0.1280   -3.4400 hn        1 46U      0.250000
     50 H24        -2.3590   -1.8300   -2.4260 h1        1 46U      0.109500
     51 H24A       -2.3130   -0.7840   -1.2200 h1        1 46U      0.109500
     52 H30        -2.5440    1.7570   -2.7010 ha        1 46U      0.141000
     53 H29        -4.4090    2.9820   -3.5050 ha        1 46U      0.144000
     54 HN46       -7.6100    2.6540   -2.6120 DU        1 46U      0.149000
     55 HN47       -7.7400    2.7190   -6.0980 hn        1 46U      0.195500
     56 HN4A       -6.4310    1.8510   -6.3240 hn        1 46U      0.195500
     57 H27        -6.5400   -0.4870   -3.8930 ha        1 46U      0.132000
     58 H26        -4.6800   -1.7140   -3.0900 ha        1 46U      0.143000
@<TRIPOS>BOND
     1    1    2 1   
     2    2   11 1   
     3    3    4 1   
     4    3   29 1   
     5    3   30 1   
     6    4    5 1   
     7    5    6 1   
     8    5   10 1   
     9    5   31 1   
    10    6    7 1   
    11    6   32 1   
    12    6   33 1   
    13    7    8 1   
    14    7   34 1   
    15    7   35 1   
    16    8    9 1   
    17    8   36 1   
    18    8   37 1   
    19    9   10 1   
    20    9   38 1   
    21    9   39 1   
    22   10   40 1   
    23   10   41 1   
    24   11   12 1   
    25   11   17 1   
    26   12   13 1   
    27   12   15 1   
    28   12   42 1   
    29   13   14 1   
    30   13   18 1   
    31   15   16 1   
    32   15   43 1   
    33   15   44 1   
    34   16   17 1   
    35   16   45 1   
    36   16   46 1   
    37   17   47 1   
    38   17   48 1   
    39   18   19 1   
    40   18   49 1   
    41   19   20 1   
    42   19   50 1   
    43   19   51 1   
    44   20   21 1   
    45   20   28 1   
    46   21   22 1   
    47   21   52 1   
    48   22   53 1   
    49   23   27 1   
    50   24   25 1   
    51   24   26 1   
    52   26   55 1   
    53   26   56 1   
    54   27   57 1   
    55   28   58 1   
@<TRIPOS>SUBSTRUCTURE
     1 46U         1 TEMP              0 ****  ****    0 ROOT
