@<TRIPOS>MOLECULE
46Z
   36    33     1     0     0
SMALL
bcc


@<TRIPOS>ATOM
      1 O1         -4.1330   -4.3260    1.6010 oh        1 46Z     -0.354000
      2 P          -0.5560   -1.1790   -0.8060 p3        1 46Z      2.551000
      3 C1         -2.7720   -4.7170    1.4220 c3        1 46Z      0.136000
      4 C2         -2.1270   -4.5560    2.5000 c3        1 46Z      0.001000
      5 F2         -1.0390   -5.5750    2.6070 f         1 46Z     -0.169000
      6 C3         -1.5610   -3.2150    2.4030 c3        1 46Z     -0.030000
      7 O3         -2.2460   -2.3490    3.2400 oh        1 46Z     -0.355000
      8 C4         -1.7610   -2.7770    0.8860 c3        1 46Z      0.192000
      9 O4         -2.0690   -3.7820    0.3260 os        1 46Z     -0.306000
     10 O5         -0.4970   -2.2630    0.3290 o         1 46Z     -0.726000
     11 CAE         2.5060    5.8600   -1.5930 c1        1 46Z     -0.144250
     12 CAF         3.2550    5.0030   -2.3400 c1        1 46Z     -0.144250
     13 CAG         1.5400    5.3650   -0.7360 c1        1 46Z     -0.144250
     14 CAH         3.0460    3.6130   -2.2410 c1        1 46Z     -0.144250
     15 CAI         1.3330    3.9780   -0.6390 c1        1 46Z     -0.117000
     16 CAJ         0.9110    0.8940   -1.4900 c3        1 46Z      0.045000
     17 CAK         2.1910    1.6730   -0.9980 c3        1 46Z     -0.148000
     18 CAP         2.0860    3.1220   -1.3900 c1        1 46Z     -0.063000
     19 OP1        -0.8100   -1.8210   -2.0830 o         1 46Z     -1.151000
     20 OP2        -1.6960   -0.1750   -0.4990 o         1 46Z     -1.151000
     21 OP3         0.8750   -0.3880   -0.8750 os        1 46Z     -0.732000
     22 HO1        -4.6190   -4.9260    1.3540 ho        1 46Z      0.217000
     23 H1         -2.7230   -5.6870    1.1320 h2        1 46Z      0.132000
     24 H2         -2.7640   -4.6210    3.3090 h1        1 46Z      0.120000
     25 H3         -0.5510   -3.2290    2.6450 h1        1 46Z      0.118000
     26 HO3        -1.7070   -1.9530    3.7320 ho        1 46Z      0.263000
     27 H4         -2.4520   -2.1260    0.8150 h2        1 46Z      0.106000
     28 HAE         2.6650    6.8740   -1.6590 ha        1 46Z      0.116500
     29 HAF         3.9910    5.3540   -2.9100 ha        1 46Z      0.116500
     30 HAG         1.0110    5.9270   -0.2860 ha        1 46Z      0.116500
     31 HAH         3.6100    2.9920   -2.7590 ha        1 46Z      0.116500
     32 HAI         0.7790    3.9310    0.1790 ha        1 46Z      0.206000
     33 HAJ         0.0880    1.4080   -1.2380 h1        1 46Z      0.074000
     34 HAJA        0.9470    0.7860   -2.5000 h1        1 46Z      0.074000
     35 HAK         2.2590    1.6030   -0.0290 hc        1 46Z      0.088500
     36 HAKA        2.9910    1.2800   -1.4120 hc        1 46Z      0.088500
@<TRIPOS>BOND
     1    1    3 1   
     2    1   22 1   
     3    2   19 1   
     4    2   20 1   
     5    2   21 1   
     6    3    4 1   
     7    3    9 1   
     8    3   23 1   
     9    4    5 1   
    10    4    6 1   
    11    4   24 1   
    12    6    7 1   
    13    6    8 1   
    14    6   25 1   
    15    7   26 1   
    16    8    9 1   
    17    8   10 1   
    18    8   27 1   
    19   11   13 1   
    20   11   28 1   
    21   12   14 1   
    22   12   29 1   
    23   13   30 1   
    24   14   31 1   
    25   15   18 1   
    26   15   32 1   
    27   16   17 1   
    28   16   21 1   
    29   16   33 1   
    30   16   34 1   
    31   17   18 1   
    32   17   35 1   
    33   17   36 1   
@<TRIPOS>SUBSTRUCTURE
     1 46Z         1 TEMP              0 ****  ****    0 ROOT
