@<TRIPOS>MOLECULE
46Z
   36    37     1     0     0
SMALL
bcc


@<TRIPOS>ATOM
      1 O1         -3.9860    2.4080   -1.1860 oh        1 46Z     -0.627800
      2 P          -0.3730   -0.7480    2.0970 p5        1 46Z      1.438800
      3 C1         -2.9280    1.4950   -1.3440 c3        1 46Z      0.318900
      4 C2         -3.4520    0.0440   -1.5760 c3        1 46Z      0.110600
      5 F2         -3.1460   -0.4020   -2.8480 f         1 46Z     -0.240300
      6 C3         -2.7580   -0.7910   -0.4760 c3        1 46Z      0.082100
      7 O3         -3.7380   -1.5660    0.1820 oh        1 46Z     -0.628800
      8 C4         -2.1300    0.2510    0.4950 c3        1 46Z      0.374900
      9 O4         -2.2250    1.5480   -0.1200 os        1 46Z     -0.450600
     10 O5         -0.7840    0.0710    0.6920 os        1 46Z     -0.564200
     11 CAE         6.1740    1.0590   -0.8410 ca        1 46Z     -0.151000
     12 CAF         5.9950   -0.2700   -1.2200 ca        1 46Z     -0.136000
     13 CAG         5.1200    1.7590   -0.2530 ca        1 46Z     -0.136000
     14 CAH         4.7680   -0.8990   -1.0130 ca        1 46Z     -0.130500
     15 CAI         3.8930    1.1340   -0.0460 ca        1 46Z     -0.130500
     16 CAJ         2.0720   -1.0200    1.2740 c3        1 46Z      0.189400
     17 CAK         2.3890   -0.8600   -0.2150 c3        1 46Z     -0.078100
     18 CAP         3.7050   -0.2030   -0.4240 ca        1 46Z     -0.053300
     19 OP1         0.2220    0.1930    3.0570 o         1 46Z     -0.826500
     20 OP2        -1.5580   -1.6090    2.2970 o         1 46Z     -0.826500
     21 OP3         0.8340   -1.6430    1.4380 os        1 46Z     -0.566200
     22 HO1        -4.2500    2.4010   -0.2560 ho        1 46Z      0.418000
     23 H1         -2.2880    1.8700   -2.1840 h2        1 46Z      0.092700
     24 H2         -4.5690    0.0140   -1.4450 h1        1 46Z      0.080700
     25 H3         -1.9680   -1.4550   -0.9160 h1        1 46Z      0.077700
     26 HO3        -3.3070   -1.9390    0.9740 ho        1 46Z      0.465000
     27 H4         -2.6980    0.2950    1.4690 h2        1 46Z      0.065700
     28 HAG         5.2580    2.8070    0.0500 ha        1 46Z      0.119000
     29 HAH         4.6310   -1.9480   -1.3120 ha        1 46Z      0.139000
     30 HAI         3.0600    1.6840    0.4210 ha        1 46Z      0.139000
     31 HAJ         2.8540   -1.6820    1.7440 h1        1 46Z      0.037700
     32 HAJA        2.0800   -0.0180    1.7880 h1        1 46Z      0.037700
     33 HAK         2.3670   -1.8710   -0.6990 hc        1 46Z      0.062700
     34 HAKA        1.5810   -0.2440   -0.6980 hc        1 46Z      0.062700
     35 HAE         7.1420    1.5530   -1.0040 ha        1 46Z      0.116000
     36 HAF         6.8230   -0.8260   -1.6830 ha        1 46Z      0.119000
@<TRIPOS>BOND
     1    1    3 1   
     2    1   22 1   
     3    2   10 1   
     4    2   19 1   
     5    2   20 1   
     6    2   21 1   
     7    3    4 1   
     8    3    9 1   
     9    3   23 1   
    10    4    5 1   
    11    4    6 1   
    12    4   24 1   
    13    6    7 1   
    14    6    8 1   
    15    6   25 1   
    16    7   26 1   
    17    8    9 1   
    18    8   10 1   
    19    8   27 1   
    20   11   12 ar  
    21   11   13 ar  
    22   11   35 1   
    23   12   14 ar  
    24   12   36 1   
    25   13   15 ar  
    26   13   28 1   
    27   14   18 ar  
    28   14   29 1   
    29   15   18 ar  
    30   15   30 1   
    31   16   17 1   
    32   16   21 1   
    33   16   31 1   
    34   16   32 1   
    35   17   18 1   
    36   17   33 1   
    37   17   34 1   
@<TRIPOS>SUBSTRUCTURE
     1 46Z         1 TEMP              0 ****  ****    0 ROOT
