@<TRIPOS>MOLECULE
470
   64    67     1     0     0
SMALL
bcc


@<TRIPOS>ATOM
      1 C1         -0.0070    0.8450    0.4890 c3        1 470     -0.093100
      2 N1          8.8030   -0.2250    3.3240 nu        1 470     -0.730600
      3 C2          1.4990    0.8210    0.5110 c3        1 470     -0.079400
      4 C3          2.0210   -0.2700    1.4250 c3        1 470     -0.051200
      5 C4          3.5000   -0.3110    1.4560 c2        1 470     -0.140200
      6 C5          4.2230   -1.2800    2.0490 ce        1 470     -0.089200
      7 C6          3.5890   -2.4340    2.7540 c3        1 470     -0.039200
      8 C7          3.2760   -3.5870    1.8190 c3        1 470     -0.078400
      9 C8          2.6290   -4.7300    2.5570 c3        1 470     -0.094100
     10 C9          5.6780   -1.2400    2.0520 ce        1 470     -0.049200
     11 C10         6.4870   -0.1860    2.3090 cf        1 470     -0.106400
     12 C11         6.1120    1.1750    2.6620 ca        1 470     -0.039800
     13 C12         5.9480    1.5320    4.0080 ca        1 470     -0.120000
     14 C13         5.6000    2.8370    4.3510 ca        1 470     -0.132500
     15 C14         5.4130    3.7980    3.3580 ca        1 470     -0.130000
     16 C15         5.5750    3.4500    2.0170 ca        1 470     -0.132500
     17 C16         5.9210    2.1450    1.6680 ca        1 470     -0.120000
     18 C17         7.9680   -0.5660    2.1880 c3        1 470      0.267400
     19 C18         8.5450    0.0650    0.8860 c3        1 470     -0.073400
     20 C19         9.3610   -1.0190    0.2070 c3        1 470     -0.077400
     21 C20         8.7630   -2.3530    0.6280 c3        1 470     -0.070400
     22 C21         7.9370   -2.1160    1.8860 c3        1 470     -0.069700
     23 C22         6.4580   -2.4870    1.7380 c3        1 470     -0.048200
     24 C23         8.5180   -0.5890    4.6450 ca        1 470      0.165600
     25 C24         9.3160   -0.0300    5.6800 ca        1 470     -0.196500
     26 C25         9.1480   -0.4310    6.9980 ca        1 470     -0.096000
     27 C26         8.1870   -1.3830    7.3380 ca        1 470     -0.178000
     28 C27         7.3850   -1.9250    6.3380 ca        1 470     -0.096000
     29 C28         7.5350   -1.5360    5.0110 ca        1 470     -0.196500
     30 H1         -0.4120   -0.1300    0.1230 hc        1 470      0.033367
     31 H1A        -0.4140    1.0300    1.5120 hc        1 470      0.033367
     32 H1B        -0.3720    1.6550   -0.1880 hc        1 470      0.033367
     33 H2          1.8900    0.6560   -0.5280 hc        1 470      0.041200
     34 H2A         1.8870    1.8150    0.8570 hc        1 470      0.041200
     35 H3          1.6150   -1.2630    1.0890 hc        1 470      0.051200
     36 H3A         1.6340   -0.0980    2.4680 hc        1 470      0.051200
     37 H4          4.0160    0.5340    0.9670 ha        1 470      0.130000
     38 H6          4.2690   -2.7950    3.5730 hc        1 470      0.047200
     39 H6A         2.6390   -2.0890    3.2450 hc        1 470      0.047200
     40 H7          2.5950   -3.2310    1.0010 hc        1 470      0.041700
     41 H7A         4.2230   -3.9380    1.3300 hc        1 470      0.041700
     42 H8          1.6720   -4.4030    3.0310 hc        1 470      0.033033
     43 H8A         2.4060   -5.5680    1.8540 hc        1 470      0.033033
     44 H8B         3.3040   -5.1130    3.3610 hc        1 470      0.033033
     45 H12         6.1020    0.7720    4.7910 ha        1 470      0.140000
     46 H13         5.4720    3.1070    5.4100 ha        1 470      0.131500
     47 H14         5.1390    4.8270    3.6300 ha        1 470      0.130000
     48 H15         5.4290    4.2050    1.2310 ha        1 470      0.131500
     49 H16         6.0440    1.8750    0.6090 ha        1 470      0.140000
     50 H18         7.6910    0.3760    0.2320 hc        1 470      0.050700
     51 H18A        9.1630    0.9760    1.0800 hc        1 470      0.050700
     52 H19        10.4300   -0.9560    0.5330 hc        1 470      0.044700
     53 H19A        9.3380   -0.8990   -0.9040 hc        1 470      0.044700
     54 H20         8.1300   -2.7690   -0.1960 hc        1 470      0.043200
     55 H20A        9.5730   -3.0980    0.8310 hc        1 470      0.043200
     56 H21         8.3820   -2.6920    2.7370 hc        1 470      0.075700
     57 H22         6.1820   -3.3120    2.4440 hc        1 470      0.057700
     58 H22A        6.2170   -2.8350    0.7010 hc        1 470      0.057700
     59 H24        10.0830    0.7220    5.4410 ha        1 470      0.135500
     60 H25         9.7830    0.0100    7.7820 ha        1 470      0.126500
     61 H26         8.0630   -1.6970    8.3830 ha        1 470      0.129000
     62 H27         6.6170   -2.6700    6.5950 ha        1 470      0.126500
     63 H28         6.8700   -1.9660    4.2460 ha        1 470      0.135500
     64 HN1         9.1900    0.6940    3.2510 hn        1 470      0.404800
@<TRIPOS>BOND
     1    1    3 1   
     2    1   30 1   
     3    1   31 1   
     4    1   32 1   
     5    2   18 1   
     6    2   24 1   
     7    2   64 1   
     8    3    4 1   
     9    3   33 1   
    10    3   34 1   
    11    4    5 1   
    12    4   35 1   
    13    4   36 1   
    14    5    6 2   
    15    5   37 1   
    16    6    7 1   
    17    6   10 1   
    18    7    8 1   
    19    7   38 1   
    20    7   39 1   
    21    8    9 1   
    22    8   40 1   
    23    8   41 1   
    24    9   42 1   
    25    9   43 1   
    26    9   44 1   
    27   10   11 2   
    28   10   23 1   
    29   11   12 1   
    30   11   18 1   
    31   12   13 ar  
    32   12   17 ar  
    33   13   14 ar  
    34   13   45 1   
    35   14   15 ar  
    36   14   46 1   
    37   15   16 ar  
    38   15   47 1   
    39   16   17 ar  
    40   16   48 1   
    41   17   49 1   
    42   18   19 1   
    43   18   22 1   
    44   19   20 1   
    45   19   50 1   
    46   19   51 1   
    47   20   21 1   
    48   20   52 1   
    49   20   53 1   
    50   21   22 1   
    51   21   54 1   
    52   21   55 1   
    53   22   23 1   
    54   22   56 1   
    55   23   57 1   
    56   23   58 1   
    57   24   25 ar  
    58   24   29 ar  
    59   25   26 ar  
    60   25   59 1   
    61   26   27 ar  
    62   26   60 1   
    63   27   28 ar  
    64   27   61 1   
    65   28   29 ar  
    66   28   62 1   
    67   29   63 1   
@<TRIPOS>SUBSTRUCTURE
     1 470         1 TEMP              0 ****  ****    0 ROOT
