@<TRIPOS>MOLECULE
470
   64    67     1     0     0
SMALL
bcc


@<TRIPOS>ATOM
      1 C1          6.3980   -1.4710    0.1990 c3        1 470     -0.093100
      2 N1         -2.7450    0.0220   -0.7830 nh        1 470     -0.730600
      3 C2          5.0350   -1.2740   -0.4110 c3        1 470     -0.079400
      4 C3          4.1840   -0.3420    0.4280 c3        1 470     -0.051200
      5 C4          2.8410   -0.1330   -0.1590 c2        1 470     -0.140200
      6 C5          1.9470    0.7700    0.2860 ce        1 470     -0.089200
      7 C6          2.2260    1.6690    1.4450 c3        1 470     -0.039200
      8 C7          2.9370    2.9450    1.0330 c3        1 470     -0.078400
      9 C8          3.2130    3.8260    2.2250 c3        1 470     -0.094100
     10 C9          0.6370    0.9030   -0.3350 ce        1 470     -0.049200
     11 C10        -0.2200   -0.0780   -0.7030 cf        1 470     -0.106400
     12 C11        -0.0580   -1.5180   -0.5610 ca        1 470     -0.039800
     13 C12        -0.5050   -2.1640    0.6000 ca        1 470     -0.120000
     14 C13        -0.3620   -3.5430    0.7360 ca        1 470     -0.132500
     15 C14         0.2240   -4.2920   -0.2840 ca        1 470     -0.130000
     16 C15         0.6700   -3.6560   -1.4420 ca        1 470     -0.132500
     17 C16         0.5330   -2.2760   -1.5820 ca        1 470     -0.120000
     18 C17        -1.4920    0.4900   -1.3420 c3        1 470      0.267400
     19 C18        -1.4500    0.2170   -2.8750 c3        1 470     -0.073400
     20 C19        -1.8690    1.5080   -3.5540 c3        1 470     -0.077400
     21 C20        -1.4950    2.6440   -2.6150 c3        1 470     -0.070400
     22 C21        -1.3070    2.0550   -1.2240 c3        1 470     -0.069700
     23 C22         0.0920    2.2710   -0.6400 c3        1 470     -0.048200
     24 C23        -3.0610    0.0660    0.5800 ca        1 470      0.165600
     25 C24        -4.2400   -0.5980    1.0150 ca        1 470     -0.196500
     26 C25        -4.6600   -0.5030    2.3350 ca        1 470     -0.096000
     27 C26        -3.9300    0.2360    3.2650 ca        1 470     -0.178000
     28 C27        -2.7630    0.8770    2.8580 ca        1 470     -0.096000
     29 C28        -2.3230    0.7930    1.5400 ca        1 470     -0.196500
     30 H1          7.0090   -2.1610   -0.4310 hc        1 470      0.033367
     31 H1A         6.9390   -0.4970    0.2810 hc        1 470      0.033367
     32 H1B         6.3130   -1.9110    1.2220 hc        1 470      0.033367
     33 H2          5.1410   -0.8530   -1.4450 hc        1 470      0.041200
     34 H2A         4.5190   -2.2660   -0.5080 hc        1 470      0.041200
     35 H3          4.0720   -0.7710    1.4630 hc        1 470      0.051200
     36 H3A         4.7120    0.6440    0.5410 hc        1 470      0.051200
     37 H4          2.5780   -0.7920   -1.0060 ha        1 470      0.130000
     38 H6          1.2630    1.9300    1.9600 hc        1 470      0.047200
     39 H6A         2.8610    1.1200    2.1940 hc        1 470      0.047200
     40 H7          3.9010    2.6890    0.5200 hc        1 470      0.041700
     41 H7A         2.3050    3.5000    0.2900 hc        1 470      0.041700
     42 H8          2.2610    4.1110    2.7340 hc        1 470      0.033033
     43 H8A         3.8600    3.2970    2.9650 hc        1 470      0.033033
     44 H8B         3.7340    4.7590    1.9030 hc        1 470      0.033033
     45 H12        -0.9740   -1.5710    1.4020 ha        1 470      0.140000
     46 H13        -0.7150   -4.0410    1.6510 ha        1 470      0.131500
     47 H14         0.3350   -5.3810   -0.1760 ha        1 470      0.130000
     48 H15         1.1340   -4.2430   -2.2480 ha        1 470      0.131500
     49 H16         0.8900   -1.7780   -2.4960 ha        1 470      0.140000
     50 H18        -0.4010   -0.0490   -3.1610 hc        1 470      0.050700
     51 H18A       -2.1050   -0.6340   -3.1840 hc        1 470      0.050700
     52 H19        -1.3650    1.6200   -4.5460 hc        1 470      0.044700
     53 H19A       -2.9740    1.5050   -3.7350 hc        1 470      0.044700
     54 H20        -0.5590    3.1460   -2.9700 hc        1 470      0.043200
     55 H20A       -2.3010    3.4210   -2.6020 hc        1 470      0.043200
     56 H21        -2.0710    2.4900   -0.5290 hc        1 470      0.075700
     57 H22         0.0450    2.8920    0.2900 hc        1 470      0.057700
     58 H22A        0.7690    2.7960   -1.3630 hc        1 470      0.057700
     59 H24        -4.8370   -1.1880    0.3030 ha        1 470      0.135500
     60 H25        -5.5800   -1.0200    2.6470 ha        1 470      0.126500
     61 H26        -4.2700    0.3090    4.3070 ha        1 470      0.129000
     62 H27        -2.1730    1.4560    3.5850 ha        1 470      0.126500
     63 H28        -1.3840    1.2920    1.2550 ha        1 470      0.135500
     64 HN1        -3.0750   -0.8090   -1.2300 hn        1 470      0.404800
@<TRIPOS>BOND
     1    1    3 1   
     2    1   30 1   
     3    1   31 1   
     4    1   32 1   
     5    2   18 1   
     6    2   24 1   
     7    2   64 1   
     8    3    4 1   
     9    3   33 1   
    10    3   34 1   
    11    4    5 1   
    12    4   35 1   
    13    4   36 1   
    14    5    6 2   
    15    5   37 1   
    16    6    7 1   
    17    6   10 1   
    18    7    8 1   
    19    7   38 1   
    20    7   39 1   
    21    8    9 1   
    22    8   40 1   
    23    8   41 1   
    24    9   42 1   
    25    9   43 1   
    26    9   44 1   
    27   10   11 2   
    28   10   23 1   
    29   11   12 1   
    30   11   18 1   
    31   12   13 ar  
    32   12   17 ar  
    33   13   14 ar  
    34   13   45 1   
    35   14   15 ar  
    36   14   46 1   
    37   15   16 ar  
    38   15   47 1   
    39   16   17 ar  
    40   16   48 1   
    41   17   49 1   
    42   18   19 1   
    43   18   22 1   
    44   19   20 1   
    45   19   50 1   
    46   19   51 1   
    47   20   21 1   
    48   20   52 1   
    49   20   53 1   
    50   21   22 1   
    51   21   54 1   
    52   21   55 1   
    53   22   23 1   
    54   22   56 1   
    55   23   57 1   
    56   23   58 1   
    57   24   25 ar  
    58   24   29 ar  
    59   25   26 ar  
    60   25   59 1   
    61   26   27 ar  
    62   26   60 1   
    63   27   28 ar  
    64   27   61 1   
    65   28   29 ar  
    66   28   62 1   
    67   29   63 1   
@<TRIPOS>SUBSTRUCTURE
     1 470         1 TEMP              0 ****  ****    0 ROOT
