@<TRIPOS>MOLECULE
470
   64    61     1     0     0
SMALL
bcc


@<TRIPOS>ATOM
      1 C1          0.4590    1.5930   -5.4710 c3        1 470     -0.212000
      2 N1          1.3110    1.2100    1.2290 n3        1 470     -0.279000
      3 C2          0.4410    0.2550   -4.7150 c3        1 470     -0.156000
      4 C3         -0.1330    0.4740   -3.2740 c3        1 470     -0.136000
      5 C4         -0.8560   -0.8420   -2.7910 c2        1 470     -0.148000
      6 C5         -1.2400   -0.9800   -1.4460 c1        1 470     -0.077000
      7 C6         -1.9550   -2.2780   -0.9680 c3        1 470     -0.122000
      8 C7         -2.6660   -2.9470   -2.1660 c3        1 470     -0.158000
      9 C8         -3.9300   -3.7120   -1.6640 c3        1 470     -0.211000
     10 C9         -0.9590    0.1560   -0.4430 c1        1 470     -0.035000
     11 C10        -0.0750   -0.1220    0.8560 c1        1 470     -0.102000
     12 C11         1.0500   -1.2500    0.8320 c2        1 470     -0.026000
     13 C12         0.8960   -2.3930    1.6000 c2        1 470     -0.120000
     14 C13         1.7910   -3.4430    1.4710 c1        1 470     -0.130000
     15 C14         2.8440   -3.3510    0.5710 c1        1 470     -0.131750
     16 C15         3.0000   -2.2090   -0.1970 c1        1 470     -0.131750
     17 C16         2.1040   -1.1580   -0.0690 c1        1 470     -0.125000
     18 C17        -0.0000    0.5640    1.3950 c2        1 470      0.103000
     19 C18        -0.1130    0.3950    2.1150 c3        1 470     -0.183000
     20 C19        -1.7210    0.6050    2.4130 c3        1 470     -0.154000
     21 C20        -2.0110    1.5340    1.8580 c3        1 470     -0.155000
     22 C21        -1.1900    1.6010    0.9640 c3        1 470     -0.107000
     23 C22        -1.7270    0.9910   -0.2980 c3        1 470     -0.126000
     24 C23         1.8060    2.1520    2.2670 c2        1 470      0.072000
     25 C24         2.0930    3.4710    1.9320 c2        1 470     -0.188000
     26 C25         2.5320    4.3670    2.9210 c1        1 470     -0.098000
     27 C26         2.6800    3.9340    4.2370 c1        1 470     -0.131750
     28 C27         2.3930    2.6130    4.5730 c1        1 470     -0.131750
     29 C28         1.9550    1.7200    3.5870 c1        1 470     -0.196000
     30 H1          1.1770    2.1560   -5.1190 hc        1 470      0.072667
     31 H1A        -0.4060    2.0500   -5.3520 hc        1 470      0.072667
     32 H1B         0.6140    1.4250   -6.4350 hc        1 470      0.072667
     33 HN1         1.8240    1.0170    0.5100 hn        1 470      0.197000
     34 H2         -0.1200   -0.3800   -5.1940 hc        1 470      0.079500
     35 H2A         1.3570   -0.1000   -4.6530 hc        1 470      0.079500
     36 H3          0.5980    0.6880   -2.6600 hc        1 470      0.091000
     37 H3A        -0.7800    1.2210   -3.2880 hc        1 470      0.091000
     38 H4         -0.9900   -1.5870   -3.4180 ha        1 470      0.127000
     39 H6         -1.3020   -2.8890   -0.5990 hc        1 470      0.091000
     40 H6A        -2.6150   -2.0520   -0.2810 hc        1 470      0.091000
     41 H7         -2.0560   -3.5740   -2.5960 hc        1 470      0.081500
     42 H7A        -2.9340   -2.2630   -2.8080 hc        1 470      0.081500
     43 H8         -3.7270   -4.1550   -0.8040 hc        1 470      0.072333
     44 H8A        -4.1900   -4.3930   -2.3310 hc        1 470      0.072333
     45 H8B        -4.6720   -3.0740   -1.5380 hc        1 470      0.072333
     46 H12         0.1380   -2.4610    2.2500 ha        1 470      0.136000
     47 H13         1.6790   -4.2670    2.0250 ha        1 470      0.132000
     48 H14         3.4810   -4.0990    0.4790 ha        1 470      0.130000
     49 H15         3.7620   -2.1430   -0.8490 ha        1 470      0.130000
     50 H16         2.2150   -0.3490   -0.6130 ha        1 470      0.138000
     51 H18         0.1380   -0.5300    2.2820 hc        1 470      0.096500
     52 H18A        0.4190    0.9990    2.6920 hc        1 470      0.096500
     53 H19        -1.8750    0.7220    3.3810 hc        1 470      0.081500
     54 H19A       -2.2330   -0.1630    2.0780 hc        1 470      0.081500
     55 H20        -2.9270    1.4480    1.4870 hc        1 470      0.082500
     56 H20A       -1.9480    2.3100    2.4350 hc        1 470      0.082500
     57 H21        -0.8590    2.5050    0.8290 hc        1 470      0.114000
     58 H22        -1.9020    1.6670   -0.9910 hc        1 470      0.098000
     59 H22A       -2.6110    0.5800   -0.1940 hc        1 470      0.098000
     60 H24         1.9880    3.7790    0.9980 ha        1 470      0.138000
     61 H25         2.7350    5.3010    2.6840 ha        1 470      0.127000
     62 H26         2.9960    4.5780    4.9490 ha        1 470      0.130000
     63 H27         2.4970    2.3090    5.4990 ha        1 470      0.130000
     64 H28         1.7500    0.7740    3.8280 ha        1 470      0.128000
@<TRIPOS>BOND
     1    1    3 1   
     2    1   30 1   
     3    1   31 1   
     4    1   32 1   
     5    2   18 1   
     6    2   24 1   
     7    2   33 1   
     8    3    4 1   
     9    3   34 1   
    10    3   35 1   
    11    4    5 1   
    12    4   36 1   
    13    4   37 1   
    14    5    6 1   
    15    5   38 1   
    16    6    7 1   
    17    7    8 1   
    18    7   39 1   
    19    7   40 1   
    20    8    9 1   
    21    8   41 1   
    22    8   42 1   
    23    9   43 1   
    24    9   44 1   
    25    9   45 1   
    26   10   11 1   
    27   10   23 1   
    28   11   12 1   
    29   12   13 1   
    30   12   17 1   
    31   13   14 1   
    32   13   46 1   
    33   14   47 1   
    34   15   16 1   
    35   15   48 1   
    36   16   49 1   
    37   17   50 1   
    38   18   19 1   
    39   18   22 1   
    40   19   20 1   
    41   19   51 1   
    42   19   52 1   
    43   20   21 1   
    44   20   53 1   
    45   20   54 1   
    46   21   22 1   
    47   21   55 1   
    48   21   56 1   
    49   22   23 1   
    50   22   57 1   
    51   23   58 1   
    52   23   59 1   
    53   24   25 1   
    54   24   29 1   
    55   25   26 1   
    56   25   60 1   
    57   26   61 1   
    58   27   28 1   
    59   27   62 1   
    60   28   63 1   
    61   29   64 1   
@<TRIPOS>SUBSTRUCTURE
     1 470         1 TEMP              0 ****  ****    0 ROOT
