@<TRIPOS>MOLECULE
470
   65    68     1     0     0
SMALL
bcc


@<TRIPOS>ATOM
      1 C1         -0.0330    0.5600    0.2010 c3        1 470     -0.096100
      2 N1          8.6700    0.2460    3.3450 n4        1 470     -0.626400
      3 C2          1.4680    0.6250    0.3110 c3        1 470     -0.079400
      4 C3          1.9920   -0.4160    1.2800 c3        1 470     -0.065200
      5 C4          3.4660   -0.3710    1.4070 c2        1 470     -0.085200
      6 C5          4.2000   -1.2690    2.0950 ce        1 470     -0.142200
      7 C6          3.5860   -2.4220    2.8190 c3        1 470     -0.039200
      8 C7          3.3810   -3.6320    1.9260 c3        1 470     -0.078400
      9 C8          2.7360   -4.7640    2.6830 c3        1 470     -0.097100
     10 C9          5.6470   -1.1560    2.1510 ce        1 470      0.041800
     11 C10         6.4000   -0.0360    2.3260 cf        1 470     -0.161400
     12 C11         5.9630    1.3110    2.6470 ca        1 470     -0.075800
     13 C12         4.9770    1.5050    3.6300 ca        1 470     -0.140500
     14 C13         4.5610    2.7900    3.9710 ca        1 470     -0.118000
     15 C14         5.1200    3.9000    3.3370 ca        1 470     -0.110000
     16 C15         6.0930    3.7180    2.3540 ca        1 470     -0.118000
     17 C16         6.5130    2.4340    2.0110 ca        1 470     -0.140500
     18 C17         7.8780   -0.3600    2.1940 c3        1 470      0.186400
     19 C18         8.4860    0.1220    0.8540 c3        1 470     -0.101400
     20 C19         9.3930   -0.9950    0.3670 c3        1 470     -0.091400
     21 C20         8.8600   -2.2900    0.9610 c3        1 470     -0.086400
     22 C21         7.9500   -1.9270    2.1290 c3        1 470     -0.070700
     23 C22         6.4970   -2.3820    1.9630 c3        1 470     -0.060200
     24 C23         8.5960   -0.4530    4.6280 ca        1 470     -0.043400
     25 C24         9.6550   -1.2930    5.0240 ca        1 470     -0.104500
     26 C25         9.6000   -1.9190    6.2660 ca        1 470     -0.108500
     27 C26         8.5070   -1.7200    7.1120 ca        1 470     -0.078000
     28 C27         7.4590   -0.8900    6.7140 ca        1 470     -0.108500
     29 C28         7.4920   -0.2530    5.4750 ca        1 470     -0.104500
     30 H1         -0.4010    1.3340   -0.5150 hc        1 470      0.040367
     31 H1A        -0.3600   -0.4430   -0.1660 hc        1 470      0.040367
     32 H1B        -0.5120    0.7430    1.1940 hc        1 470      0.040367
     33 H2          1.9280    0.4620   -0.6990 hc        1 470      0.043200
     34 H2A         1.7770    1.6480    0.6560 hc        1 470      0.043200
     35 H3          1.6690   -1.4390    0.9400 hc        1 470      0.064200
     36 H3A         1.5290   -0.2520    2.2930 hc        1 470      0.064200
     37 H4          3.9670    0.4710    0.8960 ha        1 470      0.134000
     38 H6          2.5910   -2.1040    3.2360 hc        1 470      0.049700
     39 H6A         4.2300   -2.7110    3.6920 hc        1 470      0.049700
     40 H7          4.3700   -3.9670    1.5150 hc        1 470      0.042200
     41 H7A         2.7390   -3.3490    1.0500 hc        1 470      0.042200
     42 H8          2.5950   -5.6460    2.0120 hc        1 470      0.040367
     43 H8A         3.3710   -5.0770    3.5470 hc        1 470      0.040367
     44 H8B         1.7360   -4.4580    3.0760 hc        1 470      0.040367
     45 H12         4.5140    0.6290    4.1130 ha        1 470      0.137500
     46 H13         3.7830    2.9280    4.7380 ha        1 470      0.149500
     47 H14         4.7870    4.9150    3.6030 ha        1 470      0.153000
     48 H15         6.5230    4.5900    1.8370 ha        1 470      0.149500
     49 H16         7.2530    2.3070    1.2070 ha        1 470      0.137500
     50 H18         7.6400    0.2780    0.1330 hc        1 470      0.079700
     51 H18A        9.0380    1.0920    0.9330 hc        1 470      0.079700
     52 H19         9.4010   -1.0370   -0.7510 hc        1 470      0.063700
     53 H19A       10.4470   -0.8150    0.7000 hc        1 470      0.063700
     54 H20         8.2990   -2.8700    0.1840 hc        1 470      0.068700
     55 H20A        9.7020   -2.9410    1.3090 hc        1 470      0.068700
     56 H21         8.3610   -2.3580    3.0790 hc        1 470      0.077700
     57 H22         6.2320   -3.1650    2.7190 hc        1 470      0.087200
     58 H22A        6.3140   -2.8180    0.9460 hc        1 470      0.087200
     59 H24        10.5260   -1.4620    4.3710 ha        1 470      0.159000
     60 H25        10.4300   -2.5740    6.5800 ha        1 470      0.166500
     61 H26         8.4750   -2.2180    8.0950 ha        1 470      0.167000
     62 H27         6.5960   -0.7310    7.3810 ha        1 470      0.166500
     63 H28         6.6520    0.3950    5.1670 ha        1 470      0.159000
     64 H11         9.6540    0.2920    3.0580 hn        1 470      0.453300
     65 HN1         8.3120    1.2050    3.4750 hn        1 470      0.453300
@<TRIPOS>BOND
     1    1    3 1   
     2    1   30 1   
     3    1   31 1   
     4    1   32 1   
     5    2   18 1   
     6    2   24 1   
     7    2   64 1   
     8    2   65 1   
     9    3    4 1   
    10    3   33 1   
    11    3   34 1   
    12    4    5 1   
    13    4   35 1   
    14    4   36 1   
    15    5    6 2   
    16    5   37 1   
    17    6    7 1   
    18    6   10 1   
    19    7    8 1   
    20    7   38 1   
    21    7   39 1   
    22    8    9 1   
    23    8   40 1   
    24    8   41 1   
    25    9   42 1   
    26    9   43 1   
    27    9   44 1   
    28   10   11 2   
    29   10   23 1   
    30   11   12 1   
    31   11   18 1   
    32   12   13 ar  
    33   12   17 ar  
    34   13   14 ar  
    35   13   45 1   
    36   14   15 ar  
    37   14   46 1   
    38   15   16 ar  
    39   15   47 1   
    40   16   17 ar  
    41   16   48 1   
    42   17   49 1   
    43   18   19 1   
    44   18   22 1   
    45   19   20 1   
    46   19   50 1   
    47   19   51 1   
    48   20   21 1   
    49   20   52 1   
    50   20   53 1   
    51   21   22 1   
    52   21   54 1   
    53   21   55 1   
    54   22   23 1   
    55   22   56 1   
    56   23   57 1   
    57   23   58 1   
    58   24   25 ar  
    59   24   29 ar  
    60   25   26 ar  
    61   25   59 1   
    62   26   27 ar  
    63   26   60 1   
    64   27   28 ar  
    65   27   61 1   
    66   28   29 ar  
    67   28   62 1   
    68   29   63 1   
@<TRIPOS>SUBSTRUCTURE
     1 470         1 TEMP              0 ****  ****    0 ROOT
