@<TRIPOS>MOLECULE
471
   81    73     1     0     0
SMALL
bcc


@<TRIPOS>ATOM
      1 N          -2.8740   -1.1700   -2.4890 n3        1 471     -0.309000
      2 CA         -1.4100   -1.2120   -2.5040 c3        1 471     -0.005000
      3 CB         -0.8890   -1.2990   -1.0940 c3        1 471     -0.130000
      4 CG          0.0860   -0.1020   -0.8200 c2        1 471     -0.117000
      5 CD1        -0.4090    1.0970   -0.3110 c2        1 471     -0.096000
      6 CD2         1.4550   -0.2870   -0.9460 c1        1 471     -0.105000
      7 CE1         0.4740    2.1110    0.0720 c1        1 471     -0.156000
      8 CE2         2.3340    0.7250   -0.5650 c1        1 471     -0.205000
      9 CZ          1.8390    1.9250   -0.0550 c1        1 471      0.087000
     10 OH          2.7360    2.9230    0.4120 os        1 471     -0.219000
     11 C1A        -3.5850   -0.6450   -3.6180 c2        1 471      0.168000
     12 C1F        -4.9350   -1.0550   -3.8750 c1        1 471     -0.410000
     13 C1B        -2.9330    0.3210   -4.5090 c3        1 471     -0.223000
     14 C1H        -7.1660   -2.0000   -2.7460 c1        1 471     -0.095000
     15 C1I        -7.7980   -2.9030   -1.8890 c1        1 471     -0.109667
     16 C1J        -9.1720   -2.8340   -1.6980 c1        1 471     -0.109667
     17 C1K        -9.9190   -1.8630   -2.3640 c1        1 471     -0.150000
     18 C1N       -11.4350   -1.8270   -2.2070 c3        1 471      0.465000
     19 F1Q       -11.7660   -1.0700   -1.1010 f         1 471     -0.166667
     20 F1P       -11.9960   -1.2710   -3.3270 f         1 471     -0.166667
     21 F1O       -11.8940   -3.0620   -2.0500 f         1 471     -0.166667
     22 C1L        -9.2880   -0.9640   -3.2170 c1        1 471     -0.094000
     23 C1M        -7.9130   -1.0320   -3.4080 c1        1 471     -0.105000
     24 C1G        -5.6290   -2.0610   -2.9430 c1        1 471      0.318000
     25 O1G        -4.9930   -2.8690   -2.3700 o         1 471     -0.362000
     26 O3F         5.8400    4.4780    4.9880 os        1 471     -0.121000
     27 C3G         5.8590    3.1280    5.2040 c2        1 471      0.056000
     28 N3H         5.4720    2.5160    4.0630 n2        1 471     -0.142000
     29 C3C         5.2110    3.4750    3.1360 c1        1 471     -0.124000
     30 C3D         5.4410    4.6920    3.7140 c1        1 471     -0.050000
     31 C3E         5.3300    6.0740    3.0170 c2        1 471     -0.153000
     32 C3I         6.1990    2.5010    6.3810 c1        1 471     -0.031000
     33 C3N         7.3870    1.7830    6.4660 c1        1 471     -0.109667
     34 C3M         7.7720    1.2090    7.6830 c1        1 471     -0.109667
     35 C3L         6.9690    1.3560    8.8030 c1        1 471     -0.109667
     36 C3K         5.7790    2.0760    8.7170 c1        1 471     -0.109667
     37 C3J         5.3950    2.6480    7.5040 c1        1 471     -0.095000
     38 C3A         3.3620    2.6050    1.6710 c3        1 471     -0.016000
     39 C3B         4.8060    3.2330    1.7090 c2        1 471     -0.085000
     40 C4A        -0.9590   -2.4070   -3.2750 c3        1 471     -0.055000
     41 N4B         0.4610   -2.3680   -3.4290 n         1 471     -0.367000
     42 C4C         1.2400   -3.6230   -3.4110 c2        1 471      0.297000
     43 O4C         0.7460   -4.6590   -3.8530 o         1 471     -0.381000
     44 C4D         2.6320   -3.6640   -2.7140 c3        1 471     -0.182000
     45 C4E         3.0320   -5.1510   -2.4480 c3        1 471     -0.209000
     46 HN         -3.3210   -1.4430   -1.7670 hn        1 471      0.255000
     47 HCA        -1.0720   -0.4160   -2.9200 h1        1 471      0.111000
     48 HB1        -1.6210   -1.2620   -0.4830 hc        1 471      0.102000
     49 HB2        -0.3980   -2.1590   -0.9730 hc        1 471      0.102000
     50 HCD1       -1.3700    1.2270   -0.2190 ha        1 471      0.139000
     51 HCD2        1.8130   -1.1480   -1.3140 ha        1 471      0.136000
     52 HCE1        0.1130    2.9880    0.4430 ha        1 471      0.152000
     53 HCE2        3.3140    0.5910   -0.6550 ha        1 471      0.145000
     54 HC1F       -5.4220   -0.6890   -4.6580 ha        1 471      0.144000
     55 H1B1       -2.6240    1.0990   -3.9820 hc        1 471      0.110000
     56 H1B2       -2.1400   -0.1160   -4.9630 hc        1 471      0.110000
     57 HIB3       -3.5660    0.6170   -5.1820 hc        1 471      0.110000
     58 HC1I       -7.2600   -3.6020   -1.4100 ha        1 471      0.145833
     59 HC1J       -9.6140   -3.4630   -1.1020 ha        1 471      0.145833
     60 HC1L       -9.8070   -0.2900   -3.6780 ha        1 471      0.151000
     61 HC1M       -7.4570   -0.3800   -4.0270 ha        1 471      0.148000
     62 H3E1        4.3960    6.2120    2.7000 ha        1 471      0.102667
     63 H3E2        5.9610    6.1050    2.2290 ha        1 471      0.102667
     64 H3E3        5.5620    6.7720    3.6440 ha        1 471      0.102667
     65 HC3N        7.9330    1.6810    5.7030 ha        1 471      0.145833
     66 HC3M        8.6430    0.6810    7.7470 ha        1 471      0.145833
     67 HC3L        7.2490    0.9380    9.6890 ha        1 471      0.145833
     68 HC3K        5.1970    2.1820    9.5280 ha        1 471      0.145833
     69 HC3J        4.5630    3.1510    7.4440 ha        1 471      0.149000
     70 H3A1        2.8320    2.9690    2.4010 h1        1 471      0.092500
     71 H3A2        3.4290    1.5890    1.7710 h1        1 471      0.092500
     72 H3B1        4.8070    4.0620    1.2340 ha        1 471      0.108000
     73 H3B2        5.4290    2.6280    1.2960 ha        1 471      0.108000
     74 H4A1       -1.3940   -2.4040   -4.1770 h1        1 471      0.107500
     75 H4A2       -1.2020   -3.1910   -2.8110 h1        1 471      0.107500
     76 HN4B        0.8870   -1.5730   -3.4850 hn        1 471      0.228000
     77 H4D1        3.3250   -3.2310   -3.3110 hc        1 471      0.111500
     78 H4D2        2.5850   -3.1830   -1.8680 hc        1 471      0.111500
     79 H4E1        2.2480   -5.6430   -2.0000 hc        1 471      0.082000
     80 H4E2        3.8410   -5.1800   -1.8400 hc        1 471      0.082000
     81 H4E3        3.2510   -5.5960   -3.3070 hc        1 471      0.082000
@<TRIPOS>BOND
     1    1    2 1   
     2    1   11 1   
     3    1   46 1   
     4    2    3 1   
     5    2   40 1   
     6    2   47 1   
     7    3    4 1   
     8    3   48 1   
     9    3   49 1   
    10    4    5 1   
    11    4    6 1   
    12    5    7 1   
    13    5   50 1   
    14    6   51 1   
    15    7   52 1   
    16    8    9 1   
    17    8   53 1   
    18    9   10 1   
    19   10   38 1   
    20   11   12 1   
    21   11   13 1   
    22   12   54 1   
    23   13   55 1   
    24   13   56 1   
    25   13   57 1   
    26   14   23 1   
    27   14   24 1   
    28   15   16 1   
    29   15   58 1   
    30   16   59 1   
    31   17   18 1   
    32   17   22 1   
    33   18   19 1   
    34   18   20 1   
    35   18   21 1   
    36   22   60 1   
    37   23   61 1   
    38   24   25 1   
    39   26   27 1   
    40   26   30 1   
    41   27   28 1   
    42   27   32 1   
    43   28   29 1   
    44   29   30 1   
    45   31   62 1   
    46   31   63 1   
    47   31   64 1   
    48   32   37 1   
    49   33   34 1   
    50   33   65 1   
    51   34   66 1   
    52   35   36 1   
    53   35   67 1   
    54   36   68 1   
    55   37   69 1   
    56   38   39 1   
    57   38   70 1   
    58   38   71 1   
    59   39   72 1   
    60   39   73 1   
    61   40   41 1   
    62   40   74 1   
    63   40   75 1   
    64   41   42 1   
    65   41   76 1   
    66   42   43 1   
    67   42   44 1   
    68   44   45 1   
    69   44   77 1   
    70   44   78 1   
    71   45   79 1   
    72   45   80 1   
    73   45   81 1   
@<TRIPOS>SUBSTRUCTURE
     1 471         1 TEMP              0 ****  ****    0 ROOT
