@<TRIPOS>MOLECULE
471
   81    84     1     0     0
SMALL
bcc


@<TRIPOS>ATOM
      1 N           2.4540    1.6530    1.7850 nh        1 471     -0.747000
      2 CA          1.5320    2.4370    2.5730 c3        1 471      0.193500
      3 CB          0.5970    1.5700    3.4430 c3        1 471     -0.048100
      4 CG         -0.3340    0.7440    2.6320 ca        1 471     -0.134300
      5 CD1         0.0660   -0.5150    2.1570 ca        1 471     -0.091000
      6 CD2        -1.6250    1.2000    2.3550 ca        1 471     -0.091000
      7 CE1        -0.8050   -1.3020    1.4170 ca        1 471     -0.181000
      8 CE2        -2.5160    0.4250    1.6130 ca        1 471     -0.181000
      9 CZ         -2.1040   -0.8270    1.1450 ca        1 471      0.134100
     10 OH         -2.8880   -1.6870    0.4040 os        1 471     -0.336900
     11 C1A         2.4750    1.6390    0.4140 c2        1 471      0.238800
     12 C1F         3.0990    0.6520   -0.3180 ce        1 471     -0.425200
     13 C1B         1.8530    2.7740   -0.3500 c3        1 471     -0.083900
     14 C1H         4.3460   -1.4520   -0.7690 ca        1 471     -0.117600
     15 C1I         4.1980   -2.8410   -0.6770 ca        1 471     -0.098000
     16 C1J         4.8490   -3.6770   -1.5830 ca        1 471     -0.093000
     17 C1K         5.6590   -3.1210   -2.5750 ca        1 471     -0.155300
     18 C1N         6.3570   -4.0290   -3.5790 c3        1 471      0.686200
     19 F1Q         5.6280   -4.2720   -4.7190 f         1 471     -0.237300
     20 F1P         7.5560   -3.5490   -4.0490 f         1 471     -0.237300
     21 F1O         6.6600   -5.2830   -3.1060 f         1 471     -0.237300
     22 C1L         5.8260   -1.7380   -2.6630 ca        1 471     -0.093000
     23 C1M         5.1670   -0.9040   -1.7600 ca        1 471     -0.098000
     24 C1G         3.6370   -0.5820    0.2090 c         1 471      0.598900
     25 O1G         3.5110   -0.9590    1.3910 o         1 471     -0.598100
     26 O3F        -8.5210   -2.3760   -1.1400 os        1 471     -0.380800
     27 C3G        -8.1510   -1.0400   -1.4120 cc        1 471      0.552900
     28 N3H        -6.8330   -0.8520   -1.2900 nd        1 471     -0.666000
     29 C3C        -6.2930   -2.0990   -0.9240 cd        1 471      0.235300
     30 C3D        -7.3250   -3.0320   -0.8310 cc        1 471      0.171700
     31 C3E        -7.4120   -4.4550   -0.5070 c3        1 471     -0.129400
     32 C3I        -9.2180   -0.1210   -1.7670 ca        1 471     -0.136500
     33 C3N       -10.5500   -0.5620   -1.7940 ca        1 471     -0.091500
     34 C3M       -11.5670    0.3260   -2.1350 ca        1 471     -0.138500
     35 C3L       -11.2660    1.6510   -2.4500 ca        1 471     -0.110000
     36 C3K        -9.9430    2.0900   -2.4250 ca        1 471     -0.138500
     37 C3J        -8.9160    1.2110   -2.0850 ca        1 471     -0.091500
     38 C3A        -4.2180   -1.2310    0.1170 c3        1 471      0.135400
     39 C3B        -4.8510   -2.3410   -0.7100 c3        1 471     -0.101700
     40 C4A         2.2710    3.4030    3.5510 c3        1 471      0.070000
     41 N4B         3.2690    4.2330    2.9460 n         1 471     -0.559900
     42 C4C         4.5960    4.2000    3.3610 c         1 471      0.652100
     43 O4C         4.9230    3.6140    4.4100 o         1 471     -0.595100
     44 C4D         5.5930    4.9670    2.5110 c3        1 471     -0.149400
     45 C4E         6.9770    4.9010    3.1020 c3        1 471     -0.087100
     46 HN          2.8380    0.8540    2.2520 hn        1 471      0.461800
     47 HCA         0.8860    3.0600    1.8870 h1        1 471      0.060700
     48 HB1         1.2110    0.9070    4.1110 hc        1 471      0.062200
     49 HB2         0.0120    2.2630    4.1060 hc        1 471      0.062200
     50 HCD1        1.0860   -0.8820    2.3640 ha        1 471      0.141000
     51 HCD2       -1.9510    2.1820    2.7300 ha        1 471      0.141000
     52 HCE1       -0.5000   -2.2880    1.0400 ha        1 471      0.146500
     53 HCE2       -3.5260    0.8050    1.4110 ha        1 471      0.146500
     54 HC1F        3.1680    0.7820   -1.4080 ha        1 471      0.143000
     55 H1B1        2.1940    2.7560   -1.4150 hc        1 471      0.058700
     56 H1B2        0.7390    2.6710   -0.3370 hc        1 471      0.058700
     57 HIB3        2.1310    3.7640    0.0870 hc        1 471      0.058700
     58 HC1I        3.5720   -3.2670    0.1230 ha        1 471      0.153000
     59 HC1J        4.7340   -4.7710   -1.5140 ha        1 471      0.152000
     60 HC1L        6.4800   -1.3110   -3.4400 ha        1 471      0.152000
     61 HC1M        5.3040    0.1860   -1.8240 ha        1 471      0.153000
     62 H3E1       -8.3290   -4.6660    0.0980 hc        1 471      0.063033
     63 H3E2       -7.4640   -5.0610   -1.4480 hc        1 471      0.063033
     64 H3E3       -6.5080   -4.7660    0.0730 hc        1 471      0.063033
     65 HC3N      -10.7840   -1.6090   -1.5450 ha        1 471      0.151500
     66 HC3M      -12.6110   -0.0220   -2.1550 ha        1 471      0.137500
     67 HC3L      -12.0730    2.3490   -2.7200 ha        1 471      0.135000
     68 HC3K       -9.7040    3.1350   -2.6740 ha        1 471      0.137500
     69 HC3J       -7.8720    1.5620   -2.0670 ha        1 471      0.151500
     70 H3A1       -4.7750   -1.0740    1.0770 h1        1 471      0.052200
     71 H3A2       -4.1720   -0.2710   -0.4600 h1        1 471      0.052200
     72 H3B1       -4.3270   -2.4080   -1.7020 hc        1 471      0.068700
     73 H3B2       -4.7100   -3.3250   -0.1870 hc        1 471      0.068700
     74 H4A1        2.7390    2.8030    4.3840 h1        1 471      0.069200
     75 H4A2        1.4800    4.0720    3.9990 h1        1 471      0.069200
     76 HN4B        3.0810    4.5560    2.0270 hn        1 471      0.296500
     77 H4D1        5.2610    6.0360    2.4320 hc        1 471      0.060200
     78 H4D2        5.5980    4.5310    1.4770 hc        1 471      0.060200
     79 H4E1        6.9840    5.3370    4.1300 hc        1 471      0.047367
     80 H4E2        7.3200    3.8410    3.1780 hc        1 471      0.047367
     81 H4E3        7.6930    5.4690    2.4610 hc        1 471      0.047367
@<TRIPOS>BOND
     1    1    2 1   
     2    1   11 1   
     3    1   46 1   
     4    2    3 1   
     5    2   40 1   
     6    2   47 1   
     7    3    4 1   
     8    3   48 1   
     9    3   49 1   
    10    4    5 ar  
    11    4    6 ar  
    12    5    7 ar  
    13    5   50 1   
    14    6    8 ar  
    15    6   51 1   
    16    7    9 ar  
    17    7   52 1   
    18    8    9 ar  
    19    8   53 1   
    20    9   10 1   
    21   10   38 1   
    22   11   12 2   
    23   11   13 1   
    24   12   24 1   
    25   12   54 1   
    26   13   55 1   
    27   13   56 1   
    28   13   57 1   
    29   14   15 ar  
    30   14   23 ar  
    31   14   24 1   
    32   15   16 ar  
    33   15   58 1   
    34   16   17 ar  
    35   16   59 1   
    36   17   18 1   
    37   17   22 ar  
    38   18   19 1   
    39   18   20 1   
    40   18   21 1   
    41   22   23 ar  
    42   22   60 1   
    43   23   61 1   
    44   24   25 2   
    45   26   27 1   
    46   26   30 1   
    47   27   28 2   
    48   27   32 1   
    49   28   29 1   
    50   29   30 2   
    51   29   39 1   
    52   30   31 1   
    53   31   62 1   
    54   31   63 1   
    55   31   64 1   
    56   32   33 ar  
    57   32   37 ar  
    58   33   34 ar  
    59   33   65 1   
    60   34   35 ar  
    61   34   66 1   
    62   35   36 ar  
    63   35   67 1   
    64   36   37 ar  
    65   36   68 1   
    66   37   69 1   
    67   38   39 1   
    68   38   70 1   
    69   38   71 1   
    70   39   72 1   
    71   39   73 1   
    72   40   41 1   
    73   40   74 1   
    74   40   75 1   
    75   41   42 1   
    76   41   76 1   
    77   42   43 2   
    78   42   44 1   
    79   44   45 1   
    80   44   77 1   
    81   44   78 1   
    82   45   79 1   
    83   45   80 1   
    84   45   81 1   
@<TRIPOS>SUBSTRUCTURE
     1 471         1 TEMP              0 ****  ****    0 ROOT
