@<TRIPOS>MOLECULE
471
   83    86     1     0     0
SMALL
bcc


@<TRIPOS>ATOM
      1 N           0.2740   -0.2930   -0.1320 n4        1 471     -0.669800
      2 CA          1.7430   -0.5740   -0.3560 c3        1 471      0.110500
      3 CB          2.5370   -0.4090    0.9680 c3        1 471     -0.030100
      4 CG          2.2010    0.8520    1.6680 ca        1 471     -0.254300
      5 CD1         1.3690    0.8290    2.8020 ca        1 471     -0.087500
      6 CD2         2.7830    2.0630    1.2710 ca        1 471     -0.087500
      7 CE1         1.0960    1.9900    3.5040 ca        1 471     -0.182500
      8 CE2         2.5230    3.2400    1.9620 ca        1 471     -0.182500
      9 CZ          1.6750    3.2120    3.0840 ca        1 471      0.199100
     10 OH          1.3370    4.2950    3.8340 os        1 471     -0.310900
     11 C1A        -0.3290    0.5910   -1.1450 c2        1 471      0.006800
     12 C1F        -1.2420    0.1410   -2.0300 ce        1 471     -0.201200
     13 C1B         0.0450    2.0330   -1.0610 c3        1 471     -0.103900
     14 C1H        -3.1010   -1.5210   -2.4520 ca        1 471     -0.198600
     15 C1I        -3.5100   -2.8480   -2.6840 ca        1 471     -0.060500
     16 C1J        -4.8430   -3.1320   -2.9740 ca        1 471     -0.089500
     17 C1K        -5.7730   -2.0930   -3.0280 ca        1 471     -0.086300
     18 C1N        -7.2470   -2.4050   -3.3280 c3        1 471      0.685200
     19 F1Q        -7.9860   -2.6420   -2.1970 f         1 471     -0.212300
     20 F1P        -7.9020   -1.3930   -3.9790 f         1 471     -0.212300
     21 F1O        -7.4270   -3.5140   -4.1140 f         1 471     -0.212300
     22 C1L        -5.3810   -0.7710   -2.7950 ca        1 471     -0.089500
     23 C1M        -4.0500   -0.4850   -2.5080 ca        1 471     -0.060500
     24 C1G        -1.7020   -1.2640   -2.1470 c         1 471      0.612900
     25 O1G        -0.8530   -2.1710   -1.9760 o         1 471     -0.663100
     26 O3F         2.8450    9.9570    4.5840 os        1 471     -0.369800
     27 C3G         2.8330    9.6380    3.2080 cc        1 471      0.575900
     28 N3H         2.3380    8.4150    2.9860 nd        1 471     -0.693000
     29 C3C         2.0060    7.8940    4.2530 cd        1 471      0.202300
     30 C3D         2.3170    8.8380    5.2320 cc        1 471      0.199700
     31 C3E         2.2080    8.9010    6.6880 c3        1 471     -0.136400
     32 C3I         3.3360   10.6510    2.2970 ca        1 471     -0.151500
     33 C3N         3.9020   11.8310    2.8010 ca        1 471     -0.089000
     34 C3M         4.3820   12.8000    1.9230 ca        1 471     -0.135500
     35 C3L         4.3010   12.6000    0.5440 ca        1 471     -0.098000
     36 C3K         3.7370   11.4260    0.0420 ca        1 471     -0.135500
     37 C3J         3.2530   10.4500    0.9120 ca        1 471     -0.089000
     38 C3A         1.9520    5.5540    3.4740 c3        1 471      0.131400
     39 C3B         1.3930    6.5670    4.4610 c3        1 471     -0.092700
     40 C4A         2.0150   -2.0020   -0.8720 c3        1 471      0.079800
     41 N4B         2.0080   -2.1650   -2.3460 n4        1 471     -0.703800
     42 C4C         2.5460   -3.5450   -2.7960 c         1 471      0.560100
     43 O4C         3.0660   -4.2110   -1.9240 o         1 471     -0.380100
     44 C4D         2.3180   -3.8490   -4.2480 c3        1 471     -0.140400
     45 C4E         3.2680   -4.9280   -4.7130 c3        1 471     -0.112100
     46 HN         -0.2450   -1.1830   -0.0870 hn        1 471      0.479800
     47 HCA         2.1200    0.2080   -1.0810 hx        1 471      0.115700
     48 HB1         3.6280   -0.4180    0.6950 hc        1 471      0.093700
     49 HB2         2.3430   -1.2940    1.6330 hc        1 471      0.093700
     50 HCD1        0.9610   -0.1280    3.1680 ha        1 471      0.134500
     51 HCD2        3.4770    2.0850    0.4150 ha        1 471      0.134500
     52 HCE1        0.4570    1.9820    4.4020 ha        1 471      0.176500
     53 HCE2        3.0040    4.1790    1.6440 ha        1 471      0.176500
     54 HC1F       -1.6890    0.8600   -2.7480 ha        1 471      0.212000
     55 H1B1       -0.7240    2.5860   -0.4580 hc        1 471      0.099700
     56 H1B2        0.0660    2.4790   -2.0890 hc        1 471      0.099700
     57 HIB3        1.0440    2.2010   -0.5800 hc        1 471      0.099700
     58 HC1I       -2.7700   -3.6640   -2.6330 ha        1 471      0.152000
     59 HC1J       -5.1640   -4.1720   -3.1630 ha        1 471      0.186500
     60 HC1L       -6.1300    0.0410   -2.8450 ha        1 471      0.186500
     61 HC1M       -3.7610    0.5610   -2.3200 ha        1 471      0.152000
     62 H3E1        2.1870    7.8670    7.1130 hc        1 471      0.070033
     63 H3E2        3.0720    9.4620    7.1250 hc        1 471      0.070033
     64 H3E3        1.2640    9.4310    6.9790 hc        1 471      0.070033
     65 HC3N        3.9630   11.9890    3.8900 ha        1 471      0.147000
     66 HC3M        4.8250   13.7260    2.3200 ha        1 471      0.143000
     67 HC3L        4.6790   13.3680   -0.1460 ha        1 471      0.145000
     68 HC3K        3.6700   11.2710   -1.0450 ha        1 471      0.143000
     69 HC3J        2.8060    9.5290    0.5110 ha        1 471      0.147000
     70 H3A1        1.6690    5.8090    2.4210 h1        1 471      0.063200
     71 H3A2        3.0640    5.4580    3.5710 h1        1 471      0.063200
     72 H3B1        0.2790    6.6380    4.3320 hc        1 471      0.072200
     73 H3B2        1.5910    6.2220    5.5120 hc        1 471      0.072200
     74 H4A1        3.0450   -2.3100   -0.5030 hx        1 471      0.143700
     75 H4A2        1.2780   -2.7480   -0.4470 hx        1 471      0.143700
     76 HN4B        2.5910   -1.4450   -2.7840 hn        1 471      0.463800
     77 H4D1        2.4470   -2.9270   -4.8780 hc        1 471      0.105700
     78 H4D2        1.2530   -4.2020   -4.3550 hc        1 471      0.105700
     79 H4E1        3.0240   -5.1920   -5.7740 hc        1 471      0.084033
     80 H4E2        4.3290   -4.5790   -4.6700 hc        1 471      0.084033
     81 H4E3        3.1700   -5.8480   -4.0860 hc        1 471      0.084033
     82 HN3         0.1850    0.1920    0.7870 hn        1 471      0.479800
     83 H4B2        1.0460   -2.0730   -2.7070 hn        1 471      0.463800
@<TRIPOS>BOND
     1    1    2 1   
     2    1   11 1   
     3    1   46 1   
     4    1   82 1   
     5    2    3 1   
     6    2   40 1   
     7    2   47 1   
     8    3    4 1   
     9    3   48 1   
    10    3   49 1   
    11    4    5 ar  
    12    4    6 ar  
    13    5    7 ar  
    14    5   50 1   
    15    6    8 ar  
    16    6   51 1   
    17    7    9 ar  
    18    7   52 1   
    19    8    9 ar  
    20    8   53 1   
    21    9   10 1   
    22   10   38 1   
    23   11   12 2   
    24   11   13 1   
    25   12   24 1   
    26   12   54 1   
    27   13   55 1   
    28   13   56 1   
    29   13   57 1   
    30   14   15 ar  
    31   14   23 ar  
    32   14   24 1   
    33   15   16 ar  
    34   15   58 1   
    35   16   17 ar  
    36   16   59 1   
    37   17   18 1   
    38   17   22 ar  
    39   18   19 1   
    40   18   20 1   
    41   18   21 1   
    42   22   23 ar  
    43   22   60 1   
    44   23   61 1   
    45   24   25 2   
    46   26   27 1   
    47   26   30 1   
    48   27   28 2   
    49   27   32 1   
    50   28   29 1   
    51   29   30 2   
    52   29   39 1   
    53   30   31 1   
    54   31   62 1   
    55   31   63 1   
    56   31   64 1   
    57   32   33 ar  
    58   32   37 ar  
    59   33   34 ar  
    60   33   65 1   
    61   34   35 ar  
    62   34   66 1   
    63   35   36 ar  
    64   35   67 1   
    65   36   37 ar  
    66   36   68 1   
    67   37   69 1   
    68   38   39 1   
    69   38   70 1   
    70   38   71 1   
    71   39   72 1   
    72   39   73 1   
    73   40   41 1   
    74   40   74 1   
    75   40   75 1   
    76   41   42 1   
    77   41   76 1   
    78   41   83 1   
    79   42   43 2   
    80   42   44 1   
    81   44   45 1   
    82   44   77 1   
    83   44   78 1   
    84   45   79 1   
    85   45   80 1   
    86   45   81 1   
@<TRIPOS>SUBSTRUCTURE
     1 471         1 TEMP              0 ****  ****    0 ROOT
