@<TRIPOS>MOLECULE
471
   83    86     1     0     0
SMALL
bcc


@<TRIPOS>ATOM
      1 N           0.2750   -0.2910   -0.1410 ny        1 471     -0.669800
      2 CA          1.7430   -0.5680   -0.3750 c3        1 471      0.110500
      3 CB          2.5440   -0.4080    0.9450 c3        1 471     -0.030100
      4 CG          2.2110    0.8500    1.6520 ca        1 471     -0.254300
      5 CD1         1.3850    0.8200    2.7910 ca        1 471     -0.087500
      6 CD2         2.7890    2.0630    1.2580 ca        1 471     -0.087500
      7 CE1         1.1150    1.9770    3.5000 ca        1 471     -0.182500
      8 CE2         2.5310    3.2370    1.9560 ca        1 471     -0.182500
      9 CZ          1.6890    3.2020    3.0820 ca        1 471      0.199100
     10 OH          1.3540    4.2810    3.8400 os        1 471     -0.310900
     11 C1A        -0.3350    0.5980   -1.1460 c2        1 471      0.006800
     12 C1F        -1.2530    0.1500   -2.0290 ce        1 471     -0.201200
     13 C1B         0.0370    2.0400   -1.0590 c3        1 471     -0.103900
     14 C1H        -3.1120   -1.5130   -2.4470 ca        1 471     -0.198600
     15 C1I        -3.5200   -2.8400   -2.6820 ca        1 471     -0.060500
     16 C1J        -4.8540   -3.1250   -2.9660 ca        1 471     -0.089500
     17 C1K        -5.7870   -2.0870   -3.0100 ca        1 471     -0.086300
     18 C1N        -7.2620   -2.4000   -3.3030 c3        1 471      0.685200
     19 F1Q        -7.9930   -2.6440   -2.1690 f         1 471     -0.212300
     20 F1P        -7.9220   -1.3850   -3.9450 f         1 471     -0.212300
     21 F1O        -7.4440   -3.5050   -4.0930 f         1 471     -0.212300
     22 C1L        -5.3950   -0.7650   -2.7730 ca        1 471     -0.089500
     23 C1M        -4.0630   -0.4780   -2.4930 ca        1 471     -0.060500
     24 C1G        -1.7110   -1.2560   -2.1490 c         1 471      0.612900
     25 O1G        -0.8600   -2.1620   -1.9870 o         1 471     -0.663100
     26 O3F         2.8590    9.9410    4.6080 os        1 471     -0.369800
     27 C3G         2.8410    9.6280    3.2310 cc        1 471      0.575900
     28 N3H         2.3470    8.4060    3.0060 nd        1 471     -0.693000
     29 C3C         2.0210    7.8790    4.2720 cd        1 471      0.202300
     30 C3D         2.3350    8.8180    5.2530 cc        1 471      0.199700
     31 C3E         2.2320    8.8750    6.7100 c3        1 471     -0.136400
     32 C3I         3.3400   10.6460    2.3230 ca        1 471     -0.151500
     33 C3N         3.9060   11.8250    2.8300 ca        1 471     -0.089000
     34 C3M         4.3810   12.7980    1.9530 ca        1 471     -0.135500
     35 C3L         4.2950   12.6030    0.5740 ca        1 471     -0.098000
     36 C3K         3.7310   11.4310    0.0700 ca        1 471     -0.135500
     37 C3J         3.2520   10.4510    0.9370 ca        1 471     -0.089000
     38 C3A         1.9660    5.5430    3.4820 c3        1 471      0.132400
     39 C3B         1.4110    6.5500    4.4770 c3        1 471     -0.092700
     40 C4A         2.0140   -1.9940   -0.8990 c3        1 471      0.079800
     41 N4B         1.9980   -2.1500   -2.3740 ny        1 471     -0.703800
     42 C4C         2.5370   -3.5270   -2.8330 c         1 471      0.560100
     43 O4C         3.0670   -4.1940   -1.9680 o         1 471     -0.380100
     44 C4D         2.2970   -3.8260   -4.2840 c3        1 471     -0.140400
     45 C4E         3.2410   -4.9060   -4.7600 c3        1 471     -0.112100
     46 HN         -0.2420   -1.1820   -0.0970 hn        1 471      0.479800
     47 HCA         2.1150    0.2180   -1.0990 hx        1 471      0.115700
     48 HB1         2.3560   -1.2960    1.6070 hc        1 471      0.093700
     49 HB2         3.6340   -0.4140    0.6660 hc        1 471      0.093700
     50 HCD1        0.9810   -0.1390    3.1550 ha        1 471      0.134500
     51 HCD2        3.4770    2.0900    0.3990 ha        1 471      0.134500
     52 HCE1        0.4810    1.9640    4.4020 ha        1 471      0.176500
     53 HCE2        3.0090    4.1780    1.6400 ha        1 471      0.176500
     54 HC1F       -1.7060    0.8710   -2.7400 ha        1 471      0.212000
     55 H1B1       -0.7300    2.5880   -0.4490 hc        1 471      0.099700
     56 H1B2        1.0390    2.2070   -0.5830 hc        1 471      0.099700
     57 HIB3        0.0510    2.4900   -2.0840 hc        1 471      0.099700
     58 HC1I       -2.7790   -3.6550   -2.6390 ha        1 471      0.152000
     59 HC1J       -5.1750   -4.1650   -3.1580 ha        1 471      0.186500
     60 HC1L       -6.1450    0.0450   -2.8160 ha        1 471      0.186500
     61 HC1M       -3.7750    0.5670   -2.3010 ha        1 471      0.152000
     62 H3E1        2.2140    7.8390    7.1310 hc        1 471      0.070033
     63 H3E2        1.2890    9.4030    7.0070 hc        1 471      0.070033
     64 H3E3        3.0980    9.4350    7.1460 hc        1 471      0.070033
     65 HC3N        3.9710   11.9780    3.9180 ha        1 471      0.147000
     66 HC3M        4.8240   13.7230    2.3530 ha        1 471      0.143000
     67 HC3L        4.6700   13.3750   -0.1150 ha        1 471      0.145000
     68 HC3K        3.6600   11.2800   -1.0180 ha        1 471      0.143000
     69 HC3J        2.8040    9.5300    0.5340 ha        1 471      0.147000
     70 H3A1        3.0790    5.4470    3.5720 h1        1 471      0.063200
     71 H3A2        1.6760    5.8010    2.4310 h1        1 471      0.063200
     72 H3B1        0.2960    6.6210    4.3540 hc        1 471      0.072200
     73 H3B2        1.6140    6.2000    5.5250 hc        1 471      0.072200
     74 H4A1        3.0470   -2.3010   -0.5370 hx        1 471      0.143700
     75 H4A2        1.2800   -2.7430   -0.4730 hx        1 471      0.143700
     76 HN4B        1.0350   -2.0580   -2.7280 hn        1 471      0.463800
     77 H4D1        1.2290   -4.1770   -4.3840 hc        1 471      0.105700
     78 H4D2        2.4220   -2.9030   -4.9120 hc        1 471      0.105700
     79 H4E1        4.3020   -4.5590   -4.7240 hc        1 471      0.084367
     80 H4E2        2.9880   -5.1660   -5.8190 hc        1 471      0.084367
     81 H4E3        3.1460   -5.8280   -4.1350 hc        1 471      0.084367
     82 HN3         0.1910    0.1900    0.7800 hn        1 471      0.479800
     83 H4B2        2.5770   -1.4270   -2.8120 hn        1 471      0.463800
@<TRIPOS>BOND
     1    1    2 1   
     2    1   11 1   
     3    1   46 1   
     4    1   82 1   
     5    2    3 1   
     6    2   40 1   
     7    2   47 1   
     8    3    4 1   
     9    3   48 1   
    10    3   49 1   
    11    4    5 ar  
    12    4    6 ar  
    13    5    7 ar  
    14    5   50 1   
    15    6    8 ar  
    16    6   51 1   
    17    7    9 ar  
    18    7   52 1   
    19    8    9 ar  
    20    8   53 1   
    21    9   10 1   
    22   10   38 1   
    23   11   12 2   
    24   11   13 1   
    25   12   24 1   
    26   12   54 1   
    27   13   55 1   
    28   13   56 1   
    29   13   57 1   
    30   14   15 ar  
    31   14   23 ar  
    32   14   24 1   
    33   15   16 ar  
    34   15   58 1   
    35   16   17 ar  
    36   16   59 1   
    37   17   18 1   
    38   17   22 ar  
    39   18   19 1   
    40   18   20 1   
    41   18   21 1   
    42   22   23 ar  
    43   22   60 1   
    44   23   61 1   
    45   24   25 2   
    46   26   27 1   
    47   26   30 1   
    48   27   28 2   
    49   27   32 1   
    50   28   29 1   
    51   29   30 2   
    52   29   39 1   
    53   30   31 1   
    54   31   62 1   
    55   31   63 1   
    56   31   64 1   
    57   32   33 ar  
    58   32   37 ar  
    59   33   34 ar  
    60   33   65 1   
    61   34   35 ar  
    62   34   66 1   
    63   35   36 ar  
    64   35   67 1   
    65   36   37 ar  
    66   36   68 1   
    67   37   69 1   
    68   38   39 1   
    69   38   70 1   
    70   38   71 1   
    71   39   72 1   
    72   39   73 1   
    73   40   41 1   
    74   40   74 1   
    75   40   75 1   
    76   41   42 1   
    77   41   76 1   
    78   41   83 1   
    79   42   43 2   
    80   42   44 1   
    81   44   45 1   
    82   44   77 1   
    83   44   78 1   
    84   45   79 1   
    85   45   80 1   
    86   45   81 1   
@<TRIPOS>SUBSTRUCTURE
     1 471         1 TEMP              0 ****  ****    0 ROOT
