@<TRIPOS>MOLECULE
472
   43    37     1     0     0
SMALL
bcc


@<TRIPOS>ATOM
      1 C1         -4.1410   -1.9360   -0.6270 c3        1 472     -0.069000
      2 N1         -2.6990   -1.9070   -0.6270 n         1 472     -0.329000
      3 O1         -2.1810   -1.9510    1.7470 o         1 472     -0.313000
      4 C2         -1.8090   -1.9190    0.5920 c2        1 472      0.295000
      5 N2         -0.6760   -1.1390   -1.2680 n1        1 472     -0.262000
      6 C3         -0.3930   -1.3560    0.0670 c2        1 472      0.086000
      7 N3         -2.1890   -1.7410   -2.9690 n3        1 472     -0.310000
      8 C4         -1.9030   -1.4260   -1.6270 c2        1 472      0.184000
      9 N4          2.4550   -4.5270    0.0270 n1        1 472     -0.136000
     10 C5          0.7620   -2.3610    0.2760 c2        1 472     -0.053500
     11 N5          2.6120    4.8120   -1.0690 n1        1 472     -0.136000
     12 C6          1.7650   -2.3380   -0.6510 c2        1 472     -0.127000
     13 C7          2.6200   -3.4300   -0.7770 c1        1 472     -0.107000
     14 C8          1.4550   -4.5500    0.9520 c1        1 472     -0.068500
     15 C9          0.5980   -3.4590    1.0810 c1        1 472     -0.130000
     16 C10         0.1190   -0.1110    0.8210 c2        1 472     -0.053500
     17 C11         0.2520   -0.1440    2.1920 c2        1 472     -0.127000
     18 C12         0.7020    0.9750    2.8720 c1        1 472     -0.107000
     19 C13         1.0200    2.1340    2.1700 c1        1 472     -0.097000
     20 C14         0.8860    2.1670    0.7970 c1        1 472     -0.065000
     21 C15         0.4360    1.0470    0.1200 c1        1 472     -0.130000
     22 C16         1.1130    3.3620    0.0990 c1        1 472     -0.065000
     23 C17         0.1230    4.3050    0.0150 c1        1 472     -0.097000
     24 C18         0.3680    5.4990   -0.6060 c1        1 472     -0.127000
     25 C19         1.6230    5.7550   -1.1530 c1        1 472     -0.127000
     26 C20         2.3700    3.6210   -0.4500 c1        1 472     -0.068500
     27 H1         -4.4530   -2.6040   -1.2670 h1        1 472      0.092667
     28 H1A        -4.4580   -2.1640    0.2600 h1        1 472      0.092667
     29 H1B        -4.4880   -1.0500   -0.8820 h1        1 472      0.092667
     30 HN3        -3.0450   -1.8350   -3.2350 hn        1 472      0.211500
     31 HN3A       -1.5260   -1.7710   -3.5730 hn        1 472      0.211500
     32 H6          1.8840   -1.5490   -1.2300 ha        1 472      0.158000
     33 H7          3.3320   -3.4150   -1.4350 ha        1 472      0.148500
     34 H8          1.3390   -5.3340    1.5260 ha        1 472      0.162000
     35 H9         -0.1270   -3.4770    1.7520 ha        1 472      0.160000
     36 H11         0.0260   -0.9660    2.6900 ha        1 472      0.158000
     37 H12         0.7950    0.9520    3.8260 ha        1 472      0.148500
     38 H13         1.3330    2.9150    2.6430 ha        1 472      0.138000
     39 H15         0.3430    1.0700   -0.8340 ha        1 472      0.160000
     40 H17        -0.7770    4.1200    0.4070 ha        1 472      0.138000
     41 H18        -0.3430    6.1760   -0.6670 ha        1 472      0.151000
     42 H19         1.7980    6.6030   -1.5940 ha        1 472      0.151000
     43 H20         3.0810    2.9440   -0.3910 ha        1 472      0.162000
@<TRIPOS>BOND
     1    1    2 1   
     2    1   27 1   
     3    1   28 1   
     4    1   29 1   
     5    2    4 1   
     6    2    8 1   
     7    3    4 1   
     8    4    6 1   
     9    5    8 1   
    10    6   10 1   
    11    6   16 1   
    12    7    8 1   
    13    7   30 1   
    14    7   31 1   
    15    9   14 1   
    16   10   12 1   
    17   10   15 1   
    18   11   26 1   
    19   12   13 1   
    20   12   32 1   
    21   13   33 1   
    22   14   34 1   
    23   15   35 1   
    24   16   17 1   
    25   16   21 1   
    26   17   18 1   
    27   17   36 1   
    28   18   37 1   
    29   19   20 1   
    30   19   38 1   
    31   21   39 1   
    32   22   23 1   
    33   23   40 1   
    34   24   25 1   
    35   24   41 1   
    36   25   42 1   
    37   26   43 1   
@<TRIPOS>SUBSTRUCTURE
     1 472         1 TEMP              0 ****  ****    0 ROOT
