@<TRIPOS>MOLECULE
472
   44    46     1     0     0
SMALL
bcc


@<TRIPOS>ATOM
      1 C1          0.0000    0.0000    0.0000 c3        1 472     -0.082000
      2 N1          1.4650    0.0000    0.0000 n         1 472      0.052000
      3 O1          1.8600    0.0020    2.2650 o         1 472     -0.239000
      4 C2          2.2330    0.0000    1.1100 c2        1 472      0.227000
      5 N2          3.5170   -0.0020   -0.8610 n2        1 472      0.004000
      6 C3          3.6610   -0.0000    0.6030 c3        1 472      0.050000
      7 N3          1.7390   -0.0110   -2.4050 nz        1 472      0.988000
      8 C4          2.2470   -0.0090   -1.1280 c2        1 472     -0.387000
      9 N4          5.6830    3.4960    1.8940 n2        1 472     -0.054000
     10 C5          4.3800    1.2420    1.0620 c2        1 472     -0.054000
     11 N5          9.0380    3.6270   -1.5640 n2        1 472     -0.109000
     12 C6          3.7760    2.4940    0.9620 c2        1 472     -0.201000
     13 C7          4.5520    3.6170    1.2270 c2        1 472     -0.017500
     14 C8          6.0910    2.2780    2.3210 c2        1 472     -0.017500
     15 C9          5.6890    1.1470    1.4100 c2        1 472     -0.201000
     16 C10         4.3910   -1.2360    1.0640 c2        1 472     -0.078000
     17 C11         3.6750   -2.3530    1.4690 c2        1 472     -0.129000
     18 C12         4.3470   -3.5250    1.8140 c2        1 472     -0.062000
     19 C13         5.7350   -3.5750    1.7530 c2        1 472     -0.070000
     20 C14         6.4540   -2.4560    1.3480 c1        1 472     -0.046000
     21 C15         5.7830   -1.2850    1.0030 c2        1 472     -0.181000
     22 C16         8.2970    1.6310   -0.5050 c1        1 472     -0.013000
     23 C17         9.4050    1.6320    0.2850 c2        1 472     -0.071000
     24 C18        10.3280    2.6220    0.1570 c2        1 472     -0.120000
     25 C19        10.1390    3.6290   -0.7800 c2        1 472     -0.049000
     26 C20         8.1130    2.6380   -1.4380 c2        1 472     -0.158000
     27 H1         -0.3610   -0.3970    0.9410 h1        1 472      0.072333
     28 H1A        -0.3610    1.0140   -0.1260 h1        1 472      0.072333
     29 H1B        -0.3610   -0.6160   -0.8150 h1        1 472      0.072333
     30 HN3         1.2570   -0.8730   -2.5710 hn        1 472      0.017667
     31 HN3A        1.1010    0.7520   -2.5120 hn        1 472      0.017667
     32 H6          2.7910    2.5860    0.5200 ha        1 472      0.162000
     33 H7          4.1150    4.6060    1.1590 h4        1 472      0.124000
     34 H8          7.1080    2.3400    2.6890 h4        1 472      0.124000
     35 H9          6.1780    0.1810    1.4210 ha        1 472      0.162000
     36 H11         2.5960   -2.3050    1.5480 ha        1 472      0.106000
     37 H12         3.7870   -4.3960    2.1320 ha        1 472      0.118000
     38 H13         6.2550   -4.4940    1.9960 ha        1 472      0.125000
     39 H15         6.3450   -0.3980    0.7380 ha        1 472      0.192000
     40 H17         9.5150    0.8870    1.0640 ha        1 472      0.129000
     41 H18        11.1940    2.6420    0.8080 ha        1 472      0.127000
     42 H19        10.8740    4.4190   -0.8810 h4        1 472      0.136000
     43 H20         7.7520    3.2820   -2.2310 h4        1 472      0.242000
     44 H33         2.4900   -0.0570   -3.0640 hn        1 472      0.017667
@<TRIPOS>BOND
     1    1    2 1   
     2    1   27 1   
     3    1   28 1   
     4    1   29 1   
     5    2    4 1   
     6    2    8 1   
     7    3    4 1   
     8    4    6 1   
     9    5    6 1   
    10    5    8 1   
    11    6   10 1   
    12    6   16 1   
    13    7    8 1   
    14    7   30 1   
    15    7   31 1   
    16    7   44 1   
    17    9   13 1   
    18    9   14 1   
    19   10   12 1   
    20   10   15 1   
    21   11   25 1   
    22   11   26 1   
    23   12   13 1   
    24   12   32 1   
    25   13   33 1   
    26   14   15 1   
    27   14   34 1   
    28   15   35 1   
    29   16   17 1   
    30   16   21 1   
    31   17   18 1   
    32   17   36 1   
    33   18   19 1   
    34   18   37 1   
    35   19   20 1   
    36   19   38 1   
    37   20   21 1   
    38   21   39 1   
    39   22   23 1   
    40   22   26 1   
    41   23   24 1   
    42   23   40 1   
    43   24   25 1   
    44   24   41 1   
    45   25   42 1   
    46   26   43 1   
@<TRIPOS>SUBSTRUCTURE
     1 472         1 TEMP              0 ****  ****    0 ROOT
