@<TRIPOS>MOLECULE
472
   43    46     1     0     0
SMALL
bcc


@<TRIPOS>ATOM
      1 C1          2.6350    2.1550    2.7620 c3        1 472      0.086300
      2 N1          2.2420    1.6110    1.5060 n         1 472     -0.440300
      3 O1          0.8220   -0.1000    2.2210 o         1 472     -0.586500
      4 C2          1.4520    0.4550    1.3190 c         1 472      0.687500
      5 N2          2.4930    1.1160   -0.7570 n2        1 472     -0.671900
      6 C3          1.5540    0.0960   -0.2120 c3        1 472      0.173800
      7 N3          3.8320    2.9340    0.1520 nh        1 472     -0.870800
      8 C4          2.8690    1.9160    0.2430 c2        1 472      0.627800
      9 N4          2.9720   -3.9860   -0.6440 nb        1 472     -0.659000
     10 C5          2.0740   -1.3190   -0.3580 ca        1 472     -0.044300
     11 N5         -4.7740   -0.2410    1.8160 nb        1 472     -0.662000
     12 C6          3.0400   -1.6520   -1.3150 ca        1 472     -0.223800
     13 C7          3.4550   -2.9930   -1.4130 ca        1 472      0.385700
     14 C8          2.0360   -3.6520    0.2660 ca        1 472      0.385700
     15 C9          1.5550   -2.3440    0.4460 ca        1 472     -0.223800
     16 C10         0.2070    0.1920   -0.9010 ca        1 472     -0.074300
     17 C11         0.1780    0.1770   -2.3030 ca        1 472     -0.089000
     18 C12        -1.0390    0.2560   -2.9770 ca        1 472     -0.136000
     19 C13        -2.2330    0.3490   -2.2650 ca        1 472     -0.110000
     20 C14        -2.2160    0.3600   -0.8640 cp        1 472     -0.039000
     21 C15        -0.9890    0.2800   -0.1880 ca        1 472     -0.110000
     22 C16        -3.4620    0.4530   -0.1130 cp        1 472     -0.151300
     23 C17        -4.5180    1.2690   -0.5470 ca        1 472     -0.086000
     24 C18        -5.6910    1.3220    0.2060 ca        1 472     -0.247300
     25 C19        -5.7730    0.5510    1.3790 ca        1 472      0.393200
     26 C20        -3.6480   -0.2820    1.0820 ca        1 472      0.406200
     27 H1          3.7350    2.0090    2.9410 h1        1 472      0.053700
     28 H1A         2.4060    3.2540    2.7880 h1        1 472      0.053700
     29 H1B         2.0570    1.6390    3.5760 h1        1 472      0.053700
     30 HN3         4.0570    3.1920   -0.7870 hn        1 472      0.415800
     31 HN3A        3.6680    3.7100    0.7560 hn        1 472      0.415800
     32 H6          3.4760   -0.8990   -1.9860 ha        1 472      0.163500
     33 H7          4.2190   -3.2880   -2.1550 h4        1 472      0.023100
     34 H8          1.6490   -4.4810    0.8860 h4        1 472      0.023100
     35 H9          0.7880   -2.1360    1.2070 ha        1 472      0.163500
     36 H11         1.1180    0.0980   -2.8720 ha        1 472      0.149000
     37 H12        -1.0560    0.2420   -4.0770 ha        1 472      0.136000
     38 H13        -3.1910    0.4040   -2.8030 ha        1 472      0.135000
     39 H15        -0.9900    0.2840    0.9150 ha        1 472      0.155000
     40 H17        -4.4180    1.8640   -1.4670 ha        1 472      0.140000
     41 H18        -6.5340    1.9520   -0.1050 ha        1 472      0.143000
     42 H19        -6.6840    0.5630    2.0040 h4        1 472      0.022100
     43 H20        -2.8480   -0.9440    1.4640 h4        1 472      0.031100
@<TRIPOS>BOND
     1    1    2 1   
     2    1   27 1   
     3    1   28 1   
     4    1   29 1   
     5    2    4 1   
     6    2    8 1   
     7    3    4 2   
     8    4    6 1   
     9    5    6 1   
    10    5    8 2   
    11    6   10 1   
    12    6   16 1   
    13    7    8 1   
    14    7   30 1   
    15    7   31 1   
    16    9   13 ar  
    17    9   14 ar  
    18   10   12 ar  
    19   10   15 ar  
    20   11   25 ar  
    21   11   26 ar  
    22   12   13 ar  
    23   12   32 1   
    24   13   33 1   
    25   14   15 ar  
    26   14   34 1   
    27   15   35 1   
    28   16   17 ar  
    29   16   21 ar  
    30   17   18 ar  
    31   17   36 1   
    32   18   19 ar  
    33   18   37 1   
    34   19   20 ar  
    35   19   38 1   
    36   20   21 ar  
    37   20   22 1   
    38   21   39 1   
    39   22   23 ar  
    40   22   26 ar  
    41   23   24 ar  
    42   23   40 1   
    43   24   25 ar  
    44   24   41 1   
    45   25   42 1   
    46   26   43 1   
@<TRIPOS>SUBSTRUCTURE
     1 472         1 TEMP              0 ****  ****    0 ROOT
