@<TRIPOS>MOLECULE
472
   44    47     1     0     0
SMALL
bcc


@<TRIPOS>ATOM
      1 C1          0.1140    0.1670    0.8770 c3        1 472      0.057300
      2 N1          1.5000   -0.1070    0.6870 n         1 472     -0.433300
      3 O1          2.3840    0.7580    2.6710 o         1 472     -0.491500
      4 C2          2.5730    0.3430    1.5380 c         1 472      0.691500
      5 N2          3.4230   -0.3610   -0.6180 n2        1 472     -0.522900
      6 C3          3.9030    0.1460    0.7140 c3        1 472      0.195800
      7 N3          1.2890   -0.9590   -1.6730 n4        1 472     -0.780600
      8 C4          2.1090   -0.4540   -0.5490 c2        1 472      0.474800
      9 N4          6.0050    3.9280    0.4370 nb        1 472     -0.631000
     10 C5          4.6220    1.4710    0.5940 ca        1 472     -0.075300
     11 N5          3.4360   -3.5990    6.1610 nb        1 472     -0.656000
     12 C6          5.2440    1.8670   -0.5980 ca        1 472     -0.230300
     13 C7          5.9170    3.1030   -0.6240 ca        1 472      0.406700
     14 C8          5.4170    3.5260    1.5790 ca        1 472      0.406700
     15 C9          4.7180    2.3110    1.7100 ca        1 472     -0.230300
     16 C10         4.7920   -0.8940    1.3540 ca        1 472     -0.114300
     17 C11         6.0870   -1.0640    0.8490 ca        1 472     -0.089000
     18 C12         6.9320   -2.0150    1.4180 ca        1 472     -0.120000
     19 C13         6.4940   -2.7990    2.4840 ca        1 472     -0.089000
     20 C14         5.1960   -2.6400    2.9910 cp        1 472     -0.013000
     21 C15         4.3460   -1.6840    2.4150 ca        1 472     -0.111000
     22 C16         4.7290   -3.4540    4.1060 cp        1 472     -0.180300
     23 C17         5.0840   -4.8070    4.2240 ca        1 472     -0.078000
     24 C18         4.6090   -5.5420    5.3090 ca        1 472     -0.240300
     25 C19         3.7860   -4.8970    6.2520 ca        1 472      0.410200
     26 C20         3.9040   -2.9000    5.1120 ca        1 472      0.408200
     27 H1         -0.2490    0.9770    0.1870 h1        1 472      0.072700
     28 H1A        -0.4900   -0.7660    0.7120 h1        1 472      0.072700
     29 H1B        -0.0320    0.5080    1.9420 h1        1 472      0.072700
     30 HN3         0.8840   -1.8670   -1.4090 hn        1 472      0.485133
     31 HN3A        0.5370   -0.2880   -1.8740 hn        1 472      0.485133
     32 H6          5.2410    1.2410   -1.5000 ha        1 472      0.161500
     33 H7          6.4180    3.4510   -1.5460 h4        1 472      0.042100
     34 H8          5.5130    4.2140    2.4410 h4        1 472      0.042100
     35 H9          4.2730    2.0390    2.6800 ha        1 472      0.161500
     36 H11         6.4390   -0.4400    0.0120 ha        1 472      0.149000
     37 H12         7.9540   -2.1420    1.0270 ha        1 472      0.154000
     38 H13         7.1720   -3.5390    2.9380 ha        1 472      0.154000
     39 H15         3.3310   -1.5630    2.8270 ha        1 472      0.140000
     40 H17         5.7260   -5.2830    3.4680 ha        1 472      0.142000
     41 H18         4.8700   -6.6020    5.4330 ha        1 472      0.155000
     42 H19         3.3880   -5.4420    7.1280 h4        1 472      0.035100
     43 H20         3.6150   -1.8330    5.0820 h4        1 472      0.025100
     44 H33         1.8810   -1.0770   -2.5100 hn        1 472      0.485133
@<TRIPOS>BOND
     1    1    2 1   
     2    1   27 1   
     3    1   28 1   
     4    1   29 1   
     5    2    4 1   
     6    2    8 1   
     7    3    4 2   
     8    4    6 1   
     9    5    6 1   
    10    5    8 2   
    11    6   10 1   
    12    6   16 1   
    13    7    8 1   
    14    7   30 1   
    15    7   31 1   
    16    7   44 1   
    17    9   13 ar  
    18    9   14 ar  
    19   10   12 ar  
    20   10   15 ar  
    21   11   25 ar  
    22   11   26 ar  
    23   12   13 ar  
    24   12   32 1   
    25   13   33 1   
    26   14   15 ar  
    27   14   34 1   
    28   15   35 1   
    29   16   17 ar  
    30   16   21 ar  
    31   17   18 ar  
    32   17   36 1   
    33   18   19 ar  
    34   18   37 1   
    35   19   20 ar  
    36   19   38 1   
    37   20   21 ar  
    38   20   22 1   
    39   21   39 1   
    40   22   23 ar  
    41   22   26 ar  
    42   23   24 ar  
    43   23   40 1   
    44   24   25 ar  
    45   24   41 1   
    46   25   42 1   
    47   26   43 1   
@<TRIPOS>SUBSTRUCTURE
     1 472         1 TEMP              0 ****  ****    0 ROOT
