@<TRIPOS>MOLECULE
474
   62    59     1     0     0
SMALL
bcc


@<TRIPOS>ATOM
      1 C1         -0.8320    0.3070    0.8880 c3        1 474     -0.146000
      2 C2         -2.3500   -0.1120    0.7720 c3        1 474     -0.024000
      3 C3         -2.9130    0.4200   -0.4870 c2        1 474      0.306000
      4 N4         -4.0410    1.3000   -0.4500 n         1 474     -0.317000
      5 C5         -0.4170    0.3710    2.4200 c2        1 474      0.307000
      6 N6         -2.4540   -1.5120    0.7770 n3        1 474     -0.344000
      7 O7         -2.3650    0.1810   -1.5450 o         1 474     -0.378000
      8 O8         -0.4590   -0.6290    3.0990 o         1 474     -0.394000
      9 N9          0.0440    1.6320    3.0030 n         1 474     -0.330000
     10 C10         1.3770    1.7670    3.4070 c3        1 474     -0.080500
     11 C14        -0.9130    2.6690    3.3250 c3        1 474     -0.080500
     12 C18        -4.7320    1.6510    0.6140 c3        1 474     -0.054000
     13 C19        -6.1710    1.9920    0.0750 c3        1 474      0.248000
     14 C20        -6.0330    2.0510   -1.4590 c3        1 474     -0.219000
     15 C21        -4.7080    2.0500   -1.6890 c3        1 474     -0.028000
     16 F28        -7.0440    1.0200    0.4300 f         1 474     -0.162000
     17 C29         1.9200   -2.0800   -0.9080 c3        1 474     -0.059000
     18 C30         1.6660   -0.9390   -1.7080 c3        1 474     -0.149000
     19 C31         0.7690    0.0560   -0.9890 c3        1 474     -0.162000
     20 C32        -0.0610   -0.6040    0.2520 c3        1 474     -0.092000
     21 C33         1.2180   -1.0270    1.1370 c3        1 474     -0.162000
     22 C34         2.1350   -2.0540    0.4370 c3        1 474     -0.149000
     23 C48         5.9240   -1.8330   -1.9260 c1        1 474     -0.001000
     24 C49         5.4960   -2.3430   -0.6740 c1        1 474     -0.102000
     25 C50         4.2320   -2.8430   -0.5360 c1        1 474     -0.102000
     26 C51         3.3730   -2.8500   -1.6160 c1        1 474     -0.114000
     27 C52         3.7950   -2.3480   -2.8440 c1        1 474     -0.014000
     28 N53         5.0800   -1.8410   -2.9840 n2        1 474     -0.057000
     29 N54         5.6370   -1.0780   -3.9740 n1        1 474     -0.142000
     30 C55         6.8240   -0.6020   -3.5210 c1        1 474     -0.119000
     31 N56         7.0080   -1.0640   -2.2570 n1        1 474     -0.142000
     32 F62        -6.5800    3.1910    0.5570 f         1 474     -0.162000
     33 HN61       -2.9630   -1.7830    0.0610 hn        1 474      0.170000
     34 HN62       -2.8580   -1.7910    1.5690 hn        1 474      0.170000
     35 H2         -2.8460    0.2520    1.5290 h1        1 474      0.117000
     36 H211       -4.3750    2.9710   -1.7460 h1        1 474      0.105500
     37 H212       -4.5100    1.5660   -2.5240 h1        1 474      0.105500
     38 H201       -6.4400    2.8750   -1.8070 hc        1 474      0.122000
     39 H202       -6.4510    1.2650   -1.8690 hc        1 474      0.122000
     40 H181       -4.3290    2.4470    1.0380 h1        1 474      0.124500
     41 H182       -4.7760    0.9010    1.2580 h1        1 474      0.124500
     42 H1         -0.7060    1.1870    0.4780 hc        1 474      0.131000
     43 H101        1.9390    1.1490    2.8940 h1        1 474      0.085333
     44 H102        1.4520    1.5610    4.3620 h1        1 474      0.085333
     45 H103        1.6750    2.6910    3.2470 h1        1 474      0.085333
     46 H141       -0.7120    3.4780    2.7960 h1        1 474      0.085333
     47 H142       -1.8170    2.3560    3.1140 h1        1 474      0.085333
     48 H143       -0.8550    2.8830    4.2850 h1        1 474      0.085333
     49 H32        -0.5810   -1.3910   -0.0350 hc        1 474      0.113000
     50 H311        0.1300    0.4250   -1.6350 hc        1 474      0.089250
     51 H312        1.3290    0.7930   -0.6400 hc        1 474      0.089250
     52 H301        1.2280   -1.2230   -2.5420 hc        1 474      0.087750
     53 H302        2.5290   -0.4990   -1.9270 hc        1 474      0.087750
     54 H29         1.1760   -2.6870   -1.0550 hc        1 474      0.094000
     55 H52         3.1860   -2.3530   -3.6100 DU        1 474      0.194500
     56 H55         7.4090    0.0220   -3.9950 DU        1 474      0.194500
     57 H49         6.1070   -2.3370    0.0920 ha        1 474      0.157500
     58 H50         3.9630   -3.2740    0.3090 ha        1 474      0.157500
     59 H341        3.0650   -1.8180    0.6070 hc        1 474      0.087750
     60 H342        1.9590   -2.9410    0.8060 hc        1 474      0.087750
     61 H331        0.9030   -1.4100    1.9750 hc        1 474      0.089250
     62 H332        1.7460   -0.2140    1.3380 hc        1 474      0.089250
@<TRIPOS>BOND
     1    1    2 1   
     2    1    5 1   
     3    1   20 1   
     4    1   42 1   
     5    2    3 1   
     6    2    6 1   
     7    2   35 1   
     8    3    4 1   
     9    3    7 1   
    10    4   12 1   
    11    4   15 1   
    12    5    8 1   
    13    5    9 1   
    14    6   33 1   
    15    6   34 1   
    16    9   10 1   
    17    9   11 1   
    18   10   43 1   
    19   10   44 1   
    20   10   45 1   
    21   11   46 1   
    22   11   47 1   
    23   11   48 1   
    24   12   13 1   
    25   12   40 1   
    26   12   41 1   
    27   13   14 1   
    28   13   16 1   
    29   13   32 1   
    30   14   15 1   
    31   14   38 1   
    32   14   39 1   
    33   15   36 1   
    34   15   37 1   
    35   17   18 1   
    36   17   22 1   
    37   17   26 1   
    38   17   54 1   
    39   18   19 1   
    40   18   52 1   
    41   18   53 1   
    42   19   20 1   
    43   19   50 1   
    44   19   51 1   
    45   20   21 1   
    46   20   49 1   
    47   21   22 1   
    48   21   61 1   
    49   21   62 1   
    50   22   59 1   
    51   22   60 1   
    52   23   28 1   
    53   24   25 1   
    54   24   57 1   
    55   25   58 1   
    56   26   27 1   
    57   27   28 1   
    58   29   30 1   
    59   30   31 1   
@<TRIPOS>SUBSTRUCTURE
     1 474         1 TEMP              0 ****  ****    0 ROOT
