@<TRIPOS>MOLECULE
474
   64    67     1     0     0
SMALL
bcc


@<TRIPOS>ATOM
      1 C1          1.6870   -0.2860    0.5700 c3        1 474     -0.135700
      2 C2          0.1730   -0.2770    0.9250 c3        1 474      0.029500
      3 C3         -0.2480    1.1750    1.3130 c         1 474      0.636100
      4 N4         -1.5500    1.4250    1.6500 n         1 474     -0.420800
      5 C5          2.4380    0.1020    1.8360 c         1 474      0.559100
      6 N6         -0.6720   -0.7860   -0.1960 n4        1 474     -0.831600
      7 O7          0.6300    2.0540    1.2130 o         1 474     -0.594100
      8 O8          2.1130   -0.2210    2.9700 o         1 474     -0.402100
      9 N9          3.6830    0.9420    1.6740 n4        1 474     -0.574200
     10 C10         4.6900    0.6020    2.7210 c3        1 474      0.084100
     11 C14         3.3510    2.3960    1.7240 c3        1 474      0.084100
     12 C18        -2.4430    0.4270    2.2030 c3        1 474     -0.021000
     13 C19        -3.3310    1.1460    3.3070 c3        1 474      0.431600
     14 C20        -3.0270    2.6600    3.1420 c3        1 474     -0.145400
     15 C21        -1.9420    2.7800    2.0730 c3        1 474      0.071000
     16 F28        -3.0360    0.6610    4.5570 f         1 474     -0.199300
     17 C29         3.7620   -4.1190   -0.0010 c3        1 474      0.006600
     18 C30         4.1040   -2.9260   -0.8880 c3        1 474     -0.081900
     19 C31         3.6730   -1.6270   -0.2340 c3        1 474     -0.083900
     20 C32         2.1710   -1.6410    0.0380 c3        1 474     -0.094700
     21 C33         1.8320   -2.8130    0.9510 c3        1 474     -0.083900
     22 C34         2.2740   -4.1250    0.3310 c3        1 474     -0.081900
     23 C48         4.9140   -7.8100   -1.8850 cc        1 474     -0.020300
     24 C49         3.9700   -6.9480   -2.5270 cc        1 474     -0.081000
     25 C50         3.6140   -5.7790   -1.9150 cd        1 474     -0.115000
     26 C51         4.1650   -5.4000   -0.6510 cd        1 474     -0.178300
     27 C52         5.0800   -6.2200   -0.0140 cc        1 474      0.000700
     28 N53         5.4630   -7.4060   -0.6000 na        1 474      0.156000
     29 N54         6.3270   -8.3430   -0.1630 nc        1 474     -0.564100
     30 C55         6.3130   -9.2950   -1.1460 cd        1 474      0.545200
     31 N56         5.4610   -9.0080   -2.2200 nd        1 474     -0.350300
     32 F62        -4.6540    0.8250    3.1490 f         1 474     -0.199300
     33 HN61       -0.3980   -1.7520   -0.4290 hn        1 474      0.479467
     34 HN62       -0.5580   -0.1950   -1.0290 hn        1 474      0.479467
     35 H2          0.0130   -0.9550    1.8240 hx        1 474      0.156700
     36 H211       -2.3290    3.3180    1.1620 h1        1 474      0.095700
     37 H212       -1.0470    3.3420    2.4620 h1        1 474      0.095700
     38 H201       -2.6840    3.0860    4.1190 hc        1 474      0.119200
     39 H202       -3.9580    3.2010    2.8310 hc        1 474      0.119200
     40 H181       -3.1370    0.0530    1.4000 h1        1 474      0.080700
     41 H182       -1.8970   -0.4310    2.6780 h1        1 474      0.080700
     42 H1          1.8660    0.4980   -0.2240 hc        1 474      0.115700
     43 H101        4.2680    0.8310    3.7380 hx        1 474      0.120033
     44 H102        5.6170    1.2150    2.5500 hx        1 474      0.120033
     45 H103        4.9390   -0.4920    2.6580 hx        1 474      0.120033
     46 H141        4.3060    2.9890    1.7530 hx        1 474      0.120033
     47 H142        2.7560    2.6780    0.8130 hx        1 474      0.120033
     48 H143        2.7440    2.6100    2.6450 hx        1 474      0.120033
     49 H32         1.6750   -1.8060   -0.9640 hc        1 474      0.066700
     50 H311        4.2330   -1.5170    0.7330 hc        1 474      0.040450
     51 H312        3.9330   -0.7680   -0.9060 hc        1 474      0.040450
     52 H29         4.3310   -4.0060    0.9680 hc        1 474      0.056700
     53 H52         5.5370   -5.9770    0.9640 h4        1 474      0.178000
     54 H55         6.9180  -10.2120   -1.1040 h5        1 474      0.100800
     55 H49         3.5630   -7.2640   -3.5000 ha        1 474      0.181000
     56 H50         2.8900   -5.1060   -2.3970 ha        1 474      0.126000
     57 H341        2.0580   -4.9600    1.0490 hc        1 474      0.074950
     58 H342        1.6830   -4.3240   -0.6020 hc        1 474      0.074950
     59 H331        2.3340   -2.6740    1.9450 hc        1 474      0.040450
     60 H332        0.7270   -2.8600    1.1400 hc        1 474      0.040450
     61 H301        5.2120   -2.9000   -1.0670 hc        1 474      0.074950
     62 H63        -1.6640   -0.7800    0.0820 hn        1 474      0.479467
     63 H91         4.0910    0.7320    0.7510 hn        1 474      0.460800
     64 H302        3.6080   -3.0350   -1.8880 hc        1 474      0.074950
@<TRIPOS>BOND
     1    1    2 1   
     2    1    5 1   
     3    1   20 1   
     4    1   42 1   
     5    2    3 1   
     6    2    6 1   
     7    2   35 1   
     8    3    4 1   
     9    3    7 2   
    10    4   12 1   
    11    4   15 1   
    12    5    8 2   
    13    5    9 1   
    14    6   33 1   
    15    6   34 1   
    16    6   62 1   
    17    9   10 1   
    18    9   11 1   
    19    9   63 1   
    20   10   43 1   
    21   10   44 1   
    22   10   45 1   
    23   11   46 1   
    24   11   47 1   
    25   11   48 1   
    26   12   13 1   
    27   12   40 1   
    28   12   41 1   
    29   13   14 1   
    30   13   16 1   
    31   13   32 1   
    32   14   15 1   
    33   14   38 1   
    34   14   39 1   
    35   15   36 1   
    36   15   37 1   
    37   17   18 1   
    38   17   22 1   
    39   17   26 1   
    40   17   52 1   
    41   18   19 1   
    42   18   61 1   
    43   18   64 1   
    44   19   20 1   
    45   19   50 1   
    46   19   51 1   
    47   20   21 1   
    48   20   49 1   
    49   21   22 1   
    50   21   59 1   
    51   21   60 1   
    52   22   57 1   
    53   22   58 1   
    54   23   24 1   
    55   23   28 1   
    56   23   31 2   
    57   24   25 2   
    58   24   55 1   
    59   25   26 1   
    60   25   56 1   
    61   26   27 2   
    62   27   28 1   
    63   27   53 1   
    64   28   29 1   
    65   29   30 2   
    66   30   31 1   
    67   30   54 1   
@<TRIPOS>SUBSTRUCTURE
     1 474         1 TEMP              0 ****  ****    0 ROOT
