@<TRIPOS>MOLECULE
474
   64    67     1     0     0
SMALL
bcc


@<TRIPOS>ATOM
      1 C1          1.5550   -0.3110    0.3670 c3        1 474     -0.148700
      2 C2          0.0110   -0.2870    0.5090 c3        1 474      0.037500
      3 C3         -0.4210    1.1740    0.8490 c         1 474      0.606100
      4 N4         -1.3910    1.3840    1.7730 n         1 474     -0.414800
      5 C5          2.1310    0.0180    1.7360 c         1 474      0.546100
      6 N6         -0.6790   -0.6700   -0.7620 nz        1 474     -0.829600
      7 O7          0.1150    2.0740    0.1680 o         1 474     -0.593100
      8 O8          1.6730   -0.3580    2.8050 o         1 474     -0.399100
      9 N9          3.3630    0.8930    1.7600 nx        1 474     -0.577200
     10 C10         4.2470    0.5560    2.9130 c3        1 474      0.076100
     11 C14         2.9680    2.3310    1.8000 c3        1 474      0.076100
     12 C18        -1.8110    0.4210    2.7690 c3        1 474     -0.005000
     13 C19        -2.5500    1.2330    3.9130 c3        1 474      0.430600
     14 C20        -2.6270    2.6970    3.3950 c3        1 474     -0.143400
     15 C21        -1.8590    2.7420    2.0750 c3        1 474      0.081000
     16 F28        -1.8760    1.1150    5.1040 f         1 474     -0.200800
     17 C29         3.6520   -4.1510   -0.0210 c3        1 474      0.006600
     18 C30         4.1410   -2.9340   -0.8000 c3        1 474     -0.081900
     19 C31         3.6220   -1.6510   -0.1790 c3        1 474     -0.083900
     20 C32         2.0960   -1.6530   -0.1440 c3        1 474     -0.091700
     21 C33         1.6020   -2.8530    0.6520 c3        1 474     -0.083900
     22 C34         2.1300   -4.1480    0.0630 c3        1 474     -0.081900
     23 C48         5.0710   -7.7920   -1.8160 cc        1 474     -0.020300
     24 C49         4.2480   -6.8990   -2.5730 cc        1 474     -0.081000
     25 C50         3.8050   -5.7470   -1.9880 cd        1 474     -0.115000
     26 C51         4.1470   -5.4150   -0.6400 cd        1 474     -0.178300
     27 C52         4.9410   -6.2650    0.1100 cc        1 474     -0.000300
     28 N53         5.4060   -7.4370   -0.4460 na        1 474      0.156000
     29 N54         6.1820   -8.3960    0.0940 nc        1 474     -0.564100
     30 C55         6.3220   -9.3170   -0.9100 cd        1 474      0.544200
     31 N56         5.6570   -8.9860   -2.0980 nd        1 474     -0.350300
     32 F62        -3.7760    0.6830    4.1900 f         1 474     -0.200800
     33 HN61       -0.3930   -1.6150   -1.0510 hn        1 474      0.482133
     34 HN62       -1.6980   -0.6540   -0.6170 hn        1 474      0.482133
     35 H2         -0.3000   -1.0250    1.3110 hx        1 474      0.150700
     36 H211       -0.9810    3.4450    2.1320 h1        1 474      0.090200
     37 H212       -2.5220    3.0830    1.2300 h1        1 474      0.090200
     38 H201       -2.1780    3.3920    4.1490 hc        1 474      0.117700
     39 H202       -3.6990    2.9870    3.2470 hc        1 474      0.117700
     40 H181       -2.5360   -0.3140    2.3240 h1        1 474      0.087200
     41 H182       -0.9360   -0.1240    3.2180 h1        1 474      0.087200
     42 H1          1.8470    0.4960   -0.3720 hc        1 474      0.122700
     43 H101        4.5920   -0.5080    2.8170 hx        1 474      0.122200
     44 H102        5.1330    1.2490    2.9070 hx        1 474      0.122200
     45 H103        3.6780    0.6800    3.8750 hx        1 474      0.122200
     46 H141        2.2470    2.5510    0.9650 hx        1 474      0.122200
     47 H142        2.4890    2.5570    2.7910 hx        1 474      0.122200
     48 H143        3.8900    2.9660    1.6820 hx        1 474      0.122200
     49 H32         1.7560   -1.7650   -1.2160 hc        1 474      0.070700
     50 H311        3.9910   -0.7760   -0.7750 hc        1 474      0.039700
     51 H312        4.0250   -1.5760    0.8660 hc        1 474      0.039700
     52 H29         4.0560   -4.0760    1.0310 hc        1 474      0.055700
     53 H52         5.2340   -6.0600    1.1550 h4        1 474      0.178000
     54 H55         6.9060  -10.2420   -0.8020 h5        1 474      0.100800
     55 H49         4.0020   -7.1790   -3.6100 ha        1 474      0.181000
     56 H50         3.1730   -5.0500   -2.5580 ha        1 474      0.127000
     57 H341        1.7920   -5.0060    0.7040 hc        1 474      0.075700
     58 H342        1.6980   -4.3050   -0.9610 hc        1 474      0.075700
     59 H331        0.4810   -2.8910    0.6480 hc        1 474      0.039700
     60 H332        1.9310   -2.7600    1.7210 hc        1 474      0.039700
     61 H301        3.8100   -3.0040   -1.8690 hc        1 474      0.075700
     62 H63        -0.4420    0.0030   -1.5050 hn        1 474      0.482133
     63 H91         3.8880    0.7210    0.8880 hn        1 474      0.465800
     64 H302        5.2640   -2.9170   -0.7990 hc        1 474      0.075700
@<TRIPOS>BOND
     1    1    2 1   
     2    1    5 1   
     3    1   20 1   
     4    1   42 1   
     5    2    3 1   
     6    2    6 1   
     7    2   35 1   
     8    3    4 1   
     9    3    7 2   
    10    4   12 1   
    11    4   15 1   
    12    5    8 2   
    13    5    9 1   
    14    6   33 1   
    15    6   34 1   
    16    6   62 1   
    17    9   10 1   
    18    9   11 1   
    19    9   63 1   
    20   10   43 1   
    21   10   44 1   
    22   10   45 1   
    23   11   46 1   
    24   11   47 1   
    25   11   48 1   
    26   12   13 1   
    27   12   40 1   
    28   12   41 1   
    29   13   14 1   
    30   13   16 1   
    31   13   32 1   
    32   14   15 1   
    33   14   38 1   
    34   14   39 1   
    35   15   36 1   
    36   15   37 1   
    37   17   18 1   
    38   17   22 1   
    39   17   26 1   
    40   17   52 1   
    41   18   19 1   
    42   18   61 1   
    43   18   64 1   
    44   19   20 1   
    45   19   50 1   
    46   19   51 1   
    47   20   21 1   
    48   20   49 1   
    49   21   22 1   
    50   21   59 1   
    51   21   60 1   
    52   22   57 1   
    53   22   58 1   
    54   23   24 1   
    55   23   28 1   
    56   23   31 2   
    57   24   25 2   
    58   24   55 1   
    59   25   26 1   
    60   25   56 1   
    61   26   27 2   
    62   27   28 1   
    63   27   53 1   
    64   28   29 1   
    65   29   30 2   
    66   30   31 1   
    67   30   54 1   
@<TRIPOS>SUBSTRUCTURE
     1 474         1 TEMP              0 ****  ****    0 ROOT
