@<TRIPOS>MOLECULE
474
   62    65     1     0     0
SMALL
bcc


@<TRIPOS>ATOM
      1 C1         -1.3270    1.2390   -0.0060 c3        1 474     -0.115700
      2 C2         -2.1930    0.9170   -1.2480 c3        1 474      0.126500
      3 C3         -3.6690    1.1680   -0.8330 c         1 474      0.606100
      4 N4         -4.6110    0.1730   -0.9960 n         1 474     -0.459800
      5 C5         -1.7360    0.2620    1.1000 c         1 474      0.658100
      6 N6         -1.8330    1.7030   -2.4050 n3        1 474     -0.897800
      7 O7         -4.0160    2.3040   -0.4460 o         1 474     -0.619100
      8 O8         -1.7300   -0.9710    0.8850 o         1 474     -0.632100
      9 N9         -2.1170    0.7420    2.3410 n         1 474     -0.469800
     10 C10        -2.4800   -0.1690    3.3930 c3        1 474      0.072300
     11 C14        -2.2940    2.1430    2.5990 c3        1 474      0.072300
     12 C18        -4.2910   -1.2270   -1.1450 c3        1 474      0.032000
     13 C19        -5.6030   -2.0390   -0.8250 c3        1 474      0.401600
     14 C20        -6.6670   -0.9760   -0.4260 c3        1 474     -0.139400
     15 C21        -5.9910    0.3870   -0.5870 c3        1 474      0.087000
     16 F28        -5.3970   -2.9850    0.1540 f         1 474     -0.231300
     17 C29         2.8930    0.1370    0.1830 c3        1 474     -0.013400
     18 C30         2.4490    1.4940    0.7170 c3        1 474     -0.069900
     19 C31         0.9580    1.5080    0.9750 c3        1 474     -0.082400
     20 C32         0.1740    1.1610   -0.2860 c3        1 474     -0.045700
     21 C33         0.6220   -0.1860   -0.8330 c3        1 474     -0.082400
     22 C34         2.1160   -0.2080   -1.0830 c3        1 474     -0.069900
     23 C48         7.1320    0.0910   -0.5480 cc        1 474     -0.025300
     24 C49         6.2980    1.0030   -1.2640 cc        1 474     -0.110000
     25 C50         4.9520    1.0040   -1.0200 cd        1 474     -0.094000
     26 C51         4.3660    0.1150   -0.0670 cd        1 474     -0.120300
     27 C52         5.1590   -0.7750    0.6340 cc        1 474     -0.039300
     28 N53         6.5240   -0.8040    0.4130 na        1 474      0.172000
     29 N54         7.4690   -1.5770    0.9760 nc        1 474     -0.585100
     30 C55         8.6340   -1.1690    0.3770 cd        1 474      0.517200
     31 N56         8.4780   -0.1500   -0.5630 nd        1 474     -0.385300
     32 F62        -5.9960   -2.8150   -1.8940 f         1 474     -0.231300
     33 HN61       -2.4140    1.4670   -3.1840 hn        1 474      0.365800
     34 HN62       -1.9120    2.6830   -2.2120 hn        1 474      0.365800
     35 H2         -2.0340   -0.1720   -1.5100 h1        1 474      0.097700
     36 H211       -6.0240    0.9730    0.3740 h1        1 474      0.064700
     37 H212       -6.5080    1.0000   -1.3780 h1        1 474      0.064700
     38 H201       -7.5590   -1.0630   -1.0920 hc        1 474      0.083200
     39 H202       -6.9880   -1.1440    0.6300 hc        1 474      0.083200
     40 H181       -3.9770   -1.4400   -2.2030 h1        1 474      0.091200
     41 H182       -3.4730   -1.5490   -0.4380 h1        1 474      0.091200
     42 H1         -1.5530    2.3040    0.2910 hc        1 474      0.081700
     43 H101       -1.8970    0.0780    4.3210 h1        1 474      0.048200
     44 H102       -3.5760   -0.0810    3.6210 h1        1 474      0.048200
     45 H103       -2.2550   -1.2270    3.0910 h1        1 474      0.048200
     46 H141       -3.0240    2.5930    1.8690 h1        1 474      0.048200
     47 H142       -2.6910    2.2910    3.6370 h1        1 474      0.048200
     48 H143       -1.3110    2.6820    2.5140 h1        1 474      0.048200
     49 H32         0.4100    1.9440   -1.0630 hc        1 474      0.068700
     50 H311        0.7110    0.7710    1.7840 hc        1 474      0.052950
     51 H312        0.6540    2.5250    1.3380 hc        1 474      0.052950
     52 H302        2.7130    2.2950   -0.0230 hc        1 474      0.045950
     53 H29         2.6420   -0.6400    0.9630 hc        1 474      0.058700
     54 H52         4.7590   -1.4860    1.3790 h4        1 474      0.180000
     55 H55         9.6110   -1.6070    0.6150 h5        1 474      0.078800
     56 H49         6.7720    1.6770   -1.9920 ha        1 474      0.167000
     57 H50         4.2890    1.6990   -1.5610 ha        1 474      0.148000
     58 H341        2.3750    0.5230   -1.8930 hc        1 474      0.045950
     59 H342        2.4170   -1.2280   -1.4390 hc        1 474      0.045950
     60 H331        0.3420   -1.0000   -0.1120 hc        1 474      0.052950
     61 H332        0.0930   -0.3920   -1.8000 hc        1 474      0.052950
     62 H301        2.9960    1.7200    1.6690 hc        1 474      0.045950
@<TRIPOS>BOND
     1    1    2 1   
     2    1    5 1   
     3    1   20 1   
     4    1   42 1   
     5    2    3 1   
     6    2    6 1   
     7    2   35 1   
     8    3    4 1   
     9    3    7 2   
    10    4   12 1   
    11    4   15 1   
    12    5    8 2   
    13    5    9 1   
    14    6   33 1   
    15    6   34 1   
    16    9   10 1   
    17    9   11 1   
    18   10   43 1   
    19   10   44 1   
    20   10   45 1   
    21   11   46 1   
    22   11   47 1   
    23   11   48 1   
    24   12   13 1   
    25   12   40 1   
    26   12   41 1   
    27   13   14 1   
    28   13   16 1   
    29   13   32 1   
    30   14   15 1   
    31   14   38 1   
    32   14   39 1   
    33   15   36 1   
    34   15   37 1   
    35   17   18 1   
    36   17   22 1   
    37   17   26 1   
    38   17   53 1   
    39   18   19 1   
    40   18   52 1   
    41   18   62 1   
    42   19   20 1   
    43   19   50 1   
    44   19   51 1   
    45   20   21 1   
    46   20   49 1   
    47   21   22 1   
    48   21   60 1   
    49   21   61 1   
    50   22   58 1   
    51   22   59 1   
    52   23   24 1   
    53   23   28 1   
    54   23   31 2   
    55   24   25 2   
    56   24   56 1   
    57   25   26 1   
    58   25   57 1   
    59   26   27 2   
    60   27   28 1   
    61   27   54 1   
    62   28   29 1   
    63   29   30 2   
    64   30   31 1   
    65   30   55 1   
@<TRIPOS>SUBSTRUCTURE
     1 474         1 TEMP              0 ****  ****    0 ROOT
