@<TRIPOS>MOLECULE
474
   64    67     1     0     0
SMALL
bcc


@<TRIPOS>ATOM
      1 C1          1.5500   -0.3110    0.3680 c3        1 474     -0.148700
      2 C2          0.0070   -0.2930    0.5080 c3        1 474      0.037500
      3 C3         -0.4320    1.1670    0.8450 c         1 474      0.607100
      4 N4         -1.4090    1.3740    1.7630 n         1 474     -0.414800
      5 C5          2.1240    0.0220    1.7370 c         1 474      0.547100
      6 N6         -0.6810   -0.6820   -0.7620 n4        1 474     -0.829600
      7 O7          0.1050    2.0690    0.1670 o         1 474     -0.593100
      8 O8          1.6660   -0.3540    2.8060 o         1 474     -0.399100
      9 N9          3.3530    0.9020    1.7610 n4        1 474     -0.577200
     10 C10         4.2370    0.5690    2.9150 c3        1 474      0.076100
     11 C14         2.9530    2.3380    1.8000 c3        1 474      0.076100
     12 C18        -1.8310    0.4100    2.7570 c3        1 474     -0.005000
     13 C19        -2.5830    1.2190    3.8950 c3        1 474      0.430600
     14 C20        -2.6610    2.6820    3.3770 c3        1 474     -0.143400
     15 C21        -1.8840    2.7310    2.0620 c3        1 474      0.081000
     16 F28        -1.9170    1.1030    5.0920 f         1 474     -0.200800
     17 C29         3.6630   -4.1420   -0.0150 c3        1 474      0.006600
     18 C30         4.1480   -2.9250   -0.7950 c3        1 474     -0.081900
     19 C31         3.6230   -1.6430   -0.1750 c3        1 474     -0.083900
     20 C32         2.0980   -1.6510   -0.1410 c3        1 474     -0.091700
     21 C33         1.6080   -2.8530    0.6560 c3        1 474     -0.083900
     22 C34         2.1410   -4.1460    0.0690 c3        1 474     -0.081900
     23 C48         5.0960   -7.7800   -1.8070 cc        1 474     -0.020300
     24 C49         4.2700   -6.8910   -2.5650 cc        1 474     -0.081000
     25 C50         3.8230   -5.7390   -1.9800 cd        1 474     -0.115000
     26 C51         4.1630   -5.4050   -0.6330 cd        1 474     -0.178300
     27 C52         4.9610   -6.2520    0.1170 cc        1 474     -0.000300
     28 N53         5.4300   -7.4220   -0.4380 na        1 474      0.156000
     29 N54         6.2100   -8.3780    0.1030 nc        1 474     -0.564100
     30 C55         6.3540   -9.2990   -0.9000 cd        1 474      0.544200
     31 N56         5.6870   -8.9720   -2.0880 nd        1 474     -0.350300
     32 F62        -3.8080    0.6650    4.1620 f         1 474     -0.200800
     33 HN61       -1.7000   -0.6690   -0.6180 hn        1 474      0.482133
     34 HN62       -0.4450   -0.0100   -1.5070 hn        1 474      0.482133
     35 H2         -0.3020   -1.0310    1.3120 hx        1 474      0.150700
     36 H211       -2.5410    3.0690    1.2120 h1        1 474      0.090200
     37 H212       -1.0080    3.4350    2.1260 h1        1 474      0.090200
     38 H201       -3.7320    2.9690    3.2200 hc        1 474      0.117700
     39 H202       -2.2190    3.3790    4.1330 hc        1 474      0.117700
     40 H181       -0.9560   -0.1310    3.2120 h1        1 474      0.087200
     41 H182       -2.5500   -0.3290    2.3070 h1        1 474      0.087200
     42 H1          1.8400    0.4960   -0.3720 hc        1 474      0.123700
     43 H101        5.1210    1.2640    2.9090 hx        1 474      0.122200
     44 H102        3.6670    0.6910    3.8770 hx        1 474      0.122200
     45 H103        4.5860   -0.4950    2.8200 hx        1 474      0.122200
     46 H141        2.2320    2.5560    0.9630 hx        1 474      0.122200
     47 H142        2.4720    2.5630    2.7900 hx        1 474      0.122200
     48 H143        3.8730    2.9760    1.6830 hx        1 474      0.122200
     49 H32         1.7580   -1.7660   -1.2120 hc        1 474      0.070700
     50 H311        4.0260   -1.5650    0.8700 hc        1 474      0.039700
     51 H312        3.9890   -0.7670   -0.7720 hc        1 474      0.039700
     52 H29         4.0670   -4.0650    1.0370 hc        1 474      0.055700
     53 H52         5.2530   -6.0440    1.1630 h4        1 474      0.178000
     54 H55         6.9420  -10.2220   -0.7900 h5        1 474      0.100800
     55 H49         4.0260   -7.1730   -3.6010 ha        1 474      0.181000
     56 H50         3.1880   -5.0460   -2.5510 ha        1 474      0.127000
     57 H341        1.8070   -5.0040    0.7110 hc        1 474      0.075700
     58 H342        1.7100   -4.3060   -0.9540 hc        1 474      0.075700
     59 H331        1.9370   -2.7560    1.7250 hc        1 474      0.039700
     60 H332        0.4870   -2.8950    0.6530 hc        1 474      0.039700
     61 H301        3.8170   -2.9970   -1.8640 hc        1 474      0.075700
     62 H63        -0.3920   -1.6270   -1.0480 hn        1 474      0.482133
     63 H91         3.8790    0.7310    0.8890 hn        1 474      0.465800
     64 H302        5.2700   -2.9040   -0.7940 hc        1 474      0.075700
@<TRIPOS>BOND
     1    1    2 1   
     2    1    5 1   
     3    1   20 1   
     4    1   42 1   
     5    2    3 1   
     6    2    6 1   
     7    2   35 1   
     8    3    4 1   
     9    3    7 2   
    10    4   12 1   
    11    4   15 1   
    12    5    8 2   
    13    5    9 1   
    14    6   33 1   
    15    6   34 1   
    16    6   62 1   
    17    9   10 1   
    18    9   11 1   
    19    9   63 1   
    20   10   43 1   
    21   10   44 1   
    22   10   45 1   
    23   11   46 1   
    24   11   47 1   
    25   11   48 1   
    26   12   13 1   
    27   12   40 1   
    28   12   41 1   
    29   13   14 1   
    30   13   16 1   
    31   13   32 1   
    32   14   15 1   
    33   14   38 1   
    34   14   39 1   
    35   15   36 1   
    36   15   37 1   
    37   17   18 1   
    38   17   22 1   
    39   17   26 1   
    40   17   52 1   
    41   18   19 1   
    42   18   61 1   
    43   18   64 1   
    44   19   20 1   
    45   19   50 1   
    46   19   51 1   
    47   20   21 1   
    48   20   49 1   
    49   21   22 1   
    50   21   59 1   
    51   21   60 1   
    52   22   57 1   
    53   22   58 1   
    54   23   24 1   
    55   23   28 1   
    56   23   31 2   
    57   24   25 2   
    58   24   55 1   
    59   25   26 1   
    60   25   56 1   
    61   26   27 2   
    62   27   28 1   
    63   27   53 1   
    64   28   29 1   
    65   29   30 2   
    66   30   31 1   
    67   30   54 1   
@<TRIPOS>SUBSTRUCTURE
     1 474         1 TEMP              0 ****  ****    0 ROOT
