@<TRIPOS>MOLECULE
475
   41    38     1     0     0
SMALL
bcc


@<TRIPOS>ATOM
      1 C2          1.6890    1.9940    2.9270 c2        1 475     -0.116500
      2 N2         -4.4410   -2.9930    0.0500 ns        1 475     -0.291000
      3 C3          0.2590   -1.5060   -0.6710 c2        1 475      0.352000
      4 C5          1.3970   -2.8030    1.0800 c2        1 475     -0.102000
      5 C4          0.8420   -2.7270   -0.1460 c2        1 475     -0.092000
      6 C10        -6.2100   -4.1830   -1.0890 c2        1 475     -0.178000
      7 C11        -7.4380   -4.9250   -0.8180 c2        1 475     -0.124000
      8 C12        -7.1620   -5.7790    0.2320 c2        1 475     -0.263000
      9 C13        -7.1270   -5.0990    1.5590 c1        1 475      0.120000
     10 N3         -6.1980   -4.1290    1.4080 n7        1 475     -0.240000
     11 C9         -5.6130   -3.7880    0.1120 c2        1 475      0.070000
     12 C8         -3.9340   -2.2050    1.0490 c2        1 475      0.307000
     13 O8         -4.4240   -2.0580    2.1830 o         1 475     -0.332000
     14 O7         -1.8210   -1.9360   -0.1390 o         1 475     -0.475000
     15 N1         -2.4100   -0.2790    1.3340 nt        1 475     -0.350000
     16 C1          1.3680    1.2630    1.8430 c2        1 475     -0.116500
     17 O5          0.5030    0.1870    1.8910 oh        1 475     -0.301500
     18 C6         -0.9520    0.3870    4.4280 c1        1 475     -0.073000
     19 O4          0.7810   -3.7480   -1.0760 oh        1 475     -0.278000
     20 O3         -0.2280   -1.4100   -1.8800 oh        1 475     -0.122000
     21 O2          2.5430    3.0590    2.9270 oh        1 475     -0.301500
     22 H2          1.7520    1.4160    0.8260 h4        1 475      0.164000
     23 HN2        -3.9480   -3.0210   -0.8200 hn        1 475      0.263000
     24 H3          1.2910    1.8240    3.9420 h4        1 475      0.164000
     25 H5          0.0890    0.1550    2.7870 ho        1 475      0.244000
     26 HO6        -2.8120    0.5780    4.9480 ho        1 475      0.197000
     27 H4          1.4210   -1.9290    1.7540 ha        1 475      0.173500
     28 H12        -6.3150   -6.4900    0.1140 ha        1 475      0.135000
     29 H13        -5.9840   -3.5270    2.1780 hn        1 475      0.272000
     30 HN1        -3.0190    0.0150    2.0690 hn        1 475      0.263000
     31 H1         -1.5570    0.2200    1.2090 hn        1 475      0.263000
     32 H6         -0.5910    0.4750    5.4730 ha        1 475      0.057000
     33 H6A         1.8460   -3.7320    1.4630 ha        1 475      0.173500
     34 HO4         0.9760   -4.5900   -0.6340 ho        1 475      0.264000
     35 HO3        -0.3030   -2.2830   -2.3340 ho        1 475      0.309000
     36 HO2         2.8970    3.1880    2.0340 ho        1 475      0.244000
     37 O6         -2.2070    0.4530    4.1820 oh        1 475     -0.148000
     38 C7         -2.6300   -1.4500    0.7050 c2        1 475      0.307000
     39 H10        -5.8620   -3.8880   -2.0810 ha        1 475      0.152000
     40 H121        0.2990   -0.5420   -0.1090 h4        1 475      0.243000
     41 H11        -8.4100   -4.5140   -1.1030 ha        1 475      0.168000
@<TRIPOS>BOND
     1    1   16 1   
     2    1   21 1   
     3    1   24 1   
     4    2   11 1   
     5    2   12 1   
     6    2   23 1   
     7    3    5 1   
     8    3   20 1   
     9    3   40 1   
    10    4    5 1   
    11    4   27 1   
    12    4   33 1   
    13    5   19 1   
    14    6    7 1   
    15    6   11 1   
    16    6   39 1   
    17    7    8 1   
    18    7   41 1   
    19    8    9 1   
    20    8   28 1   
    21    9   10 1   
    22   10   11 1   
    23   10   29 1   
    24   12   13 1   
    25   12   38 1   
    26   14   38 1   
    27   15   30 1   
    28   15   31 1   
    29   15   38 1   
    30   16   17 1   
    31   16   22 1   
    32   17   25 1   
    33   18   32 1   
    34   18   37 1   
    35   19   34 1   
    36   20   35 1   
    37   21   36 1   
    38   26   37 1   
@<TRIPOS>SUBSTRUCTURE
     1 475         1 TEMP              0 ****  ****    0 ROOT
