@<TRIPOS>MOLECULE
475
   42    41     1     0     0
SMALL
bcc


@<TRIPOS>ATOM
      1 C2        565.2130  108.7520   94.7020 c3        1 475      0.010000
      2 N2       -625.3150 -124.2650 -103.6570 n4        1 475     -0.055000
      3 C3        565.8520  108.8390   96.0720 c2        1 475      0.277000
      4 C5        566.5460  111.2500   96.1910 c3        1 475     -0.314000
      5 C4        565.8530  110.0900   96.9060 c3        1 475      0.018000
      6 C10      -627.6280 -123.3780 -103.7060 c2        1 475     -0.093000
      7 C11      -628.7850 -122.8970 -103.0240 c2        1 475     -0.092000
      8 C12      -628.7980 -122.8560 -101.6540 c2        1 475     -0.133000
      9 C13      -627.6520 -123.3040 -100.9010 c1        1 475     -0.041000
     10 N3       -626.5770 -123.7480 -101.5510 n3        1 475     -0.100000
     11 C9       -626.5320 -123.7930 -102.9620 c2        1 475     -0.146000
     12 C8       -624.9600 -125.6740 -103.2580 c2        1 475      0.214000
     13 O8       -624.5530 -125.8640 -102.1250 o         1 475     -0.151000
     14 O7       -625.4490 -126.3050 -105.5130 o         1 475     -0.317000
     15 N1       -624.9680 -128.0090 -104.0210 n         1 475     -0.352000
     16 C1        563.7400  109.2230   94.7550 c3        1 475     -0.014000
     17 O5        563.7720  110.6140   95.0050 oh        1 475     -0.363000
     18 C6        566.8080  112.3040   97.2230 c1        1 475      0.024000
     19 O4        566.4800  109.7160   98.1180 oh        1 475     -0.371000
     20 O3        566.3960  107.7390   96.5030 oh        1 475     -0.100000
     21 O2        565.1780  107.4270   94.2430 oh        1 475     -0.269000
     22 H2        563.1890  108.7000   95.5810 h1        1 475      0.127500
     23 HN2      -625.4820 -124.2430 -104.6800 hn        1 475      0.281000
     24 H3        565.8090  109.4390   94.0280 h1        1 475      0.158000
     25 H5        562.9820  111.0030   94.6050 ho        1 475      0.254000
     26 HO6       566.9840  113.7640   95.9570 ho        1 475      0.190000
     27 H4        564.7670  110.3650   97.1060 h1        1 475      0.189000
     28 H12      -629.6630 -122.4910 -101.0770 ha        1 475      0.197000
     29 H13      -625.7910 -124.0660 -101.0160 hn        1 475      0.282000
     30 HN1      -624.7150 -128.2660 -103.0950 hn        1 475      0.277500
     31 H1        563.2660  108.9770   93.7680 h1        1 475      0.127500
     32 H6        567.5380  110.9250   95.7720 hc        1 475      0.135000
     33 H6A       565.8940  111.5990   95.3440 hc        1 475      0.135000
     34 HO4       566.7630  110.5280   98.5840 ho        1 475      0.306000
     35 HO3       566.8050  107.8170   97.4090 ho        1 475      0.336000
     36 HO2       566.0490  107.1990   93.8850 ho        1 475      0.241000
     37 O6        567.0150  113.5260   96.9120 oh        1 475     -0.095000
     38 C7       -625.1500 -126.7220 -104.3800 c2        1 475      0.320000
     39 H10      -627.6350 -123.4050 -104.8080 ha        1 475      0.173000
     40 H22      -624.5330 -123.6340 -103.4300 hn        1 475      0.281000
     41 H121     -625.0720 -128.7220 -104.7120 hn        1 475      0.277500
     42 H11      -629.6450 -122.5680 -103.6320 ha        1 475      0.178000
@<TRIPOS>BOND
     1    1    3 1   
     2    1   16 1   
     3    1   21 1   
     4    1   24 1   
     5    2   11 1   
     6    2   12 1   
     7    2   23 1   
     8    2   40 1   
     9    3    5 1   
    10    3   20 1   
    11    4    5 1   
    12    4   18 1   
    13    4   32 1   
    14    4   33 1   
    15    5   19 1   
    16    5   27 1   
    17    6    7 1   
    18    6   11 1   
    19    6   39 1   
    20    7    8 1   
    21    7   42 1   
    22    8    9 1   
    23    8   28 1   
    24    9   10 1   
    25   10   11 1   
    26   10   29 1   
    27   12   13 1   
    28   12   38 1   
    29   14   38 1   
    30   15   30 1   
    31   15   38 1   
    32   15   41 1   
    33   16   17 1   
    34   16   22 1   
    35   16   31 1   
    36   17   25 1   
    37   18   37 1   
    38   19   34 1   
    39   20   35 1   
    40   21   36 1   
    41   26   37 1   
@<TRIPOS>SUBSTRUCTURE
     1 475         1 TEMP              0 ****  ****    0 ROOT
