@<TRIPOS>MOLECULE
475
   41    40     1     0     0
SMALL
bcc


@<TRIPOS>ATOM
      1 C2          0.4110   -0.1490   -0.6000 c2        1 475     -0.082000
      2 N2         -4.7530   -2.4260    1.1010 n         1 475     -0.285000
      3 C3          3.2340    0.2590    0.6040 c1        1 475      0.008000
      4 C5          2.0990   -1.9220    1.0020 c3        1 475     -0.026000
      5 C4          2.8890   -0.7740    1.6440 c3        1 475     -0.118000
      6 C10        -5.5860   -4.6430    1.6200 c2        1 475     -0.188000
      7 C11        -6.6640   -5.5400    1.8470 c2        1 475     -0.069000
      8 C12        -7.9560   -5.0820    1.7900 c2        1 475     -0.186000
      9 C13        -8.2220   -3.7020    1.5060 c1        1 475     -0.080000
     10 N3         -7.1950   -2.8710    1.2950 n3        1 475     -0.110000
     11 C9         -5.8560   -3.3010    1.3400 c2        1 475      0.034000
     12 C8         -4.8510   -1.0910    0.8590 c2        1 475      0.302000
     13 O8         -5.8760   -0.3970    0.7860 o         1 475     -0.276000
     14 O7         -2.5810   -0.1430    1.5130 os        1 475     -0.230000
     15 N1         -3.2840    0.2020   -0.5890 n3        1 475     -0.211000
     16 C1         -0.0100   -1.1880    0.1470 c2        1 475     -0.121000
     17 O5          0.6940   -1.7390    1.2000 os        1 475     -0.250000
     18 C6         -2.5950   -0.8800    2.7740 c3        1 475      0.123000
     19 O4          4.0920   -1.2610    2.2170 oh        1 475     -0.346000
     20 O3          4.4280    0.7060    0.4760 oh        1 475     -0.122000
     21 O2         -0.4870    0.3720   -1.5130 oh        1 475     -0.322000
     22 H2          2.2520   -0.2680    2.4270 h1        1 475      0.122000
     23 HN2        -3.8470   -2.8470    1.2000 hn        1 475      0.278000
     24 H3          1.4120    0.3230   -0.5310 h4        1 475      0.213000
     25 H5         -3.6310   -0.9560    3.1980 h2        1 475      0.160000
     26 HO6        -1.1960   -2.1490    2.3170 ho        1 475      0.276000
     27 H4          2.3430   -2.0250   -0.0850 h1        1 475      0.116000
     28 H12        -8.8240   -5.7370    1.9580 ha        1 475      0.178000
     29 H13        -7.4030   -1.9090    1.1010 hn        1 475      0.280000
     30 HN1        -3.9700    0.1620   -1.3190 hn        1 475      0.304000
     31 H1         -0.9970   -1.6660    0.0640 h4        1 475      0.129000
     32 H6         -1.8810   -0.2750    3.3970 h2        1 475      0.160000
     33 H6A         2.3260   -2.8850    1.5380 h1        1 475      0.116000
     34 HO4         3.8670   -1.7760    3.0010 ho        1 475      0.227000
     35 HO3         5.1130    0.3340    1.0780 ho        1 475      0.216000
     36 HO2         0.0280    0.8830   -2.1560 ho        1 475      0.251000
     37 O6         -2.1660   -2.1380    2.4070 oh        1 475     -0.340000
     38 C7         -3.5200   -0.3560    0.5830 c2        1 475      0.262000
     39 H10        -4.5560   -5.0260    1.6680 ha        1 475      0.150000
     40 H121       -2.4210    0.6980   -0.7710 hn        1 475      0.304000
     41 H11        -6.4250   -6.5940    2.0640 ha        1 475      0.156000
@<TRIPOS>BOND
     1    1   16 1   
     2    1   21 1   
     3    1   24 1   
     4    2   11 1   
     5    2   12 1   
     6    2   23 1   
     7    3    5 1   
     8    3   20 1   
     9    4    5 1   
    10    4   17 1   
    11    4   27 1   
    12    4   33 1   
    13    5   19 1   
    14    5   22 1   
    15    6    7 1   
    16    6   11 1   
    17    6   39 1   
    18    7    8 1   
    19    7   41 1   
    20    8    9 1   
    21    8   28 1   
    22    9   10 1   
    23   10   11 1   
    24   10   29 1   
    25   12   13 1   
    26   12   38 1   
    27   14   18 1   
    28   14   38 1   
    29   15   30 1   
    30   15   38 1   
    31   15   40 1   
    32   16   17 1   
    33   16   31 1   
    34   18   25 1   
    35   18   32 1   
    36   18   37 1   
    37   19   34 1   
    38   20   35 1   
    39   21   36 1   
    40   26   37 1   
@<TRIPOS>SUBSTRUCTURE
     1 475         1 TEMP              0 ****  ****    0 ROOT
