@<TRIPOS>MOLECULE
475
   40    41     1     0     0
SMALL
bcc


@<TRIPOS>ATOM
      1 C2         -2.5630   -1.5860    0.0370 c3        1 475      0.085100
      2 N2          3.1320    0.2050   -0.5860 n         1 475     -0.540400
      3 C3         -4.0130   -1.3400   -0.4110 c3        1 475      0.109100
      4 C5         -3.6380    1.1040    0.0180 c3        1 475      0.108100
      5 C4         -4.5720   -0.0860    0.2810 c3        1 475      0.122100
      6 C10         5.4680    0.6900   -1.0660 ca        1 475     -0.279300
      7 C11         6.8080    0.6160   -0.6980 ca        1 475     -0.069000
      8 C12         7.1570    0.0170    0.5120 ca        1 475     -0.268300
      9 C13         6.1240   -0.5000    1.3150 ca        1 475      0.424200
     10 N3          4.8220   -0.4570    0.9960 nb        1 475     -0.668000
     11 C9          4.4850    0.1430   -0.1870 ca        1 475      0.528200
     12 C8          2.0340    0.1910    0.2500 c         1 475      0.607100
     13 O8          2.0600    0.2380    1.4870 o         1 475     -0.533100
     14 O7          0.5710    0.5250   -1.6710 o         1 475     -0.576100
     15 N1         -0.3650   -0.4300    0.2210 n         1 475     -0.524900
     16 C1         -1.7260   -0.3070   -0.2470 c3        1 475      0.253500
     17 O5         -2.3180    0.7960    0.4690 os        1 475     -0.452600
     18 C6         -4.0760    2.3310    0.8240 c3        1 475      0.140400
     19 O4         -5.8390    0.2500   -0.2540 oh        1 475     -0.592800
     20 O3         -4.8460   -2.4180   -0.0220 oh        1 475     -0.604800
     21 O2         -2.1070   -2.6800   -0.7370 oh        1 475     -0.598800
     22 H2         -2.5370   -1.8420    1.1320 h1        1 475      0.064700
     23 HN2         2.9700    0.3350   -1.5630 hn        1 475      0.348500
     24 H3         -4.0500   -1.2180   -1.5290 h1        1 475      0.067700
     25 H5         -3.6180    1.3480   -1.0800 h1        1 475      0.075700
     26 HO6        -2.4030    3.2760    0.6500 ho        1 475      0.410000
     27 H4         -4.6630   -0.2770    1.3870 h1        1 475      0.062700
     28 H11         7.5830    1.0320   -1.3590 ha        1 475      0.142000
     29 H12         8.2030   -0.0530    0.8360 ha        1 475      0.149000
     30 H13         6.3470   -0.9880    2.2820 h4        1 475      0.029100
     31 HN1        -0.2490   -0.4730    1.2140 hn        1 475      0.333500
     32 H1         -1.7290   -0.0880   -1.3570 h2        1 475      0.100700
     33 H6         -5.1420    2.5720    0.5670 h1        1 475      0.065700
     34 H6A        -3.9750    2.1240    1.9220 h1        1 475      0.065700
     35 HO4        -6.3900   -0.5400   -0.1650 ho        1 475      0.426000
     36 HO3        -4.4710   -3.2150   -0.4210 ho        1 475      0.428000
     37 HO2        -1.2130   -2.8940   -0.4400 ho        1 475      0.422000
     38 O6         -3.3310    3.4720    0.4640 oh        1 475     -0.592800
     39 C7          0.6750    0.1400   -0.4930 c         1 475      0.584100
     40 H10         5.1780    1.1630   -2.0140 ha        1 475      0.147000
@<TRIPOS>BOND
     1    1    3 1   
     2    1   16 1   
     3    1   21 1   
     4    1   22 1   
     5    2   11 1   
     6    2   12 1   
     7    2   23 1   
     8    3    5 1   
     9    3   20 1   
    10    3   24 1   
    11    4    5 1   
    12    4   17 1   
    13    4   18 1   
    14    4   25 1   
    15    5   19 1   
    16    5   27 1   
    17    6    7 ar  
    18    6   11 ar  
    19    6   40 1   
    20    7    8 ar  
    21    7   28 1   
    22    8    9 ar  
    23    8   29 1   
    24    9   10 ar  
    25    9   30 1   
    26   10   11 ar  
    27   12   13 2   
    28   12   39 1   
    29   14   39 2   
    30   15   16 1   
    31   15   31 1   
    32   15   39 1   
    33   16   17 1   
    34   16   32 1   
    35   18   33 1   
    36   18   34 1   
    37   18   38 1   
    38   19   35 1   
    39   20   36 1   
    40   21   37 1   
    41   26   38 1   
@<TRIPOS>SUBSTRUCTURE
     1 475         1 TEMP              0 ****  ****    0 ROOT
