@<TRIPOS>MOLECULE
475
   40    38     1     0     0
SMALL
bcc


@<TRIPOS>ATOM
      1 C2          2.0910    1.2870   -1.2340 c3        1 475      0.085100
      2 N2         -3.2110   -1.6810    0.1090 n         1 475     -0.466700
      3 C3          3.5750    1.2580   -1.1740 c3        1 475      0.109100
      4 C5          3.5420    0.2960    1.0220 c3        1 475      0.108100
      5 O6          3.6310   -0.5580    3.3240 oh        1 475     -0.592800
      6 C4          4.0950    1.2800    0.1670 c3        1 475      0.122100
      7 C10        -5.4230   -2.5680   -0.2270 c1        1 475     -0.156500
      8 C11        -6.7630   -2.4040   -0.3860 c1        1 475     -0.078500
      9 C12        -7.3110   -1.1600   -0.3060 c1        1 475     -0.078500
     10 C13        -6.5050   -0.0580   -0.0620 c1        1 475      0.342300
     11 N3         -5.1690   -0.2200    0.0980 n1        1 475     -0.467800
     12 C9         -4.6160   -1.4740    0.0170 c1        1 475      0.126200
     13 C8         -2.2780   -0.5190   -0.0400 c         1 475      0.607100
     14 O8         -2.7320    0.6160   -0.2430 o         1 475     -0.533100
     15 C7         -0.7340   -0.7590   -0.0770 c         1 475      0.584100
     16 O7         -0.2940   -1.8770    0.0450 o         1 475     -0.576100
     17 N1          0.1570    0.3380   -0.3120 n         1 475     -0.524900
     18 C1          1.3800    0.1380   -0.3890 c3        1 475      0.253500
     19 O5          2.0640    0.2840    1.0380 os        1 475     -0.452600
     20 C6          4.0440    0.5540    2.4660 c3        1 475      0.140400
     21 O4          5.6330    1.0720    0.1050 oh        1 475     -0.592800
     22 O3          4.1080    2.4560   -1.9200 oh        1 475     -0.604800
     23 O2          1.7030    1.1620   -2.5650 oh        1 475     -0.598800
     24 H2          1.7820    2.1610   -0.8970 h1        1 475      0.064700
     25 HN2        -2.8710   -2.5450    0.1860 hn        1 475      0.348500
     26 H3          3.8940    0.4360   -1.6250 h1        1 475      0.067700
     27 H5          3.8520   -0.5630    0.7410 h1        1 475      0.075700
     28 HO6         4.1960   -0.6400    3.9920 ho        1 475      0.410000
     29 H4          3.9140    2.1620    0.5530 h1        1 475      0.062700
     30 H10        -5.0390   -3.4460   -0.2840 ha        1 475      0.089500
     31 H11        -7.3480   -3.1990   -0.5630 ha        1 475      0.088000
     32 H12        -8.2790   -1.0460   -0.4210 ha        1 475      0.088000
     33 H13        -6.9140    0.8690   -0.0020 ha        1 475      0.108500
     34 HN1        -0.1530    1.1430   -0.3600 hn        1 475      0.333500
     35 H1          1.5640   -0.7330   -0.7710 h2        1 475      0.100700
     36 H6          5.0720    0.6280    2.4690 h1        1 475      0.065700
     37 H6A         3.6500    1.4000    2.8060 h1        1 475      0.065700
     38 HO4         6.0420    1.8660    0.1390 ho        1 475      0.426000
     39 HO3         4.4530    2.2070   -2.6320 ho        1 475      0.428000
     40 HO2         1.1980    1.8360   -2.7840 ho        1 475      0.422000
@<TRIPOS>BOND
     1    1    3 1   
     2    1   18 1   
     3    1   23 1   
     4    1   24 1   
     5    2   12 1   
     6    2   13 1   
     7    2   25 1   
     8    3    6 1   
     9    3   22 1   
    10    3   26 1   
    11    4    6 1   
    12    4   19 1   
    13    4   20 1   
    14    4   27 1   
    15    5   20 1   
    16    5   28 1   
    17    6   21 1   
    18    6   29 1   
    19    7   12 3   
    20    7   30 1   
    21    8    9 3   
    22    8   31 1   
    23    9   32 1   
    24   10   11 3   
    25   10   33 1   
    26   13   14 2   
    27   13   15 1   
    28   15   16 2   
    29   15   17 1   
    30   17   18 1   
    31   17   34 1   
    32   18   19 1   
    33   18   35 1   
    34   20   36 1   
    35   20   37 1   
    36   21   38 1   
    37   22   39 1   
    38   23   40 1   
@<TRIPOS>SUBSTRUCTURE
     1 475         1 TEMP              0 ****  ****    0 ROOT
