@<TRIPOS>MOLECULE
476
   36    36     1     0     0
SMALL
bcc


@<TRIPOS>ATOM
      1 O11        -0.5370    0.8610    0.7650 o         1 476     -0.920000
      2 P10         0.7100    0.1620    0.3350 p5        1 476      2.104000
      3 O13         1.6970    0.5000    1.7430 os        1 476     -0.726000
      4 O12         0.7000   -1.3280    0.3670 o         1 476     -0.920000
      5 C8          1.6380    0.8650   -0.7830 c2        1 476     -1.438000
      6 P9          1.3670    1.4490   -2.9060 p3        1 476      2.561000
      7 O15         0.4790    0.4090   -3.4990 o         1 476     -1.224333
      8 O14         0.8150    2.8380   -2.8400 o         1 476     -1.224333
      9 O16         2.8140    1.3800   -3.2930 o         1 476     -1.224333
     10 C7          2.0650    2.2430   -0.5110 c3        1 476      0.034000
     11 N2          2.6040    2.5090    0.8430 n3        1 476     -0.231000
     12 C1          3.7490    3.1590    1.0540 c2        1 476      0.097000
     13 C6          4.2880    3.4150    2.3190 c2        1 476     -0.430000
     14 C5          3.6260    2.8320    3.4490 c2        1 476     -0.081000
     15 C4          2.5070    2.0970    3.2990 c2        1 476     -0.254000
     16 C3          1.8540    1.8510    1.9560 c3        1 476      0.234000
     17 C17         5.5140    4.2090    2.4880 c3        1 476     -0.023000
     18 C18         5.2360    5.5930    3.0590 c3        1 476     -0.166000
     19 C19         6.5120    6.3810    3.2690 c3        1 476     -0.160000
     20 C20         6.2400    7.7520    3.8340 c3        1 476     -0.203000
     21 H3          2.4390    0.2080   -1.1610 ha        1 476      0.131000
     22 H6          2.8500    2.5760   -1.2560 h1        1 476      0.102000
     23 H7          1.1720    2.9330   -0.6190 h1        1 476      0.102000
     24 H8          4.2690    3.5490    0.1550 h4        1 476      0.110000
     25 H9          4.0740    2.9980    4.4410 ha        1 476      0.053000
     26 H10         2.0140    1.5860    4.1320 ha        1 476      0.098000
     27 H11         0.8250    2.3450    1.9330 h2        1 476      0.089000
     28 H12         6.2270    3.6830    3.1830 hc        1 476      0.035500
     29 H13         6.0450    4.3300    1.5040 hc        1 476      0.035500
     30 H14         4.6930    5.4840    4.0340 hc        1 476      0.077000
     31 H15         4.5580    6.1500    2.3630 hc        1 476      0.077000
     32 H16         7.0530    6.4800    2.2910 hc        1 476      0.062500
     33 H17         7.1890    5.8180    3.9640 hc        1 476      0.062500
     34 H18         5.5850    8.3360    3.1430 hc        1 476      0.054000
     35 H19         5.7210    7.6740    4.8200 hc        1 476      0.054000
     36 H20         7.1910    8.3180    3.9800 hc        1 476      0.054000
@<TRIPOS>BOND
     1    1    2 1   
     2    2    3 1   
     3    2    4 1   
     4    2    5 1   
     5    3   16 1   
     6    5   10 1   
     7    5   21 1   
     8    6    7 1   
     9    6    8 1   
    10    6    9 1   
    11   10   11 1   
    12   10   22 1   
    13   10   23 1   
    14   11   12 1   
    15   11   16 1   
    16   12   13 1   
    17   12   24 1   
    18   13   14 1   
    19   13   17 1   
    20   14   15 1   
    21   14   25 1   
    22   15   16 1   
    23   15   26 1   
    24   16   27 1   
    25   17   18 1   
    26   17   28 1   
    27   17   29 1   
    28   18   19 1   
    29   18   30 1   
    30   18   31 1   
    31   19   20 1   
    32   19   32 1   
    33   19   33 1   
    34   20   34 1   
    35   20   35 1   
    36   20   36 1   
@<TRIPOS>SUBSTRUCTURE
     1 476         1 TEMP              0 ****  ****    0 ROOT
