@<TRIPOS>MOLECULE
476
   36    36     1     0     0
SMALL
bcc


@<TRIPOS>ATOM
      1 O11        -0.5430    0.8650    0.7850 o         1 476     -0.920000
      2 P10         0.7000    0.1690    0.3390 p5        1 476      2.104000
      3 O13         1.7000    0.4980    1.7400 os        1 476     -0.726000
      4 O12         0.6900   -1.3210    0.3620 o         1 476     -0.920000
      5 C8          1.6170    0.8790   -0.7820 c2        1 476     -1.438000
      6 P9          1.3280    1.4770   -2.8990 p3        1 476      2.561000
      7 O15         0.4340    0.4410   -3.4910 o         1 476     -1.224333
      8 O14         0.7760    2.8660   -2.8190 o         1 476     -1.224333
      9 O16         2.7710    1.4110   -3.2990 o         1 476     -1.224333
     10 C7          2.0470    2.2560   -0.5060 c3        1 476      0.034000
     11 N2          2.5980    2.5130    0.8450 n3        1 476     -0.231000
     12 C1          3.7460    3.1610    1.0500 c2        1 476      0.097000
     13 C6          4.2960    3.4100    2.3110 c2        1 476     -0.430000
     14 C5          3.6440    2.8190    3.4430 c2        1 476     -0.081000
     15 C4          2.5240    2.0860    3.2990 c2        1 476     -0.254000
     16 C3          1.8590    1.8480    1.9600 c3        1 476      0.234000
     17 C17         5.5230    4.2030    2.4740 c3        1 476     -0.023000
     18 C18         5.2500    5.5820    3.0580 c3        1 476     -0.166000
     19 C19         6.5290    6.3700    3.2610 c3        1 476     -0.160000
     20 C20         6.2620    7.7360    3.8380 c3        1 476     -0.203000
     21 H3          2.4150    0.2250   -1.1720 ha        1 476      0.131000
     22 H6          2.8250    2.5940   -1.2550 h1        1 476      0.102000
     23 H7          1.1530    2.9460   -0.6010 h1        1 476      0.102000
     24 H8          4.2570    3.5580    0.1480 h4        1 476      0.110000
     25 H9          4.1010    2.9790    4.4330 ha        1 476      0.053000
     26 H10         2.0380    1.5690    4.1340 ha        1 476      0.098000
     27 H11         0.8290    2.3420    1.9510 h2        1 476      0.089000
     28 H12         6.2430    3.6720    3.1590 hc        1 476      0.035500
     29 H13         6.0450    4.3300    1.4870 hc        1 476      0.035500
     30 H14         4.7180    5.4670    4.0370 hc        1 476      0.077000
     31 H15         4.5660    6.1440    2.3720 hc        1 476      0.077000
     32 H16         7.0600    6.4750    2.2790 hc        1 476      0.062500
     33 H17         7.2130    5.8010    3.9460 hc        1 476      0.062500
     34 H18         5.6000    8.3250    3.1570 hc        1 476      0.054000
     35 H19         5.7530    7.6510    4.8290 hc        1 476      0.054000
     36 H20         7.2150    8.3020    3.9790 hc        1 476      0.054000
@<TRIPOS>BOND
     1    1    2 1   
     2    2    3 1   
     3    2    4 1   
     4    2    5 1   
     5    3   16 1   
     6    5   10 1   
     7    5   21 1   
     8    6    7 1   
     9    6    8 1   
    10    6    9 1   
    11   10   11 1   
    12   10   22 1   
    13   10   23 1   
    14   11   12 1   
    15   11   16 1   
    16   12   13 1   
    17   12   24 1   
    18   13   14 1   
    19   13   17 1   
    20   14   15 1   
    21   14   25 1   
    22   15   16 1   
    23   15   26 1   
    24   16   27 1   
    25   17   18 1   
    26   17   28 1   
    27   17   29 1   
    28   18   19 1   
    29   18   30 1   
    30   18   31 1   
    31   19   20 1   
    32   19   32 1   
    33   19   33 1   
    34   20   34 1   
    35   20   35 1   
    36   20   36 1   
@<TRIPOS>SUBSTRUCTURE
     1 476         1 TEMP              0 ****  ****    0 ROOT
