@<TRIPOS>MOLECULE
477
   45    37     1     0     0
SMALL
bcc


@<TRIPOS>ATOM
      1 CAU        -5.3530    2.3650    0.1710 c3        1 477     -0.211000
      2 CAT        -4.1420    1.5150    0.5180 c3        1 477     -0.162000
      3 CAR        -3.8060    0.5320   -0.6940 c3        1 477      0.118000
      4 CAW        -4.6850   -0.7330   -0.5870 c3        1 477     -0.162000
      5 CAX        -5.5760   -0.8350   -1.7920 c3        1 477     -0.211000
      6 OAS        -4.0750    1.2190   -1.9930 oh        1 477     -0.317000
      7 CAJ        -2.3260    0.1330   -0.6250 c1        1 477     -0.076000
      8 CAI        -1.4640    0.2540    0.4670 c1        1 477     -0.138000
      9 CAK        -1.8450   -0.3230   -1.8410 c1        1 477     -0.112000
     10 CAL        -0.5130   -0.6590   -1.9760 c1        1 477     -0.112000
     11 CAG         0.3650   -0.5370   -0.8700 c1        1 477     -0.042500
     12 CAF         1.7220   -0.8050   -0.7210 c1        1 477     -0.138000
     13 CAH        -0.1080   -0.0870    0.3310 c1        1 477     -0.042500
     14 NAE         0.9510   -0.0730    1.2330 n1        1 477     -0.206000
     15 CAD         2.0730   -0.5160    0.5790 c1        1 477     -0.003000
     16 CAC         3.3700   -1.2610    0.9190 c1        1 477      0.016000
     17 NAB         3.4920   -2.6310    1.1560 n2        1 477     -0.125000
     18 NAA         4.8470   -2.9130    1.3930 n2        1 477     -0.031000
     19 CAM         5.5520   -1.7300    1.3030 c2        1 477     -0.118000
     20 CAQ         7.0270   -1.0850    1.4080 c1        1 477     -0.067000
     21 CAN         4.6340   -0.6970    1.0080 c2        1 477     -0.409000
     22 SAO         5.4370    0.6490    0.9060 ss        1 477      0.606000
     23 CAP         6.9190    0.3280    1.1670 c1        1 477     -0.420000
     24 CAV         8.0640    1.3680    1.3110 c2        1 477      0.295000
     25 FAZ         8.3810    1.8730    0.0760 f         1 477     -0.168000
     26 FAY         7.6590    2.3740    2.1180 f         1 477     -0.168000
     27 H1         -5.3850    2.5090   -0.7880 hc        1 477      0.079500
     28 H2         -6.1490    1.9150    0.4500 hc        1 477      0.079500
     29 H3         -5.2860    3.2340    0.6340 hc        1 477      0.079500
     30 H4         -3.3460    2.1170    0.6950 hc        1 477      0.085500
     31 H5         -4.3330    0.9940    1.3100 hc        1 477      0.085500
     32 H6         -5.2470   -0.6790    0.2390 hc        1 477      0.085500
     33 H7         -4.1110   -1.5250   -0.5390 hc        1 477      0.085500
     34 H8         -5.1590   -0.4210   -2.5270 hc        1 477      0.079500
     35 H9         -5.7440   -1.8030   -2.0030 hc        1 477      0.079500
     36 H10        -6.4180   -0.3960   -1.6080 hc        1 477      0.079500
     37 H11        -3.6350    2.0280   -2.0110 ho        1 477      0.200000
     38 H12        -1.8110    0.5490    1.3340 ha        1 477      0.137000
     39 H13        -2.4620   -0.4730   -2.5830 ha        1 477      0.143500
     40 H14        -0.1750   -0.9810   -2.8360 ha        1 477      0.143500
     41 H15         2.2890   -1.1220   -1.3800 DU        1 477      0.211500
     42 H16         0.9070    0.1860    2.1080 DU        1 477      0.211500
     43 H17         2.7880   -3.2330    1.2410 DU        1 477      0.211500
     44 H18         7.8040   -1.5440    1.5910 DU        1 477      0.211500
     45 H19         8.8720    0.9220    1.7080 h5        1 477      0.114000
@<TRIPOS>BOND
     1    1    2 1   
     2    1   27 1   
     3    1   28 1   
     4    1   29 1   
     5    2    3 1   
     6    2   30 1   
     7    2   31 1   
     8    3    4 1   
     9    3    6 1   
    10    3    7 1   
    11    4    5 1   
    12    4   32 1   
    13    4   33 1   
    14    5   34 1   
    15    5   35 1   
    16    5   36 1   
    17    6   37 1   
    18    7    8 1   
    19    8   38 1   
    20    9   10 1   
    21    9   39 1   
    22   10   40 1   
    23   11   13 1   
    24   12   15 1   
    25   14   15 1   
    26   16   17 1   
    27   16   21 1   
    28   17   18 1   
    29   18   19 1   
    30   19   20 1   
    31   19   21 1   
    32   20   23 1   
    33   21   22 1   
    34   22   23 1   
    35   24   25 1   
    36   24   26 1   
    37   24   45 1   
@<TRIPOS>SUBSTRUCTURE
     1 477         1 TEMP              0 ****  ****    0 ROOT
