@<TRIPOS>MOLECULE
477
   45    48     1     0     0
SMALL
bcc


@<TRIPOS>ATOM
      1 CAU         0.1610   -0.4820   -0.0930 c3        1 477     -0.092600
      2 CAT         1.6080   -0.0870    0.0480 c3        1 477     -0.083400
      3 CAR         2.0480    0.0920    1.5130 c3        1 477      0.197100
      4 CAW         1.3500    1.3070    2.1430 c3        1 477     -0.083400
      5 CAX         1.6920    1.4880    3.5980 c3        1 477     -0.092600
      6 OAS         1.6350   -1.0380    2.2820 oh        1 477     -0.592800
      7 CAJ         3.5530    0.2560    1.5620 ca        1 477     -0.084300
      8 CAI         4.3200   -0.5690    2.3750 ca        1 477     -0.136000
      9 CAK         4.1600    1.2630    0.7760 ca        1 477     -0.149000
     10 CAL         5.5300    1.4580    0.7720 ca        1 477     -0.080000
     11 CAG         6.3350    0.6410    1.5700 ca        1 477     -0.096800
     12 CAF         7.7510    0.5570    1.8150 cc        1 477     -0.166200
     13 CAH         5.7120   -0.3820    2.3800 ca        1 477     -0.032200
     14 NAE         6.7150   -1.0650    3.0690 na        1 477     -0.174400
     15 CAD         7.9490   -0.4790    2.7390 cd        1 477      0.002700
     16 CAC         9.1890   -0.9420    3.3000 cd        1 477     -0.013100
     17 NAB        10.4060   -0.2480    3.1550 na        1 477      0.026400
     18 NAA        11.4400   -0.8320    3.7450 nd        1 477     -0.455800
     19 CAM        10.9440   -1.9630    4.3210 cc        1 477      0.277600
     20 CAQ        11.4270   -3.0670    5.1030 cc        1 477     -0.099300
     21 CAN         9.4920   -2.0830    4.0620 cc        1 477     -0.208400
     22 SAO         8.8860   -3.4640    4.7520 ss        1 477     -0.009800
     23 CAP        10.4050   -3.9300    5.3910 cd        1 477     -0.155400
     24 CAV        10.5290   -5.2010    6.1820 c3        1 477      0.487200
     25 FAZ        11.6690   -5.9170    5.8810 f         1 477     -0.237300
     26 FAY        10.6750   -4.9860    7.5370 f         1 477     -0.237300
     27 H1         -0.0510   -0.7820   -1.1470 hc        1 477      0.039533
     28 H2         -0.5120    0.3690    0.1710 hc        1 477      0.039533
     29 H3         -0.0830   -1.3400    0.5800 hc        1 477      0.039533
     30 H4          1.7920    0.8700   -0.5040 hc        1 477      0.047700
     31 H5          2.2560   -0.8760   -0.4200 hc        1 477      0.047700
     32 H6          0.2420    1.1660    2.0360 hc        1 477      0.047700
     33 H7          1.6460    2.2160    1.5590 hc        1 477      0.047700
     34 H8          1.1520    2.3740    4.0110 hc        1 477      0.039533
     35 H9          2.7890    1.6450    3.7300 hc        1 477      0.039533
     36 H10         1.3940    0.5820    4.1810 hc        1 477      0.039533
     37 H11         1.9410   -1.8230    1.8110 ho        1 477      0.400000
     38 H12         3.8510   -1.3340    3.0100 ha        1 477      0.148000
     39 H13         3.5230    1.9120    0.1560 ha        1 477      0.133000
     40 H14         5.9860    2.2440    0.1530 ha        1 477      0.137000
     41 H15         8.5140    1.1770    1.3560 ha        1 477      0.153000
     42 H16         6.5770   -1.7450    3.7690 hn        1 477      0.305700
     43 H17        10.5250    0.6080    2.6600 hn        1 477      0.331700
     44 H18        12.4700   -3.1830    5.4090 ha        1 477      0.180000
     45 H19         9.6170   -5.8520    6.0010 h2        1 477      0.069700
@<TRIPOS>BOND
     1    1    2 1   
     2    1   27 1   
     3    1   28 1   
     4    1   29 1   
     5    2    3 1   
     6    2   30 1   
     7    2   31 1   
     8    3    4 1   
     9    3    6 1   
    10    3    7 1   
    11    4    5 1   
    12    4   32 1   
    13    4   33 1   
    14    5   34 1   
    15    5   35 1   
    16    5   36 1   
    17    6   37 1   
    18    7    8 ar  
    19    7    9 ar  
    20    8   13 ar  
    21    8   38 1   
    22    9   10 ar  
    23    9   39 1   
    24   10   11 ar  
    25   10   40 1   
    26   11   12 1   
    27   11   13 ar  
    28   12   15 2   
    29   12   41 1   
    30   13   14 1   
    31   14   15 1   
    32   14   42 1   
    33   15   16 1   
    34   16   17 1   
    35   16   21 2   
    36   17   18 1   
    37   17   43 1   
    38   18   19 2   
    39   19   20 1   
    40   19   21 1   
    41   20   23 2   
    42   20   44 1   
    43   21   22 1   
    44   22   23 1   
    45   23   24 1   
    46   24   25 1   
    47   24   26 1   
    48   24   45 1   
@<TRIPOS>SUBSTRUCTURE
     1 477         1 TEMP              0 ****  ****    0 ROOT
