@<TRIPOS>MOLECULE
477
   45    48     1     0     0
SMALL
bcc


@<TRIPOS>ATOM
      1 CAU         7.2190   -1.7640    1.2250 c3        1 477     -0.092600
      2 CAT         6.1200   -0.7350    1.1570 c3        1 477     -0.083400
      3 CAR         5.2450   -0.8660   -0.1040 c3        1 477      0.197100
      4 CAW         6.0530   -0.5160   -1.3620 c3        1 477     -0.083400
      5 CAX         5.2640   -0.6940   -2.6320 c3        1 477     -0.092600
      6 OAS         4.8350   -2.2240   -0.2680 oh        1 477     -0.592800
      7 CAJ         4.0440    0.0470    0.0310 ca        1 477     -0.084300
      8 CAI         2.7600   -0.4600   -0.1200 ca        1 477     -0.136000
      9 CAK         4.2520    1.4200    0.3030 ca        1 477     -0.149000
     10 CAL         3.1960    2.3030    0.4440 ca        1 477     -0.080000
     11 CAG         1.8890    1.8270    0.3080 ca        1 477     -0.096800
     12 CAF         0.5860    2.4340    0.3840 cc        1 477     -0.166200
     13 CAH         1.6790    0.4260    0.0210 ca        1 477     -0.032200
     14 NAE         0.3050    0.1960   -0.0550 na        1 477     -0.174400
     15 CAD        -0.3550    1.4220    0.1460 cd        1 477      0.002700
     16 CAC        -1.7870    1.5330    0.1110 cd        1 477     -0.013100
     17 NAB        -2.4640    2.7690    0.0980 na        1 477      0.026400
     18 NAA        -3.7860    2.6660    0.0630 nd        1 477     -0.455800
     19 CAM        -4.0500    1.3300    0.0490 cc        1 477      0.277600
     20 CAQ        -5.1970    0.4660    0.0130 cc        1 477     -0.099300
     21 CAN        -2.7920    0.5510    0.0800 cc        1 477     -0.208400
     22 SAO        -3.1110   -1.0770    0.0730 ss        1 477     -0.009800
     23 CAP        -4.8060   -0.8460    0.0210 cd        1 477     -0.155400
     24 CAV        -5.7260   -2.0340   -0.0010 c3        1 477      0.487200
     25 FAZ        -6.8340   -1.8750    0.8060 f         1 477     -0.237300
     26 FAY        -6.3000   -2.2540   -1.2360 f         1 477     -0.237300
     27 H1          7.6950   -1.7470    2.2350 hc        1 477      0.039533
     28 H2          6.8140   -2.7880    1.0360 hc        1 477      0.039533
     29 H3          8.0080   -1.5560    0.4620 hc        1 477      0.039533
     30 H4          5.4580   -0.8380    2.0570 hc        1 477      0.047700
     31 H5          6.5650    0.2920    1.1830 hc        1 477      0.047700
     32 H6          6.4000    0.5450   -1.2660 hc        1 477      0.047700
     33 H7          6.9570   -1.1790   -1.3910 hc        1 477      0.047700
     34 H8          5.8970   -0.4400   -3.5160 hc        1 477      0.039533
     35 H9          4.9200   -1.7530   -2.7290 hc        1 477      0.039533
     36 H10         4.3640   -0.0320   -2.6350 hc        1 477      0.039533
     37 H11         4.4580   -2.5050    0.5750 ho        1 477      0.400000
     38 H12         2.5930   -1.5200   -0.3600 ha        1 477      0.148000
     39 H13         5.2820    1.7940    0.3990 ha        1 477      0.133000
     40 H14         3.3750    3.3670    0.6590 ha        1 477      0.137000
     41 H15         0.3810    3.4780    0.5970 ha        1 477      0.153000
     42 H16        -0.1280   -0.6430   -0.3370 hn        1 477      0.305700
     43 H17        -2.0270    3.6630    0.1160 hn        1 477      0.331700
     44 H18        -6.2290    0.8280   -0.0110 ha        1 477      0.180000
     45 H19        -5.1570   -2.9610    0.3200 h2        1 477      0.069700
@<TRIPOS>BOND
     1    1    2 1   
     2    1   27 1   
     3    1   28 1   
     4    1   29 1   
     5    2    3 1   
     6    2   30 1   
     7    2   31 1   
     8    3    4 1   
     9    3    6 1   
    10    3    7 1   
    11    4    5 1   
    12    4   32 1   
    13    4   33 1   
    14    5   34 1   
    15    5   35 1   
    16    5   36 1   
    17    6   37 1   
    18    7    8 ar  
    19    7    9 ar  
    20    8   13 ar  
    21    8   38 1   
    22    9   10 ar  
    23    9   39 1   
    24   10   11 ar  
    25   10   40 1   
    26   11   12 1   
    27   11   13 ar  
    28   12   15 2   
    29   12   41 1   
    30   13   14 1   
    31   14   15 1   
    32   14   42 1   
    33   15   16 1   
    34   16   17 1   
    35   16   21 2   
    36   17   18 1   
    37   17   43 1   
    38   18   19 2   
    39   19   20 1   
    40   19   21 1   
    41   20   23 2   
    42   20   44 1   
    43   21   22 1   
    44   22   23 1   
    45   23   24 1   
    46   24   25 1   
    47   24   26 1   
    48   24   45 1   
@<TRIPOS>SUBSTRUCTURE
     1 477         1 TEMP              0 ****  ****    0 ROOT
