@<TRIPOS>MOLECULE
477
   45    48     1     0     0
SMALL
bcc


@<TRIPOS>ATOM
      1 CAU         0.1630   -0.4940   -0.0960 c3        1 477     -0.092600
      2 CAT         1.6100   -0.0990    0.0450 c3        1 477     -0.083400
      3 CAR         2.0470    0.0870    1.5100 c3        1 477      0.197100
      4 CAW         1.3480    1.3040    2.1340 c3        1 477     -0.083400
      5 CAX         1.6880    1.4920    3.5880 c3        1 477     -0.092600
      6 OAS         1.6350   -1.0400    2.2830 oh        1 477     -0.592800
      7 CAJ         3.5520    0.2520    1.5600 ca        1 477     -0.084300
      8 CAI         4.3200   -0.5690    2.3760 ca        1 477     -0.136000
      9 CAK         4.1600    1.2570    0.7700 ca        1 477     -0.149000
     10 CAL         5.5300    1.4530    0.7670 ca        1 477     -0.080000
     11 CAG         6.3340    0.6390    1.5690 ca        1 477     -0.096800
     12 CAF         7.7500    0.5570    1.8160 cc        1 477     -0.166200
     13 CAH         5.7120   -0.3810    2.3820 ca        1 477     -0.032200
     14 NAE         6.7140   -1.0620    3.0740 na        1 477     -0.174400
     15 CAD         7.9490   -0.4750    2.7430 cd        1 477      0.002700
     16 CAC         9.1880   -0.9360    3.3060 cd        1 477     -0.013100
     17 NAB        10.4040   -0.2380    3.1660 na        1 477      0.026400
     18 NAA        11.4380   -0.8200    3.7580 nd        1 477     -0.455800
     19 CAM        10.9430   -1.9530    4.3300 cc        1 477      0.277600
     20 CAQ        11.4270   -3.0570    5.1120 cc        1 477     -0.099300
     21 CAN         9.4920   -2.0770    4.0680 cc        1 477     -0.208400
     22 SAO         8.8890   -3.4610    4.7540 ss        1 477     -0.009800
     23 CAP        10.4070   -3.9240    5.3960 cd        1 477     -0.155400
     24 CAV        10.5330   -5.1960    6.1850 c3        1 477      0.487200
     25 FAZ        11.6790   -5.9040    5.8900 f         1 477     -0.237300
     26 FAY        10.6690   -4.9820    7.5420 f         1 477     -0.237300
     27 H1         -0.0480   -0.8000   -1.1490 hc        1 477      0.039533
     28 H2         -0.5100    0.3590    0.1630 hc        1 477      0.039533
     29 H3         -0.0820   -1.3480    0.5810 hc        1 477      0.039533
     30 H4          1.7950    0.8560   -0.5110 hc        1 477      0.047700
     31 H5          2.2580   -0.8890   -0.4180 hc        1 477      0.047700
     32 H6          0.2410    1.1610    2.0270 hc        1 477      0.047700
     33 H7          1.6440    2.2110    1.5460 hc        1 477      0.047700
     34 H8          1.1470    2.3790    3.9970 hc        1 477      0.039533
     35 H9          2.7860    1.6510    3.7200 hc        1 477      0.039533
     36 H10         1.3920    0.5880    4.1750 hc        1 477      0.039533
     37 H11         1.9410   -1.8270    1.8160 ho        1 477      0.400000
     38 H12         3.8510   -1.3330    3.0130 ha        1 477      0.148000
     39 H13         3.5220    1.9030    0.1480 ha        1 477      0.133000
     40 H14         5.9860    2.2370    0.1460 ha        1 477      0.137000
     41 H15         8.5140    1.1770    1.3550 ha        1 477      0.153000
     42 H16         6.5760   -1.7380    3.7770 hn        1 477      0.305700
     43 H17        10.5210    0.6190    2.6720 hn        1 477      0.331700
     44 H18        12.4700   -3.1700    5.4200 ha        1 477      0.180000
     45 H19         9.6260   -5.8520    5.9970 h2        1 477      0.069700
@<TRIPOS>BOND
     1    1    2 1   
     2    1   27 1   
     3    1   28 1   
     4    1   29 1   
     5    2    3 1   
     6    2   30 1   
     7    2   31 1   
     8    3    4 1   
     9    3    6 1   
    10    3    7 1   
    11    4    5 1   
    12    4   32 1   
    13    4   33 1   
    14    5   34 1   
    15    5   35 1   
    16    5   36 1   
    17    6   37 1   
    18    7    8 ar  
    19    7    9 ar  
    20    8   13 ar  
    21    8   38 1   
    22    9   10 ar  
    23    9   39 1   
    24   10   11 ar  
    25   10   40 1   
    26   11   12 1   
    27   11   13 ar  
    28   12   15 2   
    29   12   41 1   
    30   13   14 1   
    31   14   15 1   
    32   14   42 1   
    33   15   16 1   
    34   16   17 1   
    35   16   21 2   
    36   17   18 1   
    37   17   43 1   
    38   18   19 2   
    39   19   20 1   
    40   19   21 1   
    41   20   23 2   
    42   20   44 1   
    43   21   22 1   
    44   22   23 1   
    45   23   24 1   
    46   24   25 1   
    47   24   26 1   
    48   24   45 1   
@<TRIPOS>SUBSTRUCTURE
     1 477         1 TEMP              0 ****  ****    0 ROOT
