@<TRIPOS>MOLECULE
478
   72    73     1     0     0
SMALL
bcc


@<TRIPOS>ATOM
      1 C1          1.8990   -2.6610   -0.5170 c3        1 478      0.120400
      2 C2          3.1600   -1.0700    0.8350 c3        1 478     -0.138400
      3 C3          2.8040    0.5560   -1.8860 c         1 478      0.622100
      4 C4          2.8820   -1.4810   -0.6100 c3        1 478      0.131100
      5 C5          2.3460    2.1110   -3.7980 c3        1 478      0.151500
      6 C6          3.4240    3.2040   -3.5770 c3        1 478      0.088100
      7 C7          1.1520    2.6420   -4.6070 c3        1 478     -0.053100
      8 C8          0.0390    1.6590   -4.6860 ca        1 478     -0.174300
      9 C9         -1.0770    1.7910   -3.8490 ca        1 478     -0.133000
     10 C10         0.0750    0.6250   -5.6300 ca        1 478     -0.133000
     11 C11        -2.1400    0.8950   -3.9510 ca        1 478     -0.110500
     12 C12        -0.9890   -0.2700   -5.7300 ca        1 478     -0.110500
     13 C13        -2.0960   -0.1380   -4.8900 ca        1 478     -0.090000
     14 C14         3.8190    3.8350   -4.9260 c3        1 478      0.106800
     15 C15         6.2760    3.9410   -4.6030 c3        1 478      0.120800
     16 C16         6.4430    2.5000   -5.1040 c3        1 478     -0.064700
     17 C17         5.0560    7.2100   -6.8140 ca        1 478     -0.730500
     18 C18         6.1940    8.0400   -6.5370 ca        1 478      0.068000
     19 C19         6.0920    9.3700   -6.2680 ca        1 478     -0.234500
     20 C20         4.8040   10.0220   -6.2510 ca        1 478      0.333600
     21 C21         3.6460    9.1950   -6.4940 ca        1 478     -0.234500
     22 C22         3.7830    7.8670   -6.7590 ca        1 478      0.068000
     23 C23         6.5110    2.4240   -6.6130 c3        1 478     -0.102600
     24 C24         7.7130    1.9320   -4.4980 c3        1 478     -0.102600
     25 C25         2.2660   -1.9750    1.6850 c3        1 478      0.119400
     26 N1          1.8690    1.5620   -2.4720 n4        1 478     -0.644800
     27 N2          5.0310    4.6360   -4.9370 n3        1 478     -0.893200
     28 N3          4.6890   11.3370   -6.0200 nh        1 478     -0.768200
     29 O1          2.1140   -0.4290   -1.2950 os        1 478     -0.396900
     30 O2          4.0230    0.6520   -1.9690 o         1 478     -0.451000
     31 O3          2.8400    4.1740   -2.7190 oh        1 478     -0.616800
     32 O4          4.0920    5.0580   -7.5800 o         1 478     -0.445400
     33 O5          6.4620    5.2620   -7.4030 o         1 478     -0.445400
     34 O6          1.3630   -2.6550    0.8020 os        1 478     -0.392600
     35 S1          5.2080    5.7520   -7.2210 s4        1 478      1.693300
     36 H11A        2.4510   -3.6210   -0.6930 h1        1 478      0.088200
     37 H12A        1.0280   -2.5680   -1.2140 h1        1 478      0.088200
     38 H21A        4.2400   -1.2250    1.0850 hc        1 478      0.079200
     39 H22A        2.9160    0.0070    1.0020 hc        1 478      0.079200
     40 H4          3.8000   -1.6950   -1.2120 h1        1 478      0.103700
     41 H5          2.8280    1.2510   -4.3540 hx        1 478      0.117700
     42 H6          4.3250    2.7350   -3.0820 h1        1 478      0.089700
     43 H71         0.7990    3.6090   -4.1560 hc        1 478      0.093700
     44 H72         1.5280    2.8650   -5.6440 hc        1 478      0.093700
     45 H9         -1.1400    2.6280   -3.1370 ha        1 478      0.136000
     46 H10         0.9350    0.5300   -6.3110 ha        1 478      0.136000
     47 H11        -3.0210    1.0100   -3.3000 ha        1 478      0.161500
     48 H12        -0.9610   -1.0750   -6.4820 ha        1 478      0.161500
     49 H13        -2.9420   -0.8400   -4.9770 ha        1 478      0.166000
     50 H141        2.9730    4.5070   -5.2590 h1        1 478      0.093700
     51 H142        3.9320    3.0140   -5.6920 h1        1 478      0.093700
     52 H151        6.4210    3.9280   -3.4820 h1        1 478      0.065700
     53 H152        7.1080    4.5620   -5.0500 h1        1 478      0.065700
     54 H16         5.5750    1.8780   -4.7440 hc        1 478      0.032700
     55 H18         7.1970    7.5680   -6.5630 ha        1 478      0.168000
     56 H19         7.0010    9.9650   -6.0720 ha        1 478      0.177500
     57 H21         2.6420    9.6550   -6.4770 ha        1 478      0.177500
     58 H22         2.8790    7.2590   -6.9610 ha        1 478      0.168000
     59 H231        5.5670    2.8000   -7.0800 hc        1 478      0.052367
     60 H232        7.3610    3.0400   -7.0010 hc        1 478      0.052367
     61 H233        6.6660    1.3660   -6.9370 hc        1 478      0.052367
     62 H241        8.6010    2.5350   -4.8080 hc        1 478      0.052367
     63 H242        7.8630    0.8820   -4.8490 hc        1 478      0.052367
     64 H243        7.6540    1.9290   -3.3830 hc        1 478      0.052367
     65 H251        2.8650   -2.7440    2.2370 h1        1 478      0.078700
     66 H252        1.6190   -1.4050    2.3990 h1        1 478      0.078700
     67 HN1         0.9350    1.1260   -2.6020 hn        1 478      0.490800
     68 HN31        5.4960   11.9030   -5.8670 hn        1 478      0.472800
     69 HN32        3.7980   11.7840   -6.0260 hn        1 478      0.472800
     70 HO3         3.5530    4.7170   -2.3600 ho        1 478      0.436000
     71 H121        1.7750    2.3470   -1.8080 hn        1 478      0.490800
     72 H211        4.9210    5.4000   -4.2860 hn        1 478      0.374800
@<TRIPOS>BOND
     1    1    4 1   
     2    1   34 1   
     3    1   36 1   
     4    1   37 1   
     5    2    4 1   
     6    2   25 1   
     7    2   38 1   
     8    2   39 1   
     9    3   26 1   
    10    3   29 1   
    11    3   30 2   
    12    4   29 1   
    13    4   40 1   
    14    5    6 1   
    15    5    7 1   
    16    5   26 1   
    17    5   41 1   
    18    6   14 1   
    19    6   31 1   
    20    6   42 1   
    21    7    8 1   
    22    7   43 1   
    23    7   44 1   
    24    8    9 ar  
    25    8   10 ar  
    26    9   11 ar  
    27    9   45 1   
    28   10   12 ar  
    29   10   46 1   
    30   11   13 ar  
    31   11   47 1   
    32   12   13 ar  
    33   12   48 1   
    34   13   49 1   
    35   14   27 1   
    36   14   50 1   
    37   14   51 1   
    38   15   16 1   
    39   15   27 1   
    40   15   52 1   
    41   15   53 1   
    42   16   23 1   
    43   16   24 1   
    44   16   54 1   
    45   17   18 ar  
    46   17   22 ar  
    47   17   35 1   
    48   18   19 ar  
    49   18   55 1   
    50   19   20 ar  
    51   19   56 1   
    52   20   21 ar  
    53   20   28 1   
    54   21   22 ar  
    55   21   57 1   
    56   22   58 1   
    57   23   59 1   
    58   23   60 1   
    59   23   61 1   
    60   24   62 1   
    61   24   63 1   
    62   24   64 1   
    63   25   34 1   
    64   25   65 1   
    65   25   66 1   
    66   26   67 1   
    67   26   71 1   
    68   27   72 1   
    69   28   68 1   
    70   28   69 1   
    71   31   70 1   
    72   32   35 1   
    73   33   35 1   
@<TRIPOS>SUBSTRUCTURE
     1 478         1 TEMP              0 ****  ****    0 ROOT
