@<TRIPOS>MOLECULE
478
   72    73     1     0     0
SMALL
bcc


@<TRIPOS>ATOM
      1 C1          3.5050   -2.0280   -1.1460 c3        1 478      0.101400
      2 C2          2.0290   -1.7960    0.7740 c3        1 478     -0.119400
      3 C3          2.9160    0.9550   -1.4230 c         1 478      0.623100
      4 C4          3.0430   -1.0310   -0.0770 c3        1 478      0.135100
      5 C5          2.3620    2.3300   -3.4410 c3        1 478      0.151500
      6 C6          3.4790    3.4050   -3.4020 c3        1 478      0.088100
      7 C7          1.1280    2.8170   -4.2170 c3        1 478     -0.053100
      8 C8         -0.0110    1.8650   -4.1220 ca        1 478     -0.175300
      9 C9         -1.0720    2.1240   -3.2440 ca        1 478     -0.132000
     10 C10        -0.0550    0.7320   -4.9430 ca        1 478     -0.132000
     11 C11        -2.1600    1.2560   -3.1860 ca        1 478     -0.110500
     12 C12        -1.1440   -0.1370   -4.8810 ca        1 478     -0.110500
     13 C13        -2.1970    0.1230   -4.0020 ca        1 478     -0.090000
     14 C14         3.7980    3.8860   -4.8310 c3        1 478      0.106800
     15 C15         6.2730    3.9370   -4.6820 c3        1 478      0.120800
     16 C16         6.3630    2.4490   -5.0450 c3        1 478     -0.064700
     17 C17         5.0030    7.0130   -7.1230 ca        1 478     -0.729500
     18 C18         6.1840    7.8210   -7.0080 ca        1 478      0.068000
     19 C19         6.1440    9.1740   -6.8650 ca        1 478     -0.234500
     20 C20         4.8820    9.8740   -6.8270 ca        1 478      0.333600
     21 C21         3.6830    9.0730   -6.9080 ca        1 478     -0.234500
     22 C22         3.7580    7.7210   -7.0490 ca        1 478      0.068000
     23 C23         6.3240    2.2200   -6.5390 c3        1 478     -0.102600
     24 C24         7.6560    1.8990   -4.4690 c3        1 478     -0.102600
     25 C25         1.8430   -3.1360    0.0600 c3        1 478      0.117400
     26 N1          1.9650    1.9280   -2.0380 ny        1 478     -0.644800
     27 N2          5.0280    4.6400   -5.0020 n7        1 478     -0.893200
     28 N3          4.8260   11.2090   -6.7210 nv        1 478     -0.768200
     29 O1          2.2520    0.0540   -0.6840 os        1 478     -0.397900
     30 O2          4.1290    1.0200   -1.5810 o         1 478     -0.451000
     31 O3          2.9780    4.4730   -2.6100 oh        1 478     -0.615800
     32 O4          3.9180    4.8360   -7.6050 o         1 478     -0.445400
     33 O5          6.3000    4.9640   -7.6090 o         1 478     -0.445400
     34 O6          2.5300   -3.0660   -1.2000 os        1 478     -0.398600
     35 S1          5.0780    5.5170   -7.3920 s4        1 478      1.693300
     36 H11A        4.4970   -2.4670   -0.8610 h1        1 478      0.076200
     37 H12A        3.5560   -1.5830   -2.1710 h1        1 478      0.076200
     38 H21A        1.0610   -1.2390    0.8490 hc        1 478      0.092700
     39 H22A        2.4290   -1.9360    1.8100 hc        1 478      0.092700
     40 H4          3.8820   -0.5580    0.4920 h1        1 478      0.103700
     41 H5          2.7830    1.4050   -3.9400 hx        1 478      0.117700
     42 H6          4.4000    2.9600   -2.9210 h1        1 478      0.090700
     43 H71         0.8320    3.8340   -3.8440 hc        1 478      0.093700
     44 H72         1.4370    2.9240   -5.2940 hc        1 478      0.093700
     45 H9         -1.0720    3.0380   -2.6300 ha        1 478      0.136000
     46 H10         0.7620    0.5330   -5.6540 ha        1 478      0.136000
     47 H11        -3.0000    1.4710   -2.5050 ha        1 478      0.161500
     48 H12        -1.1770   -1.0230   -5.5350 ha        1 478      0.161500
     49 H13        -3.0620   -0.5580   -3.9610 ha        1 478      0.165000
     50 H141        3.8340    2.9910   -5.5160 h1        1 478      0.094200
     51 H142        2.9500    4.5510   -5.1730 h1        1 478      0.094200
     52 H151        6.4960    4.0310   -3.5790 h1        1 478      0.065700
     53 H152        7.0890    4.4810   -5.2450 h1        1 478      0.065700
     54 H16         5.5050    1.8970   -4.5660 hc        1 478      0.032700
     55 H18         7.1670    7.3090   -7.0540 ha        1 478      0.168000
     56 H19         7.0830    9.7490   -6.7920 ha        1 478      0.177500
     57 H21         2.6990    9.5710   -6.8700 ha        1 478      0.177500
     58 H22         2.8230    7.1320   -7.1280 ha        1 478      0.168000
     59 H231        6.4270    1.1310   -6.7630 hc        1 478      0.052533
     60 H232        5.3620    2.5810   -6.9790 hc        1 478      0.052533
     61 H233        7.1620    2.7640   -7.0430 hc        1 478      0.052533
     62 H241        8.5370    2.4370   -4.8960 hc        1 478      0.052533
     63 H242        7.6740    2.0090   -3.3580 hc        1 478      0.052533
     64 H243        7.7510    0.8150   -4.7210 hc        1 478      0.052533
     65 H251        2.2810   -3.9820    0.6500 h1        1 478      0.079700
     66 H252        0.7740   -3.3530   -0.1900 h1        1 478      0.079700
     67 HN1         1.9360    2.7760   -1.4500 hn        1 478      0.490300
     68 HN31        5.6600   11.7550   -6.6800 hn        1 478      0.472800
     69 HN32        3.9520   11.6870   -6.7110 hn        1 478      0.472800
     70 HO3         3.7280    5.0250   -2.3510 ho        1 478      0.436000
     71 H121        1.0150    1.5100   -2.0630 hn        1 478      0.490300
     72 H211        4.9850    5.4670   -4.4260 hn        1 478      0.374800
@<TRIPOS>BOND
     1    1    4 1   
     2    1   34 1   
     3    1   36 1   
     4    1   37 1   
     5    2    4 1   
     6    2   25 1   
     7    2   38 1   
     8    2   39 1   
     9    3   26 1   
    10    3   29 1   
    11    3   30 2   
    12    4   29 1   
    13    4   40 1   
    14    5    6 1   
    15    5    7 1   
    16    5   26 1   
    17    5   41 1   
    18    6   14 1   
    19    6   31 1   
    20    6   42 1   
    21    7    8 1   
    22    7   43 1   
    23    7   44 1   
    24    8    9 ar  
    25    8   10 ar  
    26    9   11 ar  
    27    9   45 1   
    28   10   12 ar  
    29   10   46 1   
    30   11   13 ar  
    31   11   47 1   
    32   12   13 ar  
    33   12   48 1   
    34   13   49 1   
    35   14   27 1   
    36   14   50 1   
    37   14   51 1   
    38   15   16 1   
    39   15   27 1   
    40   15   52 1   
    41   15   53 1   
    42   16   23 1   
    43   16   24 1   
    44   16   54 1   
    45   17   18 ar  
    46   17   22 ar  
    47   17   35 1   
    48   18   19 ar  
    49   18   55 1   
    50   19   20 ar  
    51   19   56 1   
    52   20   21 ar  
    53   20   28 1   
    54   21   22 ar  
    55   21   57 1   
    56   22   58 1   
    57   23   59 1   
    58   23   60 1   
    59   23   61 1   
    60   24   62 1   
    61   24   63 1   
    62   24   64 1   
    63   25   34 1   
    64   25   65 1   
    65   25   66 1   
    66   26   67 1   
    67   26   71 1   
    68   27   72 1   
    69   28   68 1   
    70   28   69 1   
    71   31   70 1   
    72   32   35 1   
    73   33   35 1   
@<TRIPOS>SUBSTRUCTURE
     1 478         1 TEMP              0 ****  ****    0 ROOT
