@<TRIPOS>MOLECULE
478
   70    66     1     0     0
SMALL
bcc


@<TRIPOS>ATOM
      1 C1         -2.2880    1.6190    5.6980 c3        1 478     -0.043000
      2 C2         -1.1450   -0.2300    6.5690 c3        1 478     -0.196000
      3 C3         -1.4740   -0.0060    3.0610 c1        1 478      0.387000
      4 C4         -1.7580    0.1020    5.4760 c3        1 478      0.021000
      5 C5         -1.2900    0.6860    0.6700 c3        1 478      0.002000
      6 C6         -0.2590    0.7460   -0.4410 c3        1 478      0.002000
      7 C7         -1.8010    2.0800    0.9600 c3        1 478     -0.148000
      8 C8         -3.2460    2.2160    0.4410 c2        1 478     -0.091000
      9 C9         -3.7740    3.4760    0.1940 c2        1 478     -0.133000
     10 C10        -4.0680    1.0960    0.3830 c1        1 478     -0.125000
     11 C11        -5.1230    3.6170   -0.1120 c1        1 478     -0.135000
     12 C12        -5.4140    1.2390    0.0770 c1        1 478     -0.116500
     13 C13        -5.9410    2.4990   -0.1710 c1        1 478     -0.116500
     14 C14        -0.2020   -0.6030   -1.1600 c3        1 478     -0.034000
     15 C15         0.9520   -1.3060   -3.2870 c3        1 478     -0.002000
     16 C16         1.1240   -0.2450   -4.3850 c3        1 478     -0.132000
     17 C17         3.7360   -1.3660   -1.6350 c1        1 478     -0.905000
     18 C18         4.9080   -1.0190   -2.2820 c1        1 478     -0.116500
     19 C19         5.9350   -1.9380   -2.3950 c1        1 478     -0.116500
     20 C20         5.7900   -3.2070   -1.8590 c1        1 478      0.162000
     21 C21         4.6210   -3.5540   -1.2130 c1        1 478     -0.239000
     22 C22         3.5920   -2.6330   -1.1000 c1        1 478      0.034000
     23 C23         2.2810   -0.6390   -5.2940 c3        1 478     -0.211000
     24 C24        -0.1560   -0.1490   -5.2030 c3        1 478     -0.211000
     25 C25        -1.8140    0.6360    7.6860 c3        1 478     -0.023000
     26 N1         -0.6900    0.1420    1.8500 n2        1 478     -0.344000
     27 N2          0.9990   -0.6660   -1.9830 n3        1 478     -0.820000
     28 N3          6.8330   -4.1650   -2.0100 n3        1 478     -0.362000
     29 O1         -0.8280    0.0520    4.3420 os        1 478     -0.277000
     30 O2         -2.6580   -0.2950    2.9880 o         1 478     -0.412000
     31 O3         -0.6140    1.7410   -1.3490 oh        1 478     -0.318000
     32 O4          2.8330    1.1350   -1.9400 o         1 478     -0.946000
     33 O5          2.3460    0.2110    0.0170 o         1 478     -0.946000
     34 O6         -2.6660    1.6970    6.9420 os        1 478     -0.278000
     35 S1          2.4600   -0.1310   -1.3700 s6        1 478      2.859000
     36 H11A       -3.0410    1.8000    5.1070 h1        1 478      0.101500
     37 H12A       -1.5710    2.2500    5.5280 h1        1 478      0.101500
     38 H21A       -0.1900   -0.0200    6.5020 hc        1 478      0.107000
     39 H22A       -1.2720   -1.1820    6.7550 hc        1 478      0.107000
     40 H4         -2.5080   -0.4940    5.3200 h1        1 478      0.130000
     41 H5         -2.0310    0.1200    0.3940 h1        1 478      0.114000
     42 H6          0.6120    0.9480   -0.0640 h1        1 478      0.144000
     43 H71        -1.2280    2.7380    0.5100 hc        1 478      0.106500
     44 H72        -1.7840    2.2390    1.9230 hc        1 478      0.106500
     45 H9         -3.1960    4.2650    0.2350 ha        1 478      0.140000
     46 H10        -3.6970    0.2080    0.5570 ha        1 478      0.163000
     47 H11        -5.4950    4.5030   -0.2860 ha        1 478      0.131000
     48 H12        -5.9910    0.4520    0.0350 ha        1 478      0.138500
     49 H13        -6.8910    2.5990   -0.3860 ha        1 478      0.138500
     50 H141       -0.1830   -1.3180   -0.5040 h1        1 478      0.096000
     51 H142       -0.9910   -0.7030   -1.7270 h1        1 478      0.096000
     52 H151        0.0870   -1.7550   -3.3990 h1        1 478      0.083000
     53 H152        1.6720   -1.9640   -3.3540 h1        1 478      0.083000
     54 H16         1.3130    0.6160   -3.9760 hc        1 478      0.116000
     55 H18         5.0110   -0.1160   -2.6640 ha        1 478      0.138500
     56 H19         6.7590   -1.6930   -2.8510 ha        1 478      0.138500
     57 H21         4.5190   -4.4530   -0.8330 ha        1 478      0.139000
     58 H22         2.7610   -2.8810   -0.6400 ha        1 478      0.152000
     59 H231        1.9700   -1.2960   -5.9520 hc        1 478      0.077000
     60 H232        2.9980   -1.0290   -4.7580 hc        1 478      0.077000
     61 H233        2.6160    0.1590   -5.7610 hc        1 478      0.077000
     62 H241       -0.7030   -0.9490   -5.0500 hc        1 478      0.077000
     63 H242       -0.6600    0.6510   -4.9300 hc        1 478      0.077000
     64 H243        0.0700   -0.0830   -6.1620 hc        1 478      0.077000
     65 H251       -2.3860    0.0790    8.2470 h1        1 478      0.089500
     66 H252       -1.1290    1.0730    8.2300 h1        1 478      0.089500
     67 HN1         0.2010   -0.0650    1.8550 hn        1 478      0.274000
     68 HN31        6.9860   -4.7810   -1.3530 hn        1 478      0.218500
     69 HN32        7.3440   -4.1690   -2.7710 hn        1 478      0.218500
     70 HO3        -1.1730    1.4090   -1.9470 ho        1 478      0.207000
@<TRIPOS>BOND
     1    1    4 1   
     2    1   34 1   
     3    1   36 1   
     4    1   37 1   
     5    2    4 1   
     6    2   25 1   
     7    2   38 1   
     8    2   39 1   
     9    3   29 1   
    10    3   30 1   
    11    4   29 1   
    12    4   40 1   
    13    5    6 1   
    14    5    7 1   
    15    5   26 1   
    16    5   41 1   
    17    6   14 1   
    18    6   31 1   
    19    6   42 1   
    20    7    8 1   
    21    7   43 1   
    22    7   44 1   
    23    8    9 1   
    24    8   10 1   
    25    9   11 1   
    26    9   45 1   
    27   10   46 1   
    28   11   47 1   
    29   12   13 1   
    30   12   48 1   
    31   13   49 1   
    32   14   27 1   
    33   14   50 1   
    34   14   51 1   
    35   15   16 1   
    36   15   27 1   
    37   15   52 1   
    38   15   53 1   
    39   16   23 1   
    40   16   24 1   
    41   16   54 1   
    42   17   22 1   
    43   17   35 1   
    44   18   19 1   
    45   18   55 1   
    46   19   56 1   
    47   20   21 1   
    48   20   28 1   
    49   21   57 1   
    50   22   58 1   
    51   23   59 1   
    52   23   60 1   
    53   23   61 1   
    54   24   62 1   
    55   24   63 1   
    56   24   64 1   
    57   25   34 1   
    58   25   65 1   
    59   25   66 1   
    60   26   67 1   
    61   27   35 1   
    62   28   68 1   
    63   28   69 1   
    64   31   70 1   
    65   32   35 1   
    66   33   35 1   
@<TRIPOS>SUBSTRUCTURE
     1 478         1 TEMP              0 ****  ****    0 ROOT
