@<TRIPOS>MOLECULE
478
   70    72     1     0     0
SMALL
bcc


@<TRIPOS>ATOM
      1 C1          6.1400   -1.1400   -1.5220 c3        1 478      0.106400
      2 C2          5.1780   -0.8790   -3.7530 c3        1 478     -0.117400
      3 C3          2.9220   -0.9060   -0.9380 c         1 478      0.735100
      4 C4          4.8410   -1.3150   -2.3230 c3        1 478      0.130100
      5 C5          0.9630   -0.2570    0.3730 c3        1 478      0.078700
      6 C6         -0.2940   -0.2740   -0.5480 c3        1 478      0.089100
      7 C7          0.7350    0.7130    1.5490 c3        1 478     -0.041100
      8 C8          1.7480    0.5460    2.6230 ca        1 478     -0.082300
      9 C9          2.7450    1.5090    2.8160 ca        1 478     -0.121000
     10 C10         1.7030   -0.5730    3.4640 ca        1 478     -0.121000
     11 C11         3.6830    1.3550    3.8360 ca        1 478     -0.126500
     12 C12         2.6420   -0.7250    4.4820 ca        1 478     -0.126500
     13 C13         3.6340    0.2380    4.6700 ca        1 478     -0.127000
     14 C14        -1.3690   -1.1880    0.0770 c3        1 478      0.195800
     15 C15        -2.8070   -1.2410   -1.9110 c3        1 478      0.216800
     16 C16        -2.3820   -2.6100   -2.4680 c3        1 478     -0.080700
     17 C17        -3.8930    0.8880    0.7120 ca        1 478     -0.459500
     18 C18        -4.5450    1.7810   -0.1520 ca        1 478      0.028000
     19 C19        -4.5250    3.1470    0.0600 ca        1 478     -0.239000
     20 C20        -3.8300    3.6880    1.1750 ca        1 478      0.242600
     21 C21        -3.1780    2.7850    2.0600 ca        1 478     -0.239000
     22 C22        -3.2190    1.4250    1.8190 ca        1 478      0.028000
     23 C23        -3.2030   -3.7350   -1.8790 c3        1 478     -0.093600
     24 C24        -2.5260   -2.5780   -3.9760 c3        1 478     -0.093600
     25 C25         6.6330   -0.4310   -3.7090 c3        1 478      0.127400
     26 N1          2.1650    0.0890   -0.3550 n         1 478     -0.516900
     27 N2         -2.6840   -1.0760   -0.4850 n3        1 478     -0.802500
     28 N3         -3.7470    5.0480    1.3670 nh        1 478     -0.852200
     29 O1          3.8450   -0.4000   -1.8360 os        1 478     -0.443900
     30 O2          2.8830   -2.1290   -0.7230 o         1 478     -0.588000
     31 O3         -0.7280    1.0400   -0.8270 oh        1 478     -0.591800
     32 O4         -3.7990   -1.4050    1.7170 o         1 478     -0.655300
     33 O5         -5.1720   -1.0650   -0.2310 o         1 478     -0.655300
     34 O6          7.1740   -0.7320   -2.4190 os        1 478     -0.422600
     35 S1         -3.9810   -0.7660    0.4680 sy        1 478      1.515200
     36 H11A        6.0330   -0.3490   -0.7360 h1        1 478      0.062200
     37 H12A        6.4770   -2.1030   -1.0620 h1        1 478      0.062200
     38 H21A        5.0400   -1.7350   -4.4570 hc        1 478      0.068200
     39 H22A        4.5080   -0.0450   -4.0810 hc        1 478      0.068200
     40 H4          4.4590   -2.3680   -2.2750 h1        1 478      0.097700
     41 H5          1.1030   -1.3020    0.7870 h1        1 478      0.097700
     42 H6         -0.0170   -0.6870   -1.5630 h1        1 478      0.084700
     43 H71         0.7340    1.7710    1.1710 hc        1 478      0.055200
     44 H72        -0.2870    0.5110    1.9700 hc        1 478      0.055200
     45 H9          2.7920    2.3890    2.1580 ha        1 478      0.131000
     46 H10         0.9230   -1.3350    3.3170 ha        1 478      0.131000
     47 H11         4.4650    2.1150    3.9790 ha        1 478      0.133000
     48 H12         2.6020   -1.6080    5.1370 ha        1 478      0.133000
     49 H13         4.3750    0.1170    5.4730 ha        1 478      0.132000
     50 H141       -1.0000   -2.2500   -0.0380 h1        1 478      0.061700
     51 H142       -1.4460   -0.9750    1.1840 h1        1 478      0.061700
     52 H151       -2.1830   -0.4480   -2.4200 h1        1 478      0.059200
     53 H152       -3.8880   -1.0700   -2.1920 h1        1 478      0.059200
     54 H16        -1.2970   -2.7820   -2.2170 hc        1 478      0.048700
     55 H18        -5.1030    1.3740   -1.0160 ha        1 478      0.151000
     56 H19        -5.0490    3.8150   -0.6400 ha        1 478      0.141000
     57 H21        -2.6440    3.1670    2.9430 ha        1 478      0.141000
     58 H22        -2.7250    0.7340    2.5280 ha        1 478      0.151000
     59 H231       -4.2950   -3.5220   -1.9810 hc        1 478      0.038700
     60 H232       -2.9770   -4.6930   -2.4070 hc        1 478      0.038700
     61 H233       -2.9670   -3.8690   -0.7960 hc        1 478      0.038700
     62 H241       -1.9170   -1.7500   -4.4120 hc        1 478      0.038700
     63 H242       -2.1760   -3.5440   -4.4130 hc        1 478      0.038700
     64 H243       -3.5930   -2.4260   -4.2660 hc        1 478      0.038700
     65 H251        7.2710   -0.9760   -4.4510 h1        1 478      0.048700
     66 H252        6.7330    0.6740   -3.8640 h1        1 478      0.048700
     67 HN1         2.2000    0.9960   -0.7640 hn        1 478      0.326500
     68 HN31       -4.3620    5.6310    0.8540 hn        1 478      0.423800
     69 HN32       -3.4350    5.3790    2.2460 hn        1 478      0.423800
     70 HO3        -1.2620    1.3430   -0.0800 ho        1 478      0.407000
@<TRIPOS>BOND
     1    1    4 1   
     2    1   34 1   
     3    1   36 1   
     4    1   37 1   
     5    2    4 1   
     6    2   25 1   
     7    2   38 1   
     8    2   39 1   
     9    3   26 1   
    10    3   29 1   
    11    3   30 2   
    12    4   29 1   
    13    4   40 1   
    14    5    6 1   
    15    5    7 1   
    16    5   26 1   
    17    5   41 1   
    18    6   14 1   
    19    6   31 1   
    20    6   42 1   
    21    7    8 1   
    22    7   43 1   
    23    7   44 1   
    24    8    9 ar  
    25    8   10 ar  
    26    9   11 ar  
    27    9   45 1   
    28   10   12 ar  
    29   10   46 1   
    30   11   13 ar  
    31   11   47 1   
    32   12   13 ar  
    33   12   48 1   
    34   13   49 1   
    35   14   27 1   
    36   14   50 1   
    37   14   51 1   
    38   15   16 1   
    39   15   27 1   
    40   15   52 1   
    41   15   53 1   
    42   16   23 1   
    43   16   24 1   
    44   16   54 1   
    45   17   18 ar  
    46   17   22 ar  
    47   17   35 1   
    48   18   19 ar  
    49   18   55 1   
    50   19   20 ar  
    51   19   56 1   
    52   20   21 ar  
    53   20   28 1   
    54   21   22 ar  
    55   21   57 1   
    56   22   58 1   
    57   23   59 1   
    58   23   60 1   
    59   23   61 1   
    60   24   62 1   
    61   24   63 1   
    62   24   64 1   
    63   25   34 1   
    64   25   65 1   
    65   25   66 1   
    66   26   67 1   
    67   27   35 1   
    68   28   68 1   
    69   28   69 1   
    70   31   70 1   
    71   32   35 2   
    72   33   35 2   
@<TRIPOS>SUBSTRUCTURE
     1 478         1 TEMP              0 ****  ****    0 ROOT
