@<TRIPOS>MOLECULE
478
   73    74     1     0     0
SMALL
bcc


@<TRIPOS>ATOM
      1 C1          4.5230   -0.8320   -0.4440 c3        1 478      0.098400
      2 C2          2.7010   -2.2580    0.2960 c3        1 478     -0.121400
      3 C3          2.2690    1.0650   -1.0900 c         1 478      0.634100
      4 C4          3.1270   -0.7920    0.1880 c3        1 478      0.139100
      5 C5          1.7410    1.9010   -3.3920 c3        1 478      0.117500
      6 C6          2.7370    3.0880   -3.2590 c3        1 478      0.110100
      7 C7          0.5640    2.2030   -4.3360 c3        1 478     -0.047100
      8 C8         -0.4780    1.1430   -4.2880 ca        1 478     -0.191300
      9 C9         -1.6100    1.3090   -3.4760 ca        1 478     -0.132500
     10 C10        -0.3680    0.0040   -5.0950 ca        1 478     -0.132500
     11 C11        -2.6150    0.3450   -3.4700 ca        1 478     -0.107000
     12 C12        -1.3760   -0.9610   -5.0850 ca        1 478     -0.107000
     13 C13        -2.4990   -0.7920   -4.2740 ca        1 478     -0.081000
     14 C14         2.9400    3.8000   -4.6150 c3        1 478      0.112800
     15 C15         5.2790    4.6210   -4.3500 c3        1 478      0.116800
     16 C16         5.8490    3.3470   -4.9860 c3        1 478     -0.074700
     17 C17         4.5890    7.2420   -6.5990 ca        1 478     -0.492500
     18 C18         5.6440    6.9380   -7.4820 ca        1 478      0.042500
     19 C19         6.6470    7.8620   -7.7700 ca        1 478     -0.118500
     20 C20         6.6080    9.1280   -7.1600 ca        1 478      0.073600
     21 C21         5.5870    9.4500   -6.2480 ca        1 478     -0.118500
     22 C22         4.5960    8.5090   -5.9780 ca        1 478      0.042500
     23 C23         5.8910    3.4130   -6.4950 c3        1 478     -0.110100
     24 C24         7.2490    3.1350   -4.4340 c3        1 478     -0.110100
     25 C25         3.7770   -3.0390   -0.4640 c3        1 478      0.116400
     26 N1          1.1970    1.4870   -2.0450 n4        1 478     -0.644800
     27 N2          3.8620    4.9390   -4.5780 n3        1 478     -0.913200
     28 N3          7.6280   10.1290   -7.4920 n4        1 478     -0.728000
     29 O1          2.1340   -0.2150   -0.7470 os        1 478     -0.384900
     30 O2          3.1220    1.8630   -0.7090 o         1 478     -0.485000
     31 O3          2.2320    4.0590   -2.3610 oh        1 478     -0.609800
     32 O4          2.2740    6.7780   -5.7600 o         1 478     -0.395400
     33 O5          3.2880    5.1960   -7.2800 o         1 478     -0.395400
     34 O6          4.6370   -2.0850   -1.1110 os        1 478     -0.404600
     35 S1          3.3320    6.2370   -6.4150 s4        1 478      1.623300
     36 H11A        4.6860   -0.0410   -1.2160 h1        1 478      0.074700
     37 H12A        5.3060   -0.7620    0.3580 h1        1 478      0.074700
     38 H21A        1.6880   -2.4220   -0.1480 hc        1 478      0.100700
     39 H22A        2.6590   -2.5600    1.3740 hc        1 478      0.100700
     40 H4          3.0660   -0.2000    1.1330 h1        1 478      0.111700
     41 H5          2.3110    1.0080   -3.7940 hx        1 478      0.119700
     42 H6          3.7250    2.6800   -2.8960 h1        1 478      0.084700
     43 H71         0.1180    3.2000   -4.0710 hc        1 478      0.085700
     44 H72         0.9810    2.2680   -5.3780 hc        1 478      0.085700
     45 H9         -1.7320    2.2240   -2.8770 ha        1 478      0.134000
     46 H10         0.5030   -0.1260   -5.7540 ha        1 478      0.134000
     47 H11        -3.5110    0.4860   -2.8440 ha        1 478      0.168500
     48 H12        -1.2900   -1.8510   -5.7300 ha        1 478      0.168500
     49 H13        -3.3020   -1.5490   -4.2780 ha        1 478      0.174000
     50 H141        1.9420    4.2200   -4.9440 h1        1 478      0.102200
     51 H142        3.2920    3.0490   -5.3780 h1        1 478      0.102200
     52 H151        5.4660    4.5500   -3.2360 h1        1 478      0.068200
     53 H152        5.8640    5.5060   -4.7340 h1        1 478      0.068200
     54 H16         5.2200    2.4650   -4.6770 hc        1 478      0.058700
     55 H18         5.6760    5.9450   -7.9840 ha        1 478      0.208000
     56 H19         7.4460    7.5800   -8.4830 ha        1 478      0.204500
     57 H21         5.5400   10.4360   -5.7450 ha        1 478      0.204500
     58 H22         3.7810    8.7870   -5.2740 ha        1 478      0.208000
     59 H231        4.8700    3.5190   -6.9330 hc        1 478      0.055867
     60 H232        6.3440    2.4730   -6.9010 hc        1 478      0.055867
     61 H233        6.5250    4.2690   -6.8330 hc        1 478      0.055867
     62 H241        7.2270    3.0180   -3.3240 hc        1 478      0.055867
     63 H242        7.6910    2.2070   -4.8760 hc        1 478      0.055867
     64 H243        7.9120    3.9950   -4.6900 hc        1 478      0.055867
     65 H251        4.4010   -3.6630    0.2270 h1        1 478      0.085700
     66 H252        3.3590   -3.6740   -1.2850 h1        1 478      0.085700
     67 HN1         0.5190    0.7140   -2.1920 hn        1 478      0.493300
     68 HN31        8.5120    9.6690   -7.7590 hn        1 478      0.493133
     69 HN32        7.8030   10.7470   -6.6860 hn        1 478      0.493133
     70 HO3         2.6840    3.9460   -1.5080 ho        1 478      0.452000
     71 H121        0.6980    2.2930   -1.6380 hn        1 478      0.493300
     72 H211        3.5580    5.5330   -3.8090 hn        1 478      0.417800
     73 H33         7.3010   10.7040   -8.2860 hn        1 478      0.493133
@<TRIPOS>BOND
     1    1    4 1   
     2    1   34 1   
     3    1   36 1   
     4    1   37 1   
     5    2    4 1   
     6    2   25 1   
     7    2   38 1   
     8    2   39 1   
     9    3   26 1   
    10    3   29 1   
    11    3   30 2   
    12    4   29 1   
    13    4   40 1   
    14    5    6 1   
    15    5    7 1   
    16    5   26 1   
    17    5   41 1   
    18    6   14 1   
    19    6   31 1   
    20    6   42 1   
    21    7    8 1   
    22    7   43 1   
    23    7   44 1   
    24    8    9 ar  
    25    8   10 ar  
    26    9   11 ar  
    27    9   45 1   
    28   10   12 ar  
    29   10   46 1   
    30   11   13 ar  
    31   11   47 1   
    32   12   13 ar  
    33   12   48 1   
    34   13   49 1   
    35   14   27 1   
    36   14   50 1   
    37   14   51 1   
    38   15   16 1   
    39   15   27 1   
    40   15   52 1   
    41   15   53 1   
    42   16   23 1   
    43   16   24 1   
    44   16   54 1   
    45   17   18 ar  
    46   17   22 ar  
    47   17   35 1   
    48   18   19 ar  
    49   18   55 1   
    50   19   20 ar  
    51   19   56 1   
    52   20   21 ar  
    53   20   28 1   
    54   21   22 ar  
    55   21   57 1   
    56   22   58 1   
    57   23   59 1   
    58   23   60 1   
    59   23   61 1   
    60   24   62 1   
    61   24   63 1   
    62   24   64 1   
    63   25   34 1   
    64   25   65 1   
    65   25   66 1   
    66   26   67 1   
    67   26   71 1   
    68   27   72 1   
    69   28   68 1   
    70   28   69 1   
    71   28   73 1   
    72   31   70 1   
    73   32   35 1   
    74   33   35 1   
@<TRIPOS>SUBSTRUCTURE
     1 478         1 TEMP              0 ****  ****    0 ROOT
