@<TRIPOS>MOLECULE
47C
   40    41     1     0     0
SMALL
bcc


@<TRIPOS>ATOM
      1 N1          1.1650   -1.3240    0.5190 n         1 47C     -0.361000
      2 C2          2.4760   -1.6030    1.0300 c         1 47C      0.817900
      3 N3          3.4670   -0.6000    1.0330 nc        1 47C     -0.709100
      4 C4          3.1650    0.6000    0.5270 cd        1 47C      0.653500
      5 C5          1.8570    0.9120   -0.0020 cd        1 47C     -0.454600
      6 C6          0.9010   -0.0860    0.0110 cc        1 47C      0.102600
      7 O2          2.7230   -2.7440    1.4820 o         1 47C     -0.657500
      8 N4          4.1690    1.6350    0.3790 nh        1 47C     -0.524700
      9 C1'         0.1300   -2.3830    0.5090 c3        1 47C      0.291500
     10 C2'        -0.9420   -2.2020    1.6020 c3        1 47C     -0.130400
     11 CM2         6.3360    0.8350    0.8500 c3        1 47C      0.159600
     12 C3'        -2.1690   -1.6490    0.8610 c3        1 47C      0.153100
     13 C4'        -1.9110   -1.9640   -0.6260 c3        1 47C      0.049100
     14 O4'        -0.5280   -2.3980   -0.7500 os        1 47C     -0.440600
     15 O3'        -3.3190   -2.3100    1.3340 oh        1 47C     -0.667800
     16 C5'        -2.1630   -0.7730   -1.5810 c3        1 47C      0.225400
     17 O5'        -3.4590   -0.7570   -2.0120 os        1 47C     -0.552200
     18 P          -4.4250    0.4890   -1.2550 p5        1 47C      1.329900
     19 OP1        -4.4120   -0.0740    0.1520 o         1 47C     -0.928833
     20 OP2        -3.5390    1.6910   -1.4320 o         1 47C     -0.928833
     21 O           5.1820    1.6000    1.2640 os        1 47C     -0.233100
     22 CD          7.1290    1.5390   -0.1920 c2        1 47C     -0.164200
     23 CE          8.4200    1.2980   -0.4090 c2        1 47C     -0.252000
     24 OP3        -5.7190    0.4420   -2.0030 o         1 47C     -0.928833
     25 H6         -0.1270    0.0820   -0.3930 h4        1 47C      0.228000
     26 H1'         0.6830   -3.3630    0.5990 h2        1 47C      0.089700
     27 H5          1.6150    1.8960   -0.4170 ha        1 47C      0.163000
     28 H4          3.7080    2.5330    0.5330 hn        1 47C      0.395800
     29 H2'1       -1.1750   -3.2000    2.0480 hc        1 47C      0.054200
     30 H2'2       -0.6210   -1.5180    2.4210 hc        1 47C      0.054200
     31 H3'        -2.2790   -0.5400    1.0200 h1        1 47C      0.100700
     32 HM21        6.9040    0.7450    1.8170 h1        1 47C      0.077700
     33 HM22        6.0360   -0.1860    0.4930 h1        1 47C      0.077700
     34 HD          6.5690    2.2720   -0.7960 ha        1 47C      0.138000
     35 H4'        -2.5290   -2.8420   -0.9530 h1        1 47C      0.074700
     36 H5'1       -1.9050    0.1970   -1.0630 h1        1 47C     -0.003800
     37 H5'2       -1.4660   -0.9130   -2.4610 h1        1 47C     -0.003800
     38 H55        -4.0770   -1.7550    1.0330 ho        1 47C      0.501000
     39 HE5         8.9960    0.5720    0.1790 ha        1 47C      0.103000
     40 HE6         8.9860    1.8080   -1.1980 ha        1 47C      0.103000
@<TRIPOS>BOND
     1    1    2 1   
     2    1    6 1   
     3    1    9 1   
     4    2    3 1   
     5    2    7 2   
     6    3    4 2   
     7    4    5 1   
     8    4    8 1   
     9    5    6 2   
    10    5   27 1   
    11    6   25 1   
    12    8   21 1   
    13    8   28 1   
    14    9   10 1   
    15    9   14 1   
    16    9   26 1   
    17   10   12 1   
    18   10   29 1   
    19   10   30 1   
    20   11   21 1   
    21   11   22 1   
    22   11   32 1   
    23   11   33 1   
    24   12   13 1   
    25   12   15 1   
    26   12   31 1   
    27   13   14 1   
    28   13   16 1   
    29   13   35 1   
    30   15   38 1   
    31   16   17 1   
    32   16   36 1   
    33   16   37 1   
    34   17   18 1   
    35   18   19 1   
    36   18   20 1   
    37   18   24 1   
    38   22   23 2   
    39   22   34 1   
    40   23   39 1   
    41   23   40 1   
@<TRIPOS>SUBSTRUCTURE
     1 47C         1 TEMP              0 ****  ****    0 ROOT
