@<TRIPOS>MOLECULE
47C
   40    39     1     0     0
SMALL
bcc


@<TRIPOS>ATOM
      1 N1         -1.2880   -0.3250    0.1320 n         1 47C     -0.254000
      2 C2          0.1610   -0.1000    0.1570 c2        1 47C      0.336000
      3 N3          0.8820   -0.0960    1.4330 n2        1 47C     -0.285000
      4 C4          0.1780   -0.3070    2.6520 c1        1 47C      0.124000
      5 C5         -1.2690   -0.5690    2.6280 c1        1 47C     -0.367000
      6 C6         -1.9890   -0.5890    1.3430 c2        1 47C      0.100000
      7 O2          0.7610    0.0790   -0.8760 o         1 47C     -0.383000
      8 N4          0.8900   -0.3480    3.8900 n3        1 47C     -0.111000
      9 C1'        -1.9750   -0.3610   -1.1010 c3        1 47C      0.143000
     10 C2'        -2.2990    0.8550   -1.4730 c3        1 47C     -0.209000
     11 CM2         2.6640    0.0880    5.2720 c3        1 47C      0.012000
     12 C3'        -2.2090    0.8390   -3.0090 c3        1 47C      0.042000
     13 C4'        -1.4770   -0.5080   -3.3790 c3        1 47C     -0.062000
     14 O4'        -1.0050   -0.9510   -2.2660 os        1 47C     -0.296000
     15 O3'        -3.4330    0.8630   -3.5450 oh        1 47C     -0.395000
     16 C5'        -0.3400   -0.2400   -4.3700 c3        1 47C      0.075000
     17 O5'         0.0810   -1.4640   -4.9480 os        1 47C     -0.714000
     18 P           0.8950   -1.4170   -6.3180 p5        1 47C      1.563500
     19 OP1        -0.0140   -0.9400   -7.4280 o         1 47C     -0.928833
     20 OP2         1.4090   -2.7990   -6.6470 o         1 47C     -0.928833
     21 O           1.9790    0.4700    4.0850 os        1 47C     -0.218000
     22 CD          3.1470    1.3370    6.0060 c2        1 47C     -0.142000
     23 CE          4.2040    1.2620    6.8430 c1        1 47C     -0.256000
     24 OP3         2.0630   -0.4640   -6.1790 o         1 47C     -0.928833
     25 H6         -2.9280   -0.8320    1.3170 h4        1 47C      0.228000
     26 H1'        -2.7770   -0.9120   -1.0220 h2        1 47C      0.129000
     27 H5         -1.7640   -0.6620    3.4660 ha        1 47C      0.163000
     28 H4          0.5890   -0.8790    4.5720 hn        1 47C      0.193000
     29 H2'1       -3.2090    1.0660   -1.1880 hc        1 47C      0.093500
     30 H2'2       -1.6660    1.5040   -1.1030 hc        1 47C      0.093500
     31 H3'        -1.6870    1.6040   -3.3250 h1        1 47C      0.140000
     32 HM21        3.4340   -0.4740    5.0400 h1        1 47C      0.096000
     33 HM22        2.0540   -0.4170    5.8520 h1        1 47C      0.096000
     34 HD          2.6930    2.1880    5.8700 ha        1 47C      0.167000
     35 H4'        -2.1150   -1.1490   -3.7560 h1        1 47C      0.114000
     36 H5'1       -0.6560    0.3600   -5.0740 h1        1 47C      0.035500
     37 H5'2        0.4090    0.1730   -3.9020 h1        1 47C      0.035500
     38 H55        -3.5670    1.6460   -3.9410 ho        1 47C      0.300000
     39 HE5         4.6580    0.4110    6.9790 DU        1 47C      0.094000
     40 HE6         4.5140    2.0630    7.3140 ha        1 47C      0.106000
@<TRIPOS>BOND
     1    1    2 1   
     2    1    6 1   
     3    1    9 1   
     4    2    3 1   
     5    2    7 1   
     6    3    4 1   
     7    4    8 1   
     8    5    6 1   
     9    5   27 1   
    10    6   25 1   
    11    8   21 1   
    12    8   28 1   
    13    9   10 1   
    14    9   14 1   
    15    9   26 1   
    16   10   12 1   
    17   10   29 1   
    18   10   30 1   
    19   11   21 1   
    20   11   22 1   
    21   11   32 1   
    22   11   33 1   
    23   12   13 1   
    24   12   15 1   
    25   12   31 1   
    26   13   14 1   
    27   13   16 1   
    28   13   35 1   
    29   15   38 1   
    30   16   17 1   
    31   16   36 1   
    32   16   37 1   
    33   17   18 1   
    34   18   19 1   
    35   18   20 1   
    36   18   24 1   
    37   22   23 1   
    38   22   34 1   
    39   23   40 1   
@<TRIPOS>SUBSTRUCTURE
     1 47C         1 TEMP              0 ****  ****    0 ROOT
