@<TRIPOS>MOLECULE
47D
   32    34     1     0     0
SMALL
bcc


@<TRIPOS>ATOM
      1 C1         -0.3820   -0.4460    0.4030 ca        1 47D      0.098400
      2 N           0.8940   -1.0330    0.4630 nc        1 47D     -0.504100
      3 C2          1.6660   -0.3320    1.2680 cd        1 47D      0.386200
      4 C3          3.0940   -0.6350    1.6330 c3        1 47D      0.079700
      5 N2          3.8460   -1.3840    0.6630 n         1 47D     -0.491400
      6 C4          4.4320   -0.6750   -0.4210 c         1 47D      0.792500
      7 O1          4.3260    0.5730   -0.4660 o         1 47D     -0.663500
      8 N3          5.1430   -1.3970   -1.4090 n         1 47D     -0.318000
      9 C5          5.7410   -0.6550   -2.5060 c3        1 47D     -0.054000
     10 C6          7.0590   -1.2330   -3.1120 c         1 47D      0.915600
     11 O2          7.9610   -0.3880   -3.3380 o         1 47D     -0.816800
     12 O3          7.1250   -2.4620   -3.3900 o         1 47D     -0.816800
     13 C7          5.2050   -2.7700   -1.3370 cc        1 47D      0.089600
     14 C8          4.6350   -3.4740   -0.3160 cd        1 47D     -0.396200
     15 C9          3.9220   -2.8000    0.7580 c         1 47D      0.731700
     16 O4          3.4100   -3.3690    1.7430 o         1 47D     -0.664500
     17 S           0.9170    1.0750    1.9950 ss        1 47D     -0.057100
     18 C10        -0.5360    0.7350    1.2070 ca        1 47D     -0.091100
     19 C12        -1.7590    1.4060    1.2360 ca        1 47D     -0.084000
     20 C13        -2.8210    0.9270    0.4860 ca        1 47D     -0.127000
     21 C14        -2.6670   -0.2300   -0.3010 ca        1 47D      0.010400
     22 Cl         -3.9990   -0.7860   -1.2090 cl        1 47D     -0.107400
     23 C15        -1.4660   -0.9250   -0.3580 ca        1 47D     -0.067000
     24 H31         3.0740   -1.2330    2.5950 h1        1 47D      0.092700
     25 H32         3.6160    0.3520    1.8100 h1        1 47D      0.092700
     26 H51         4.9860   -0.5990   -3.3400 h1        1 47D      0.059200
     27 H52         5.9580    0.3900   -2.1470 h1        1 47D      0.059200
     28 H7          5.7730   -3.2620   -2.1680 h4        1 47D      0.239000
     29 H8          4.6930   -4.5660   -0.2610 ha        1 47D      0.165000
     30 H12        -1.8780    2.3120    1.8480 ha        1 47D      0.138000
     31 H13        -3.7880    1.4520    0.5020 ha        1 47D      0.142000
     32 H15        -1.3490   -1.8270   -0.9780 ha        1 47D      0.168000
@<TRIPOS>BOND
     1    1    2 1   
     2    1   18 ar  
     3    1   23 ar  
     4    2    3 2   
     5    3    4 1   
     6    3   17 1   
     7    4    5 1   
     8    4   24 1   
     9    4   25 1   
    10    5    6 1   
    11    5   15 1   
    12    6    7 2   
    13    6    8 1   
    14    8    9 1   
    15    8   13 1   
    16    9   10 1   
    17    9   26 1   
    18    9   27 1   
    19   10   11 1   
    20   10   12 1   
    21   13   14 2   
    22   13   28 1   
    23   14   15 1   
    24   14   29 1   
    25   15   16 2   
    26   17   18 1   
    27   18   19 ar  
    28   19   20 ar  
    29   19   30 1   
    30   20   21 ar  
    31   20   31 1   
    32   21   22 1   
    33   21   23 ar  
    34   23   32 1   
@<TRIPOS>SUBSTRUCTURE
     1 47D         1 TEMP              0 ****  ****    0 ROOT
