@<TRIPOS>MOLECULE
47D
   32    29     1     0     0
SMALL
bcc


@<TRIPOS>ATOM
      1 C1         -3.3390    0.6720   -0.9290 c1        1 47D     -0.040000
      2 N          -1.7340    0.6860   -1.0590 n2        1 47D     -0.120000
      3 C2         -1.0950    0.5590    0.0800 c1        1 47D     -0.213000
      4 C3          0.3090    1.1710    0.2460 c3        1 47D      0.031000
      5 N2          1.2580    0.1320    0.4650 n         1 47D     -0.342000
      6 C4          2.3420   -0.0810   -0.5010 c2        1 47D      0.374000
      7 O1          2.3480    0.5310   -1.5460 o         1 47D     -0.377000
      8 N3          3.4700   -0.9530   -0.1570 n         1 47D     -0.211000
      9 C5          4.5920   -1.0750   -1.0630 c3        1 47D     -0.121000
     10 C6          5.6520   -0.0450   -0.6990 c2        1 47D      0.335000
     11 O2          6.3430   -0.1930    0.3490 o         1 47D     -0.549000
     12 O3          5.8960    0.9170   -1.4880 o         1 47D     -0.549000
     13 C7          3.4310   -1.7260    1.0310 c2        1 47D      0.087000
     14 C8          2.3240   -1.5490    1.9850 c1        1 47D     -0.382000
     15 C9          1.2380   -0.6020    1.6800 c1        1 47D      0.359000
     16 O4          0.3220   -0.4530    2.4660 o         1 47D     -0.383000
     17 S          -2.0130    0.4260    1.2840 s         1 47D      0.491000
     18 C10        -3.6010    0.5040    0.5870 c1        1 47D     -0.343000
     19 C12        -4.8730    0.4570    1.0500 c1        1 47D     -0.076000
     20 C13        -5.9720    0.5630    0.1380 c1        1 47D     -0.131000
     21 C14        -5.7240    0.7220   -1.2940 c1        1 47D     -0.066000
     22 CL         -7.2600    0.6830   -2.1290 cl        1 47D     -0.035000
     23 C15        -4.3870    0.7720   -1.7890 c2        1 47D     -0.076000
     24 H31         0.3110    1.7790    1.0110 h1        1 47D      0.143500
     25 H32         0.5470    1.6640   -0.5610 h1        1 47D      0.143500
     26 H51         4.2890   -0.9220   -1.9820 h1        1 47D      0.098500
     27 H52         4.9760   -1.9800   -0.9910 h1        1 47D      0.098500
     28 H7          4.1750   -2.3210    1.2500 h4        1 47D      0.243000
     29 H8          2.3310   -2.0260    2.8360 ha        1 47D      0.167000
     30 H12        -5.0410    0.3380    2.0100 ha        1 47D      0.141000
     31 H13        -6.8870    0.4680    0.4660 ha        1 47D      0.142000
     32 H15        -4.2250    0.8790   -2.7460 ha        1 47D      0.160000
@<TRIPOS>BOND
     1    1    2 1   
     2    1   23 1   
     3    2    3 1   
     4    3    4 1   
     5    4    5 1   
     6    4   24 1   
     7    4   25 1   
     8    5    6 1   
     9    5   15 1   
    10    6    7 1   
    11    6    8 1   
    12    8    9 1   
    13    8   13 1   
    14    9   10 1   
    15    9   26 1   
    16    9   27 1   
    17   10   11 1   
    18   10   12 1   
    19   13   14 1   
    20   13   28 1   
    21   14   29 1   
    22   15   16 1   
    23   17   18 1   
    24   18   19 1   
    25   19   30 1   
    26   20   21 1   
    27   20   31 1   
    28   21   23 1   
    29   23   32 1   
@<TRIPOS>SUBSTRUCTURE
     1 47D         1 TEMP              0 ****  ****    0 ROOT
