@<TRIPOS>MOLECULE
47D
   32    34     1     0     0
SMALL
bcc


@<TRIPOS>ATOM
      1 C1         -0.3740   -0.4160    0.4160 ca        1 47D      0.098400
      2 N           0.8980   -1.0120    0.4730 nc        1 47D     -0.504100
      3 C2          1.6810   -0.3090    1.2670 cd        1 47D      0.386200
      4 C3          3.1080   -0.6190    1.6260 c3        1 47D      0.079700
      5 N2          3.8480   -1.3850    0.6590 n         1 47D     -0.491400
      6 C4          4.4330   -0.6920   -0.4360 c         1 47D      0.792500
      7 O1          4.3360    0.5560   -0.4940 o         1 47D     -0.663500
      8 N3          5.1310   -1.4310   -1.4210 n         1 47D     -0.318000
      9 C5          5.7270   -0.7060   -2.5310 c3        1 47D     -0.054000
     10 C6          7.0370   -1.3020   -3.1390 c         1 47D      0.915600
     11 O2          7.9440   -0.4660   -3.3800 o         1 47D     -0.816800
     12 O3          7.0910   -2.5350   -3.4040 o         1 47D     -0.816800
     13 C7          5.1820   -2.8040   -1.3350 cc        1 47D      0.089600
     14 C8          4.6140   -3.4910   -0.3010 cd        1 47D     -0.396200
     15 C9          3.9140   -2.8010    0.7690 c         1 47D      0.731700
     16 O4          3.4040   -3.3540    1.7650 o         1 47D     -0.664500
     17 S           0.9470    1.1090    1.9860 ss        1 47D     -0.057100
     18 C10        -0.5140    0.7730    1.2100 ca        1 47D     -0.091100
     19 C12        -1.7320    1.4530    1.2410 ca        1 47D     -0.084000
     20 C13        -2.8020    0.9760    0.5020 ca        1 47D     -0.127000
     21 C14        -2.6620   -0.1900   -0.2760 ca        1 47D      0.010400
     22 CL         -4.0030   -0.7440   -1.1700 cl        1 47D     -0.107400
     23 C15        -1.4660   -0.8930   -0.3340 ca        1 47D     -0.067000
     24 H31         3.0910   -1.2060    2.5940 h1        1 47D      0.092700
     25 H32         3.6390    0.3660    1.7880 h1        1 47D      0.092700
     26 H51         4.9670   -0.6540   -3.3600 h1        1 47D      0.059200
     27 H52         5.9550    0.3410   -2.1840 h1        1 47D      0.059200
     28 H7          5.7410   -3.3100   -2.1630 h4        1 47D      0.239000
     29 H8          4.6630   -4.5830   -0.2350 ha        1 47D      0.165000
     30 H12        -1.8400    2.3650    1.8460 ha        1 47D      0.138000
     31 H13        -3.7650    1.5080    0.5200 ha        1 47D      0.142000
     32 H15        -1.3590   -1.8020   -0.9460 ha        1 47D      0.168000
@<TRIPOS>BOND
     1    1    2 1   
     2    1   18 ar  
     3    1   23 ar  
     4    2    3 2   
     5    3    4 1   
     6    3   17 1   
     7    4    5 1   
     8    4   24 1   
     9    4   25 1   
    10    5    6 1   
    11    5   15 1   
    12    6    7 2   
    13    6    8 1   
    14    8    9 1   
    15    8   13 1   
    16    9   10 1   
    17    9   26 1   
    18    9   27 1   
    19   10   11 1   
    20   10   12 1   
    21   13   14 2   
    22   13   28 1   
    23   14   15 1   
    24   14   29 1   
    25   15   16 2   
    26   17   18 1   
    27   18   19 ar  
    28   19   20 ar  
    29   19   30 1   
    30   20   21 ar  
    31   20   31 1   
    32   21   22 1   
    33   21   23 ar  
    34   23   32 1   
@<TRIPOS>SUBSTRUCTURE
     1 47D         1 TEMP              0 ****  ****    0 ROOT
