@<TRIPOS>MOLECULE
47D
   32    34     1     0     0
SMALL
bcc


@<TRIPOS>ATOM
      1 C1         -0.3830   -0.4590    0.4000 ca        1 47D      0.098400
      2 N           0.8980   -1.0340    0.4630 nc        1 47D     -0.504100
      3 C2          1.6640   -0.3200    1.2640 cd        1 47D      0.386200
      4 C3          3.0950   -0.6080    1.6310 c3        1 47D      0.079700
      5 N2          3.8520   -1.3620    0.6680 n         1 47D     -0.491400
      6 C4          4.4310   -0.6600   -0.4250 c         1 47D      0.792500
      7 O1          4.3150    0.5860   -0.4830 o         1 47D     -0.663500
      8 N3          5.1460   -1.3880   -1.4070 n         1 47D     -0.318000
      9 C5          5.7360   -0.6540   -2.5130 c3        1 47D     -0.054000
     10 C6          7.0580   -1.2290   -3.1150 c         1 47D      0.915600
     11 O2          7.9530   -0.3800   -3.3520 o         1 47D     -0.816800
     12 O3          7.1310   -2.4610   -3.3800 o         1 47D     -0.816800
     13 C7          5.2180   -2.7600   -1.3200 cc        1 47D      0.089600
     14 C8          4.6550   -3.4560   -0.2890 cd        1 47D     -0.396200
     15 C9          3.9390   -2.7770    0.7780 c         1 47D      0.731700
     16 O4          3.4320   -3.3380    1.7700 o         1 47D     -0.664500
     17 S           0.9030    1.0840    1.9810 ss        1 47D     -0.057100
     18 C10        -0.5470    0.7260    1.1960 ca        1 47D     -0.091100
     19 C12        -1.7760    1.3860    1.2210 ca        1 47D     -0.084000
     20 C13        -2.8340    0.8930    0.4750 ca        1 47D     -0.127000
     21 C14        -2.6700   -0.2680   -0.3050 ca        1 47D      0.010400
     22 CL         -3.9970   -0.8420   -1.2080 cl        1 47D     -0.107400
     23 C15        -1.4630   -0.9520   -0.3570 ca        1 47D     -0.067000
     24 H31         3.0810   -1.1950    2.5980 h1        1 47D      0.092700
     25 H32         3.6090    0.3860    1.7950 h1        1 47D      0.092700
     26 H51         4.9790   -0.6130   -3.3450 h1        1 47D      0.059200
     27 H52         5.9460    0.3960   -2.1650 h1        1 47D      0.059200
     28 H7          5.7880   -3.2570   -2.1450 h4        1 47D      0.239000
     29 H8          4.7210   -4.5470   -0.2230 ha        1 47D      0.165000
     30 H12        -1.9030    2.2950    1.8270 ha        1 47D      0.138000
     31 H13        -3.8060    1.4090    0.4880 ha        1 47D      0.142000
     32 H15        -1.3380   -1.8580   -0.9710 ha        1 47D      0.168000
@<TRIPOS>BOND
     1    1    2 1   
     2    1   18 ar  
     3    1   23 ar  
     4    2    3 2   
     5    3    4 1   
     6    3   17 1   
     7    4    5 1   
     8    4   24 1   
     9    4   25 1   
    10    5    6 1   
    11    5   15 1   
    12    6    7 2   
    13    6    8 1   
    14    8    9 1   
    15    8   13 1   
    16    9   10 1   
    17    9   26 1   
    18    9   27 1   
    19   10   11 1   
    20   10   12 1   
    21   13   14 2   
    22   13   28 1   
    23   14   15 1   
    24   14   29 1   
    25   15   16 2   
    26   17   18 1   
    27   18   19 ar  
    28   19   20 ar  
    29   19   30 1   
    30   20   21 ar  
    31   20   31 1   
    32   21   22 1   
    33   21   23 ar  
    34   23   32 1   
@<TRIPOS>SUBSTRUCTURE
     1 47D         1 TEMP              0 ****  ****    0 ROOT
