@<TRIPOS>MOLECULE
47D
   32    34     1     0     0
SMALL
bcc


@<TRIPOS>ATOM
      1 C1          3.8590    4.8170   -3.8600 ca        1 47D      0.098400
      2 N           3.4300    3.6600   -3.1860 nc        1 47D     -0.504100
      3 C2          3.5640    2.6130   -3.9760 cd        1 47D      0.386200
      4 C3          3.2500    1.1820   -3.6330 c3        1 47D      0.079700
      5 N2          2.2520    0.9830   -2.6160 n         1 47D     -0.491400
      6 C4          0.8850    1.0310   -3.0040 c         1 47D      0.792500
      7 O1          0.5960    1.1860   -4.2140 o         1 47D     -0.663500
      8 N3         -0.1150    0.8780   -2.0140 n         1 47D     -0.318000
      9 C5         -1.5070    0.9240   -2.4290 c3        1 47D     -0.054000
     10 C6         -2.5160    0.0590   -1.6090 c         1 47D      0.915600
     11 O2         -3.3490   -0.5860   -2.2930 o         1 47D     -0.816800
     12 O3         -2.4830    0.1000   -0.3480 o         1 47D     -0.816800
     13 C7          0.2490    0.7450   -0.6940 cc        1 47D      0.089600
     14 C8          1.5550    0.7130   -0.2960 cd        1 47D     -0.396200
     15 C9          2.6390    0.8240   -1.2580 c         1 47D      0.731700
     16 O4          3.8530    0.7650   -0.9780 o         1 47D     -0.664500
     17 S           4.2000    2.9500   -5.5730 ss        1 47D     -0.057100
     18 C10         4.3250    4.5910   -5.1990 ca        1 47D     -0.091100
     19 C12         4.7820    5.6620   -5.9700 ca        1 47D     -0.084000
     20 C13         4.7820    6.9400   -5.4350 ca        1 47D     -0.127000
     21 C14         4.3240    7.1580   -4.1210 ca        1 47D      0.010400
     22 CL          4.3420    8.7450   -3.5010 cl        1 47D     -0.107400
     23 C15         3.8610    6.1190   -3.3240 ca        1 47D     -0.067000
     24 H31         2.9050    0.6730   -4.5820 h1        1 47D      0.092700
     25 H32         4.2120    0.7050   -3.2720 h1        1 47D      0.092700
     26 H51        -1.5640    0.5920   -3.5030 h1        1 47D      0.059200
     27 H52        -1.8530    1.9930   -2.3650 h1        1 47D      0.059200
     28 H7         -0.6050    0.6450    0.0250 h4        1 47D      0.239000
     29 H8          1.8370    0.6010    0.7560 ha        1 47D      0.165000
     30 H12         5.1370    5.4910   -6.9970 ha        1 47D      0.138000
     31 H13         5.1390    7.7890   -6.0360 ha        1 47D      0.142000
     32 H15         3.5000    6.2940   -2.2990 ha        1 47D      0.168000
@<TRIPOS>BOND
     1    1    2 1   
     2    1   18 ar  
     3    1   23 ar  
     4    2    3 2   
     5    3    4 1   
     6    3   17 1   
     7    4    5 1   
     8    4   24 1   
     9    4   25 1   
    10    5    6 1   
    11    5   15 1   
    12    6    7 2   
    13    6    8 1   
    14    8    9 1   
    15    8   13 1   
    16    9   10 1   
    17    9   26 1   
    18    9   27 1   
    19   10   11 1   
    20   10   12 1   
    21   13   14 2   
    22   13   28 1   
    23   14   15 1   
    24   14   29 1   
    25   15   16 2   
    26   17   18 1   
    27   18   19 ar  
    28   19   20 ar  
    29   19   30 1   
    30   20   21 ar  
    31   20   31 1   
    32   21   22 1   
    33   21   23 ar  
    34   23   32 1   
@<TRIPOS>SUBSTRUCTURE
     1 47D         1 TEMP              0 ****  ****    0 ROOT
