@<TRIPOS>MOLECULE
47N
   42    44     1     0     0
SMALL
bcc


@<TRIPOS>ATOM
      1 OAG        -1.3860    2.3650    1.5550 oh        1 47N     -0.586800
      2 CAB         0.0580    2.3330    1.5800 c3        1 47N      0.117100
      3 CAC         0.4850    2.3610    2.9480 c3        1 47N      0.092100
      4 CAD         0.6820    1.1440    3.5280 c3        1 47N      0.092100
      5 OAI         1.1000    1.3660    5.0150 oh        1 47N     -0.571800
      6 OAH         1.9370    2.8870    2.9370 os        1 47N     -0.419600
      7 CAF         2.7970    1.4180    2.8950 c3        1 47N      0.077400
      8 CAE         1.6630    0.3960    2.9040 c3        1 47N      0.078100
      9 OAJ         1.4130    0.0500    1.5140 os        1 47N     -0.424600
     10 CAA         0.5590    1.0330    0.7360 c3        1 47N      0.289900
     11 O3         -0.5210    0.3840    0.2730 os        1 47N     -0.458600
     12 C3         -0.2060   -0.2160   -1.0420 c3        1 47N      0.116100
     13 C4         -0.4840   -1.6610   -0.9890 c3        1 47N      0.119100
     14 O4         -1.8280   -1.8630   -0.4950 oh        1 47N     -0.590800
     15 C5         -0.3570   -2.3250   -2.3590 c3        1 47N      0.113100
     16 C6         -0.8190   -3.7180   -2.2550 c3        1 47N      0.142400
     17 O6         -0.5790   -4.3980   -3.4980 oh        1 47N     -0.597800
     18 O5         -1.1420   -1.6410   -3.3910 os        1 47N     -0.447600
     19 C1         -0.8750   -0.1940   -3.4490 c3        1 47N      0.314900
     20 O1         -1.7760    0.3950   -4.3330 oh        1 47N     -0.596800
     21 C2         -1.0060    0.4750   -2.0970 c3        1 47N      0.062100
     22 O2         -0.5530    1.8260   -2.2070 oh        1 47N     -0.606800
     23 HAG        -1.6650    3.2140    1.5410 ho        1 47N      0.422000
     24 HAB         0.4010    3.1550    1.1260 h1        1 47N      0.073700
     25 HAC        -0.1220    2.9570    3.5230 h1        1 47N      0.122700
     26 HAA         1.0870    1.3540   -0.0440 h2        1 47N      0.110700
     27 HAD        -0.1980    0.6220    3.5050 h1        1 47N      0.122700
     28 HAI         0.5180    0.9580    5.5520 ho        1 47N      0.410000
     29 HAE         1.9130   -0.4300    3.4590 h1        1 47N      0.105700
     30 HAF1        3.3690    1.3190    3.6980 h1        1 47N      0.066700
     31 HAF2        3.3400    1.3460    2.0540 h1        1 47N      0.066700
     32 H3          0.7150   -0.0890   -1.2240 h1        1 47N      0.083700
     33 H4          0.1660   -2.0950   -0.3560 h1        1 47N      0.060700
     34 H2         -1.9520    0.4760   -1.8330 h1        1 47N      0.069700
     35 HA         -1.7970   -2.3300    0.2710 ho        1 47N      0.424000
     36 H5          0.5770   -2.3240   -2.6230 h1        1 47N      0.060700
     37 H61C       -0.3310   -4.1710   -1.5330 h1        1 47N      0.068200
     38 H62C       -1.7930   -3.7310   -2.0550 h1        1 47N      0.068200
     39 H6         -0.7260   -5.2680   -3.3920 ho        1 47N      0.413000
     40 H1          0.0420   -0.0520   -3.7870 h2        1 47N      0.085700
     41 HB         -1.4700    0.3210   -5.1590 ho        1 47N      0.431000
     42 HC         -1.2360    2.3520   -2.4930 ho        1 47N      0.424000
@<TRIPOS>BOND
     1    1    2 1   
     2    1   23 1   
     3    2    3 1   
     4    2   10 1   
     5    2   24 1   
     6    3    4 1   
     7    3    6 1   
     8    3   25 1   
     9    4    5 1   
    10    4    8 1   
    11    4   27 1   
    12    5   28 1   
    13    6    7 1   
    14    7    8 1   
    15    7   30 1   
    16    7   31 1   
    17    8    9 1   
    18    8   29 1   
    19    9   10 1   
    20   10   11 1   
    21   10   26 1   
    22   11   12 1   
    23   12   13 1   
    24   12   21 1   
    25   12   32 1   
    26   13   14 1   
    27   13   15 1   
    28   13   33 1   
    29   14   35 1   
    30   15   16 1   
    31   15   18 1   
    32   15   36 1   
    33   16   17 1   
    34   16   37 1   
    35   16   38 1   
    36   17   39 1   
    37   18   19 1   
    38   19   20 1   
    39   19   21 1   
    40   19   40 1   
    41   20   41 1   
    42   21   22 1   
    43   21   34 1   
    44   22   42 1   
@<TRIPOS>SUBSTRUCTURE
     1 47N         1 TEMP              0 ****  ****    0 ROOT
