@<TRIPOS>MOLECULE
47N
   42    44     1     0     0
SMALL
bcc


@<TRIPOS>ATOM
      1 OAG         0.5940    0.3730   -0.5220 oh        1 47N     -0.591800
      2 CAB         1.8890    0.0090   -0.0840 c3        1 47N      0.110100
      3 CAC         1.8240   -0.0390    1.4560 c3        1 47N      0.102100
      4 CAD         0.9870   -1.2890    1.8140 c3        1 47N      0.082100
      5 OAI         0.6490   -1.3810    3.1790 oh        1 47N     -0.581800
      6 OAH         3.1470   -0.2840    1.9560 os        1 47N     -0.410600
      7 CAF         3.3520   -1.7100    2.0190 c3        1 47N      0.085400
      8 CAE         2.0580   -2.3640    1.4960 c3        1 47N      0.131100
      9 OAJ         2.1100   -2.5350    0.0860 os        1 47N     -0.442600
     10 CAA         2.3560   -1.3490   -0.6720 c3        1 47N      0.300900
     11 O3          1.5660   -1.5790   -1.8260 os        1 47N     -0.438600
     12 C3          2.0640   -2.6030   -2.6920 c3        1 47N      0.121100
     13 C4          0.8190   -3.2140   -3.3640 c3        1 47N      0.119100
     14 O4         -0.0130   -2.2110   -3.9210 oh        1 47N     -0.591800
     15 C5          1.2420   -4.1670   -4.4890 c3        1 47N      0.113100
     16 C6          0.0310   -4.6350   -5.3050 c3        1 47N      0.142400
     17 O6          0.3990   -5.6460   -6.2160 oh        1 47N     -0.597800
     18 O5          2.1160   -3.5430   -5.4300 os        1 47N     -0.448600
     19 C1          3.2990   -3.0190   -4.8480 c3        1 47N      0.312900
     20 O1          3.9470   -2.4210   -5.9380 oh        1 47N     -0.596800
     21 C2          2.9840   -1.9800   -3.7500 c3        1 47N      0.064100
     22 O2          4.1810   -1.5910   -3.1000 oh        1 47N     -0.601800
     23 HAG         0.5970    0.3380   -1.4870 ho        1 47N      0.423000
     24 HAB         2.6340    0.7870   -0.4100 h1        1 47N      0.065700
     25 HAC         1.4760    0.9210    1.9000 h1        1 47N      0.102700
     26 HAA         3.4560   -1.3210   -0.9180 h2        1 47N      0.088700
     27 HAD         0.0780   -1.3800    1.1650 h1        1 47N      0.088700
     28 HAI         0.1060   -0.6080    3.3800 ho        1 47N      0.412000
     29 HAE         1.8480   -3.3750    1.9170 h1        1 47N      0.113700
     30 HAF1        3.5350   -1.9690    3.0910 h1        1 47N      0.068700
     31 HAF2        4.2400   -1.9490    1.3850 h1        1 47N      0.068700
     32 H3          2.6160   -3.3850   -2.1060 h1        1 47N      0.086700
     33 H4          0.2390   -3.7900   -2.5880 h1        1 47N      0.063700
     34 H2          2.4830   -1.0820   -4.2060 h1        1 47N      0.068700
     35 HA         -0.2350   -1.6050   -3.2010 ho        1 47N      0.421000
     36 H5          1.7740   -5.0490   -4.0330 h1        1 47N      0.060700
     37 H61C       -0.7220   -5.1080   -4.6220 h1        1 47N      0.067200
     38 H62C       -0.4240   -3.7590   -5.8380 h1        1 47N      0.067200
     39 H6          1.0490   -5.2620   -6.8190 ho        1 47N      0.413000
     40 H1          3.9780   -3.8320   -4.4670 h2        1 47N      0.085700
     41 HB          3.2770   -1.9900   -6.4880 ho        1 47N      0.429000
     42 HC          4.7970   -1.3200   -3.7950 ho        1 47N      0.422000
@<TRIPOS>BOND
     1    1    2 1   
     2    1   23 1   
     3    2    3 1   
     4    2   10 1   
     5    2   24 1   
     6    3    4 1   
     7    3    6 1   
     8    3   25 1   
     9    4    5 1   
    10    4    8 1   
    11    4   27 1   
    12    5   28 1   
    13    6    7 1   
    14    7    8 1   
    15    7   30 1   
    16    7   31 1   
    17    8    9 1   
    18    8   29 1   
    19    9   10 1   
    20   10   11 1   
    21   10   26 1   
    22   11   12 1   
    23   12   13 1   
    24   12   21 1   
    25   12   32 1   
    26   13   14 1   
    27   13   15 1   
    28   13   33 1   
    29   14   35 1   
    30   15   16 1   
    31   15   18 1   
    32   15   36 1   
    33   16   17 1   
    34   16   37 1   
    35   16   38 1   
    36   17   39 1   
    37   18   19 1   
    38   19   20 1   
    39   19   21 1   
    40   19   40 1   
    41   20   41 1   
    42   21   22 1   
    43   21   34 1   
    44   22   42 1   
@<TRIPOS>SUBSTRUCTURE
     1 47N         1 TEMP              0 ****  ****    0 ROOT
