@<TRIPOS>MOLECULE
47N
   42    44     1     0     0
SMALL
bcc


@<TRIPOS>ATOM
      1 OAG         0.5650    0.3510   -0.5080 oh        1 47N     -0.591800
      2 CAB         1.8680    0.0040   -0.0790 c3        1 47N      0.110100
      3 CAC         1.8130   -0.0500    1.4600 c3        1 47N      0.102100
      4 CAD         0.9950   -1.3120    1.8200 c3        1 47N      0.082100
      5 OAI         0.6670   -1.4130    3.1860 oh        1 47N     -0.581800
      6 OAH         3.1420   -0.2790    1.9510 os        1 47N     -0.410600
      7 CAF         3.3670   -1.7020    2.0080 c3        1 47N      0.085400
      8 CAE         2.0780   -2.3720    1.4910 c3        1 47N      0.131100
      9 OAJ         2.1230   -2.5380    0.0800 os        1 47N     -0.442600
     10 CAA         2.3500   -1.3470   -0.6750 c3        1 47N      0.300900
     11 O3          1.5560   -1.5830   -1.8250 os        1 47N     -0.438600
     12 C3          2.0620   -2.5970   -2.6970 c3        1 47N      0.121100
     13 C4          0.8210   -3.2220   -3.3640 c3        1 47N      0.119100
     14 O4         -0.0260   -2.2290   -3.9130 oh        1 47N     -0.591800
     15 C5          1.2500   -4.1660   -4.4950 c3        1 47N      0.113100
     16 C6          0.0420   -4.6470   -5.3060 c3        1 47N      0.142400
     17 O6          0.4180   -5.6510   -6.2230 oh        1 47N     -0.597800
     18 O5          2.1110   -3.5270   -5.4390 os        1 47N     -0.448600
     19 C1          3.2900   -2.9890   -4.8620 c3        1 47N      0.312900
     20 O1          3.9230   -2.3790   -5.9540 oh        1 47N     -0.596800
     21 C2          2.9680   -1.9590   -3.7590 c3        1 47N      0.064100
     22 O2          4.1630   -1.5550   -3.1140 oh        1 47N     -0.601800
     23 HAG         0.5620    0.3200   -1.4740 ho        1 47N      0.423000
     24 HAB         2.6000    0.7930   -0.4080 h1        1 47N      0.065700
     25 HAC         1.4560    0.9040    1.9100 h1        1 47N      0.102700
     26 HAA         3.4480   -1.3020   -0.9270 h2        1 47N      0.088700
     27 HAD         0.0830   -1.4130    1.1760 h1        1 47N      0.088700
     28 HAI         0.1150   -0.6480    3.3930 ho        1 47N      0.412000
     29 HAE         1.8840   -3.3870    1.9110 h1        1 47N      0.113700
     30 HAF1        4.2540   -1.9280    1.3680 h1        1 47N      0.068700
     31 HAF2        3.5590   -1.9620    3.0780 h1        1 47N      0.068700
     32 H3          2.6280   -3.3740   -2.1180 h1        1 47N      0.086700
     33 H4          0.2540   -3.8090   -2.5870 h1        1 47N      0.063700
     34 H2          2.4520   -1.0650   -4.2090 h1        1 47N      0.068700
     35 HA         -0.2530   -1.6280   -3.1900 ho        1 47N      0.421000
     36 H5          1.7970   -5.0420   -4.0450 h1        1 47N      0.060700
     37 H61C       -0.4290   -3.7760   -5.8320 h1        1 47N      0.067200
     38 H62C       -0.7010   -5.1330   -4.6200 h1        1 47N      0.067200
     39 H6          1.0590   -5.2550   -6.8280 ho        1 47N      0.413000
     40 H1          3.9820   -3.7940   -4.4880 h2        1 47N      0.085700
     41 HB          3.2440   -1.9550   -6.4980 ho        1 47N      0.429000
     42 HC          4.7710   -1.2730   -3.8120 ho        1 47N      0.422000
@<TRIPOS>BOND
     1    1    2 1   
     2    1   23 1   
     3    2    3 1   
     4    2   10 1   
     5    2   24 1   
     6    3    4 1   
     7    3    6 1   
     8    3   25 1   
     9    4    5 1   
    10    4    8 1   
    11    4   27 1   
    12    5   28 1   
    13    6    7 1   
    14    7    8 1   
    15    7   30 1   
    16    7   31 1   
    17    8    9 1   
    18    8   29 1   
    19    9   10 1   
    20   10   11 1   
    21   10   26 1   
    22   11   12 1   
    23   12   13 1   
    24   12   21 1   
    25   12   32 1   
    26   13   14 1   
    27   13   15 1   
    28   13   33 1   
    29   14   35 1   
    30   15   16 1   
    31   15   18 1   
    32   15   36 1   
    33   16   17 1   
    34   16   37 1   
    35   16   38 1   
    36   17   39 1   
    37   18   19 1   
    38   19   20 1   
    39   19   21 1   
    40   19   40 1   
    41   20   41 1   
    42   21   22 1   
    43   21   34 1   
    44   22   42 1   
@<TRIPOS>SUBSTRUCTURE
     1 47N         1 TEMP              0 ****  ****    0 ROOT
