@<TRIPOS>MOLECULE
47N
   42    44     1     0     0
SMALL
bcc


@<TRIPOS>ATOM
      1 OAG        -2.2510    1.1270    1.9670 oh        1 47N     -0.594800
      2 CAB        -2.4630   -0.1020    1.3000 c3        1 47N      0.111100
      3 CAC        -3.8710   -0.0210    0.6720 c3        1 47N      0.143100
      4 CAD        -3.7710    1.0400   -0.4490 c3        1 47N      0.081100
      5 OAI        -5.0640    1.3830   -0.8890 oh        1 47N     -0.574800
      6 OAH        -4.1450   -1.2710    0.0220 os        1 47N     -0.410600
      7 CAF        -3.6570   -1.2020   -1.3320 c3        1 47N      0.088400
      8 CAE        -2.9970    0.1820   -1.4880 c3        1 47N      0.091100
      9 OAJ        -1.6300    0.1430   -1.0980 os        1 47N     -0.445600
     10 CAA        -1.3950   -0.3890    0.2100 c3        1 47N      0.291900
     11 O3         -0.2270    0.3080    0.6010 os        1 47N     -0.406600
     12 C3          0.9520   -0.0660   -0.1070 c3        1 47N      0.165100
     13 C4          1.8860    1.1600   -0.0690 c3        1 47N      0.115100
     14 O4          2.0740    1.5040    1.2930 oh        1 47N     -0.575800
     15 C5          3.2110    0.7860   -0.7510 c3        1 47N      0.071100
     16 C6          4.2320    1.9260   -0.6830 c3        1 47N      0.134400
     17 O6          5.3420    1.6630   -1.5110 oh        1 47N     -0.591800
     18 O5          3.8370   -0.3230   -0.1040 os        1 47N     -0.450600
     19 C1          3.0320   -1.4940   -0.0690 c3        1 47N      0.311900
     20 O1          3.8060   -2.3730    0.6990 oh        1 47N     -0.594800
     21 C2          1.6520   -1.2470    0.5810 c3        1 47N      0.062100
     22 O2          0.8400   -2.3940    0.3990 oh        1 47N     -0.600800
     23 HAG        -1.3300    1.1430    2.2600 ho        1 47N      0.431000
     24 HAB        -2.4220   -0.9490    2.0390 h1        1 47N      0.063700
     25 HAC        -4.6780    0.1510    1.4190 h1        1 47N      0.115700
     26 HAA        -1.2170   -1.4970    0.1100 h2        1 47N      0.087700
     27 HAD        -3.1870    1.9370   -0.1200 h1        1 47N      0.090700
     28 HAI        -4.9650    2.1600   -1.4530 ho        1 47N      0.405000
     29 HAE        -3.0020    0.5770   -2.5300 h1        1 47N      0.096700
     30 HAF1       -2.9350   -2.0420   -1.4720 h1        1 47N      0.066200
     31 HAF2       -4.5420   -1.3100   -2.0070 h1        1 47N      0.066200
     32 H3          0.7090   -0.3240   -1.1730 h1        1 47N      0.081700
     33 H4          1.4010    2.0110   -0.6220 h1        1 47N      0.065700
     34 H2          1.7750   -1.0250    1.6770 h1        1 47N      0.077700
     35 HA          2.5370    2.3510    1.3020 ho        1 47N      0.404000
     36 H5          3.0120    0.5140   -1.8260 h1        1 47N      0.065700
     37 H61C        3.7760    2.8680   -1.0890 h1        1 47N      0.056700
     38 H62C        4.5620    2.0790    0.3790 h1        1 47N      0.056700
     39 H6          5.7350    0.8350   -1.2030 ho        1 47N      0.418000
     40 H1          2.9300   -1.9560   -1.0900 h2        1 47N      0.085700
     41 HB          4.1610   -1.8810    1.4540 ho        1 47N      0.427000
     42 HC          1.3270   -3.1390    0.7780 ho        1 47N      0.420000
@<TRIPOS>BOND
     1    1    2 1   
     2    1   23 1   
     3    2    3 1   
     4    2   10 1   
     5    2   24 1   
     6    3    4 1   
     7    3    6 1   
     8    3   25 1   
     9    4    5 1   
    10    4    8 1   
    11    4   27 1   
    12    5   28 1   
    13    6    7 1   
    14    7    8 1   
    15    7   30 1   
    16    7   31 1   
    17    8    9 1   
    18    8   29 1   
    19    9   10 1   
    20   10   11 1   
    21   10   26 1   
    22   11   12 1   
    23   12   13 1   
    24   12   21 1   
    25   12   32 1   
    26   13   14 1   
    27   13   15 1   
    28   13   33 1   
    29   14   35 1   
    30   15   16 1   
    31   15   18 1   
    32   15   36 1   
    33   16   17 1   
    34   16   37 1   
    35   16   38 1   
    36   17   39 1   
    37   18   19 1   
    38   19   20 1   
    39   19   21 1   
    40   19   40 1   
    41   20   41 1   
    42   21   22 1   
    43   21   34 1   
    44   22   42 1   
@<TRIPOS>SUBSTRUCTURE
     1 47N         1 TEMP              0 ****  ****    0 ROOT
