@<TRIPOS>MOLECULE
47W
   56    59     1     0     0
SMALL
bcc


@<TRIPOS>ATOM
      1 C1          0.3530    0.2970    0.1150 c3        1 47W      0.115700
      2 O2          1.7720    0.4850    0.2130 os        1 47W     -0.409900
      3 C3          2.3110    0.4210    1.4840 ca        1 47W      0.193100
      4 C4          1.5560    0.5200    2.6450 ca        1 47W     -0.238000
      5 C5          2.2190    0.4850    3.8950 ca        1 47W      0.254100
      6 O6          1.3990    0.5820    4.9680 os        1 47W     -0.293900
      7 C7          2.0150    0.4930    6.2880 c3        1 47W      0.239500
      8 C8          0.9560    0.5820    7.2410 c1        1 47W     -0.219100
      9 C9          0.0810    0.6510    8.0580 cg        1 47W      0.021000
     10 C10        -0.9300    0.7290    9.0320 ca        1 47W     -0.033000
     11 C11        -1.4740   -0.4750    9.5720 ca        1 47W     -0.089000
     12 C12        -2.4610   -0.4270   10.5240 ca        1 47W     -0.118000
     13 C13        -2.9580    0.8220   10.9860 ca        1 47W      0.009000
     14 C14        -3.9790    0.9290   11.9690 ca        1 47W     -0.233300
     15 C15        -4.4020    2.1890   12.3600 ca        1 47W      0.407200
     16 N16        -3.8910    3.3550   11.8510 nb        1 47W     -0.650000
     17 C17        -2.9400    3.2650   10.9370 ca        1 47W      0.429200
     18 C18        -2.4170    2.0200   10.4490 ca        1 47W     -0.178300
     19 C19        -1.3990    1.9570    9.4700 ca        1 47W     -0.045000
     20 C20         3.6260    0.3720    3.9540 ca        1 47W     -0.240000
     21 C21         4.3550    0.2790    2.7830 ca        1 47W     -0.012000
     22 C22         3.7230    0.2910    1.5280 ca        1 47W     -0.315300
     23 C23         4.4820    0.0350    0.2930 c3        1 47W      0.235100
     24 N24         4.4370    1.2530   -0.6400 n4        1 47W     -0.711400
     25 C26         4.9630    0.9150   -1.9910 c3        1 47W      0.078800
     26 C27         5.0080    2.1210   -2.9390 c3        1 47W      0.077800
     27 N28         5.7400    3.2880   -2.3620 n4        1 47W     -0.769000
     28 C31         5.2250    3.6220   -0.9990 c3        1 47W      0.077800
     29 C32         5.1910    2.4030   -0.0690 c3        1 47W      0.078800
     30 HN24        3.4370    1.5160   -0.7190 hn        1 47W      0.478800
     31 HN28        5.6220    4.1060   -2.9820 hn        1 47W      0.481800
     32 HN2A        6.7460    3.0740   -2.3080 hn        1 47W      0.481800
     33 H1          0.1790    0.2090   -0.9870 h1        1 47W      0.071033
     34 H1A        -0.1750    1.1870    0.5360 h1        1 47W      0.071033
     35 H1B         0.0440   -0.6380    0.6430 h1        1 47W      0.071033
     36 H4          0.4590    0.6110    2.6300 ha        1 47W      0.189000
     37 H7          2.5520   -0.4930    6.3610 h1        1 47W      0.069700
     38 H7A         2.7370    1.3500    6.3960 h1        1 47W      0.069700
     39 H11        -1.0860   -1.4400    9.2140 ha        1 47W      0.143000
     40 H12        -2.8820   -1.3530   10.9450 ha        1 47W      0.151000
     41 H14        -4.4160    0.0210   12.4050 ha        1 47W      0.155000
     42 H15        -5.1920    2.3250   13.1210 h4        1 47W      0.037100
     43 H17        -2.5390    4.2160   10.5400 h4        1 47W      0.025100
     44 H19        -0.9890    2.8950    9.0650 ha        1 47W      0.142000
     45 H20         4.1440    0.3410    4.9260 ha        1 47W      0.174000
     46 H21         5.4510    0.1640    2.8380 ha        1 47W      0.144000
     47 H23         4.0050   -0.8020   -0.2980 hx        1 47W      0.108700
     48 H23A        5.5640   -0.1990    0.4960 hx        1 47W      0.108700
     49 H26         4.2920    0.1320   -2.4620 hx        1 47W      0.144450
     50 H26A        5.9900    0.4600   -1.8710 hx        1 47W      0.144450
     51 H27         3.9620    2.4590   -3.2040 hx        1 47W      0.146950
     52 H27A        5.5250    1.8010   -3.8960 hx        1 47W      0.146950
     53 H31         4.1920    4.0690   -1.1130 hx        1 47W      0.146950
     54 H31A        5.8970    4.4070   -0.5350 hx        1 47W      0.146950
     55 H32         6.2380    2.0590    0.1780 hx        1 47W      0.144450
     56 H32A        4.6940    2.7090    0.9050 hx        1 47W      0.144450
@<TRIPOS>BOND
     1    1    2 1   
     2    1   33 1   
     3    1   34 1   
     4    1   35 1   
     5    2    3 1   
     6    3    4 ar  
     7    3   22 ar  
     8    4    5 ar  
     9    4   36 1   
    10    5    6 1   
    11    5   20 ar  
    12    6    7 1   
    13    7    8 1   
    14    7   37 1   
    15    7   38 1   
    16    8    9 3   
    17    9   10 1   
    18   10   11 ar  
    19   10   19 ar  
    20   11   12 ar  
    21   11   39 1   
    22   12   13 ar  
    23   12   40 1   
    24   13   14 ar  
    25   13   18 ar  
    26   14   15 ar  
    27   14   41 1   
    28   15   16 ar  
    29   15   42 1   
    30   16   17 ar  
    31   17   18 ar  
    32   17   43 1   
    33   18   19 ar  
    34   19   44 1   
    35   20   21 ar  
    36   20   45 1   
    37   21   22 ar  
    38   21   46 1   
    39   22   23 1   
    40   23   24 1   
    41   23   47 1   
    42   23   48 1   
    43   24   25 1   
    44   24   29 1   
    45   24   30 1   
    46   25   26 1   
    47   25   49 1   
    48   25   50 1   
    49   26   27 1   
    50   26   51 1   
    51   26   52 1   
    52   27   28 1   
    53   27   31 1   
    54   27   32 1   
    55   28   29 1   
    56   28   53 1   
    57   28   54 1   
    58   29   55 1   
    59   29   56 1   
@<TRIPOS>SUBSTRUCTURE
     1 47W         1 TEMP              0 ****  ****    0 ROOT
