@<TRIPOS>MOLECULE
47W
   56    61     1     0     0
SMALL
bcc


@<TRIPOS>ATOM
      1 C1          0.0000    0.0000    0.0000 c3        1 47W      0.023000
      2 O2          1.4280    0.0000    0.0000 os        1 47W     -0.208000
      3 C3          2.0460    0.0000    1.2110 ca        1 47W      0.190000
      4 C4          1.2920    0.0020    2.3740 ca        1 47W     -0.252000
      5 C5          1.9250    0.0020    3.6080 ca        1 47W      0.190000
      6 O6          1.1880    0.0030    4.7500 os        1 47W     -0.157000
      7 C7          1.9070    0.0030    5.9850 c3        1 47W      0.194000
      8 C8          0.9540    0.0040    7.1060 c1        1 47W     -0.263000
      9 C9          0.1810    0.0180    7.9910 c1        1 47W     -0.054000
     10 C10        -0.3460    0.0210    9.4750 ca        1 47W      0.100000
     11 C11         0.4190   -0.0080   10.6960 ca        1 47W     -0.093000
     12 C12        -0.5390    0.0090   11.7890 ca        1 47W     -0.091000
     13 C13        -2.0320    0.0470   11.8270 ca        1 47W     -0.050000
     14 C14        -2.7290    0.0560   13.1040 c2        1 47W     -0.094000
     15 C15        -4.0840    0.0930   12.8060 c2        1 47W     -0.008000
     16 N16        -4.5330    0.1130   11.7470 n2        1 47W      0.002000
     17 C17        -4.0510    0.1100   10.4150 c2        1 47W     -0.019000
     18 C18        -2.3770    0.0660   10.4990 ca        1 47W     -0.155000
     19 C19        -1.5770    0.0540    9.3060 ca        1 47W     -0.067000
     20 C20         3.3110    0.0010    3.6750 ca        1 47W     -0.259000
     21 C21         4.0610    0.0010    2.5140 ca        1 47W      0.027000
     22 C22         3.4320   -0.0050    1.2840 ca        1 47W     -0.272000
     23 C23         4.2530   -0.0120    0.0200 c3        1 47W     -0.126000
     24 N24         4.3240    1.3490   -0.5260 nx        1 47W      0.718000
     25 C26         5.0200    1.3230   -1.8190 c3        1 47W     -0.469500
     26 C27         5.0940    2.7410   -2.3870 DU        1 47W     -0.125500
     27 N28         5.8280    3.6060   -1.4540 ny        1 47W      0.515000
     28 C31         5.1300    3.6320   -0.1610 DU        1 47W     -0.125500
     29 C32         5.0570    2.2130    0.4080 c3        1 47W     -0.469500
     30 HN24        3.3990    1.7100   -0.6560 hn        1 47W      0.078000
     31 HN28        6.8250    3.5710   -1.3720 hn        1 47W      0.099000
     32 HN2A        5.5900    4.4520   -1.9320 hn        1 47W      0.099000
     33 H1         -0.5110    0.7490    0.5920 h1        1 47W      0.059667
     34 H1A        -0.4300   -0.1710   -0.9800 h1        1 47W      0.059667
     35 H1B        -0.5050   -0.7480    0.5990 h1        1 47W      0.059667
     36 H4          0.2420    0.0210    2.6400 ha        1 47W      0.172000
     37 H7          2.1500   -1.0480    6.0780 h1        1 47W      0.069500
     38 H7A         2.7230    0.6780    6.2120 h1        1 47W      0.069500
     39 H11         1.4840    0.0360   10.8930 ha        1 47W      0.144000
     40 H12         0.0580   -0.0190   12.6930 ha        1 47W      0.085000
     41 H14        -2.1230   -0.0350   13.9970 ha        1 47W      0.146000
     42 H15        -4.6410   -0.0190   13.7280 h4        1 47W      0.096000
     43 H17        -4.3630   -0.0530    9.3900 h4        1 47W      0.153000
     44 H19        -2.2990   -0.1100    8.5150 ha        1 47W      0.138000
     45 H20         3.7250   -0.2990    4.6300 ha        1 47W      0.149000
     46 H21         5.1010    0.2030    2.7400 ha        1 47W      0.109000
     47 H23         5.2840   -0.3430    0.0160 hx        1 47W      0.129000
     48 H23A        3.5520   -0.5930   -0.5680 hx        1 47W      0.129000
     49 H26         5.4720    2.2560   -2.1310 DU        1 47W      0.110000
     50 H26A        5.9610    0.8170   -1.6380 hx        1 47W      0.150000
     51 H27         5.6680    2.5850   -3.2930 hx        1 47W      0.209750
     52 H27A        4.1130    3.0750   -2.7050 hx        1 47W      0.209750
     53 H31         5.6070    4.0360    0.7240 hx        1 47W      0.209750
     54 H31A        4.1260    3.8460    0.1850 hx        1 47W      0.209750
     55 H32         5.9940    1.7430    0.6780 hx        1 47W      0.150000
     56 H32A        5.4420    3.2260    0.4110 DU        1 47W      0.110000
@<TRIPOS>BOND
     1    1    2 1   
     2    1   33 1   
     3    1   34 1   
     4    1   35 1   
     5    2    3 1   
     6    3    4 1   
     7    3   22 1   
     8    4    5 1   
     9    4   36 1   
    10    5    6 1   
    11    5   20 1   
    12    6    7 1   
    13    7    8 1   
    14    7   37 1   
    15    7   38 1   
    16    8    9 1   
    17    9   10 1   
    18   10   11 1   
    19   10   19 1   
    20   11   12 1   
    21   11   39 1   
    22   12   13 1   
    23   12   40 1   
    24   13   14 1   
    25   13   18 1   
    26   14   15 1   
    27   14   41 1   
    28   15   16 1   
    29   15   42 1   
    30   16   17 1   
    31   17   18 1   
    32   17   43 1   
    33   18   19 1   
    34   19   44 1   
    35   20   21 1   
    36   20   45 1   
    37   21   22 1   
    38   21   46 1   
    39   22   23 1   
    40   23   24 1   
    41   23   47 1   
    42   23   48 1   
    43   24   25 1   
    44   24   29 1   
    45   24   30 1   
    46   25   26 1   
    47   25   49 1   
    48   25   50 1   
    49   26   27 1   
    50   26   49 1   
    51   26   51 1   
    52   26   52 1   
    53   27   28 1   
    54   27   31 1   
    55   27   32 1   
    56   28   29 1   
    57   28   53 1   
    58   28   54 1   
    59   28   56 1   
    60   29   55 1   
    61   29   56 1   
@<TRIPOS>SUBSTRUCTURE
     1 47W         1 TEMP              0 ****  ****    0 ROOT
