@<TRIPOS>MOLECULE
47W
   56    59     1     0     0
SMALL
bcc


@<TRIPOS>ATOM
      1 C1          0.1930    1.4300    0.1990 c3        1 47W      0.115700
      2 O2          1.6100    1.2080    0.2520 os        1 47W     -0.409900
      3 C3          2.1100    0.7380    1.4500 ca        1 47W      0.193100
      4 C4          1.4100    0.7870    2.6480 ca        1 47W     -0.238000
      5 C5          2.0380    0.3140    3.8260 ca        1 47W      0.254100
      6 O6          1.2740    0.3950    4.9400 os        1 47W     -0.293900
      7 C7          1.8370   -0.1450    6.1750 c3        1 47W      0.239500
      8 C8          0.8300   -0.0080    7.1770 c1        1 47W     -0.220100
      9 C9         -0.0030    0.0940    8.0340 cg        1 47W      0.022000
     10 C10        -0.9680    0.2030    9.0520 ca        1 47W     -0.034000
     11 C11        -0.8800    1.2770    9.9860 ca        1 47W     -0.090000
     12 C12        -1.8070    1.4050   10.9890 ca        1 47W     -0.118000
     13 C13        -2.8700    0.4710   11.1130 ca        1 47W      0.009000
     14 C14        -3.8580    0.5550   12.1310 ca        1 47W     -0.234300
     15 C15        -4.8580   -0.4010   12.1750 ca        1 47W      0.408200
     16 N16        -4.9590   -1.4390   11.2850 nb        1 47W     -0.650000
     17 C17        -4.0440   -1.5270   10.3340 ca        1 47W      0.430200
     18 C18        -2.9580   -0.5990   10.1820 ca        1 47W     -0.178300
     19 C19        -1.9950   -0.7210    9.1550 ca        1 47W     -0.043000
     20 C20         3.3620   -0.1780    3.7810 ca        1 47W     -0.240000
     21 C21         4.0390   -0.2130    2.5750 ca        1 47W     -0.012000
     22 C22         3.4340    0.2300    1.3870 ca        1 47W     -0.315300
     23 C23         4.0950    0.0460    0.0850 c3        1 47W      0.235100
     24 N24         4.3830    1.3990   -0.5810 n4        1 47W     -0.711400
     25 C26         4.7970    1.2230   -1.9990 c3        1 47W      0.078800
     26 C27         5.1670    2.5440   -2.6880 c3        1 47W      0.077800
     27 N28         6.1900    3.3270   -1.9300 n4        1 47W     -0.769000
     28 C31         5.7850    3.4930   -0.5010 c3        1 47W      0.077800
     29 C32         5.4220    2.1610    0.1660 c3        1 47W      0.078800
     30 HN24        3.4930    1.9290   -0.5480 hn        1 47W      0.478800
     31 HN28        7.0990    2.8450   -1.9780 hn        1 47W      0.481800
     32 HN2A        6.2980    4.2570   -2.3650 hn        1 47W      0.481800
     33 H1         -0.0720    2.3200    0.8210 h1        1 47W      0.071033
     34 H1A         0.0030    1.6270   -0.8860 h1        1 47W      0.071033
     35 H1B        -0.3580    0.5220    0.5420 h1        1 47W      0.071033
     36 H4          0.3790    1.1670    2.7140 ha        1 47W      0.189000
     37 H7          2.0980   -1.2260    6.0010 h1        1 47W      0.069200
     38 H7A         2.7550    0.4520    6.4300 h1        1 47W      0.069200
     39 H11        -0.0540    1.9990    9.8890 ha        1 47W      0.141000
     40 H12        -1.7420    2.2320   11.7140 ha        1 47W      0.150000
     41 H14        -3.8160    1.3700   12.8670 ha        1 47W      0.155000
     42 H15        -5.6480   -0.3780   12.9480 h4        1 47W      0.037100
     43 H17        -4.1400   -2.3720    9.6270 h4        1 47W      0.027100
     44 H19        -2.0760   -1.5580    8.4430 ha        1 47W      0.144000
     45 H20         3.8510   -0.5480    4.6950 ha        1 47W      0.174000
     46 H21         5.0620   -0.6230    2.5440 ha        1 47W      0.144000
     47 H23         5.0720   -0.5050    0.1750 hx        1 47W      0.108200
     48 H23A        3.4090   -0.4920   -0.6350 hx        1 47W      0.108200
     49 H26         3.9380    0.7630   -2.5790 hx        1 47W      0.144450
     50 H26A        5.6610    0.4960   -2.0330 hx        1 47W      0.144450
     51 H27         5.5770    2.3050   -3.7170 hx        1 47W      0.146950
     52 H27A        4.2530    3.1960   -2.8190 hx        1 47W      0.146950
     53 H31         6.6470    3.9560    0.0720 hx        1 47W      0.146950
     54 H31A        4.9140    4.2130   -0.4630 hx        1 47W      0.146950
     55 H32         6.3360    1.5070    0.2780 hx        1 47W      0.144450
     56 H32A        5.0270    2.3780    1.2080 hx        1 47W      0.144450
@<TRIPOS>BOND
     1    1    2 1   
     2    1   33 1   
     3    1   34 1   
     4    1   35 1   
     5    2    3 1   
     6    3    4 ar  
     7    3   22 ar  
     8    4    5 ar  
     9    4   36 1   
    10    5    6 1   
    11    5   20 ar  
    12    6    7 1   
    13    7    8 1   
    14    7   37 1   
    15    7   38 1   
    16    8    9 3   
    17    9   10 1   
    18   10   11 ar  
    19   10   19 ar  
    20   11   12 ar  
    21   11   39 1   
    22   12   13 ar  
    23   12   40 1   
    24   13   14 ar  
    25   13   18 ar  
    26   14   15 ar  
    27   14   41 1   
    28   15   16 ar  
    29   15   42 1   
    30   16   17 ar  
    31   17   18 ar  
    32   17   43 1   
    33   18   19 ar  
    34   19   44 1   
    35   20   21 ar  
    36   20   45 1   
    37   21   22 ar  
    38   21   46 1   
    39   22   23 1   
    40   23   24 1   
    41   23   47 1   
    42   23   48 1   
    43   24   25 1   
    44   24   29 1   
    45   24   30 1   
    46   25   26 1   
    47   25   49 1   
    48   25   50 1   
    49   26   27 1   
    50   26   51 1   
    51   26   52 1   
    52   27   28 1   
    53   27   31 1   
    54   27   32 1   
    55   28   29 1   
    56   28   53 1   
    57   28   54 1   
    58   29   55 1   
    59   29   56 1   
@<TRIPOS>SUBSTRUCTURE
     1 47W         1 TEMP              0 ****  ****    0 ROOT
