@<TRIPOS>MOLECULE
47X
   30    32     1     0     0
SMALL
bcc


@<TRIPOS>ATOM
      1 CAA         4.4490    1.2480    0.4180 ca        1 47X     -0.189000
      2 CAB         4.8390   -0.0830    0.1520 ca        1 47X      0.180100
      3 CAC         3.8970   -1.0820   -0.1060 ca        1 47X     -0.252000
      4 CAD         3.1030    1.5700    0.4220 ca        1 47X     -0.016000
      5 CAE         2.1230    0.5930    0.1660 ca        1 47X     -0.251600
      6 CAF         2.5410   -0.7200   -0.0930 ca        1 47X      0.176100
      7 OAG         1.6470   -1.7470   -0.3550 os        1 47X     -0.218200
      8 CAH         0.3110   -1.4330   -0.3190 cc        1 47X      0.082100
      9 CAI        -0.2050   -0.2030   -0.0720 cd        1 47X     -0.200400
     10 CAJ         0.6940    0.9420    0.1680 c         1 47X      0.601900
     11 CAK        -1.6530   -0.0180   -0.0400 ca        1 47X     -0.034800
     12 CAL        -2.4640   -1.0190    0.5160 ca        1 47X     -0.134000
     13 CAM        -3.8530   -0.8640    0.5290 ca        1 47X      0.107100
     14 CAN        -4.4350    0.3030   -0.0130 ca        1 47X      0.046100
     15 CAO        -3.6240    1.3020   -0.5560 ca        1 47X     -0.171000
     16 CAP        -2.2410    1.1400   -0.5680 ca        1 47X     -0.094000
     17 OAQ        -5.8120    0.3770    0.0330 oh        1 47X     -0.516100
     18 OAR        -4.5960   -1.8830    1.0770 oh        1 47X     -0.497100
     19 OAS         6.1880   -0.3320    0.1620 oh        1 47X     -0.487100
     20 OAT         0.3020    2.1020    0.3520 o         1 47X     -0.546100
     21 HAA         5.2210    2.0040    0.6170 ha        1 47X      0.161000
     22 HAC         4.1900   -2.1190   -0.3140 ha        1 47X      0.158000
     23 HAD         2.7710    2.6030    0.6260 ha        1 47X      0.166000
     24 HAH        -0.2720   -2.3480   -0.5280 h4        1 47X      0.187000
     25 HAL        -2.0260   -1.9250    0.9590 ha        1 47X      0.149000
     26 HAO        -4.0770    2.2150   -0.9700 ha        1 47X      0.138000
     27 HAP        -1.6020    1.9370   -0.9800 ha        1 47X      0.159000
     28 HOAQ       -6.0720    1.2470   -0.2990 ho        1 47X      0.430000
     29 HOAR       -5.5290   -1.6160    1.0570 ho        1 47X      0.437000
     30 HOAS        6.3260   -1.2720   -0.0310 ho        1 47X      0.427000
@<TRIPOS>BOND
     1    1    2 ar  
     2    1    4 ar  
     3    1   21 1   
     4    2    3 ar  
     5    2   19 1   
     6    3    6 ar  
     7    3   22 1   
     8    4    5 ar  
     9    4   23 1   
    10    5    6 ar  
    11    5   10 1   
    12    6    7 1   
    13    7    8 1   
    14    8    9 2   
    15    8   24 1   
    16    9   10 1   
    17    9   11 1   
    18   10   20 2   
    19   11   12 ar  
    20   11   16 ar  
    21   12   13 ar  
    22   12   25 1   
    23   13   14 ar  
    24   13   18 1   
    25   14   15 ar  
    26   14   17 1   
    27   15   16 ar  
    28   15   26 1   
    29   16   27 1   
    30   17   28 1   
    31   18   29 1   
    32   19   30 1   
@<TRIPOS>SUBSTRUCTURE
     1 47X         1 TEMP              0 ****  ****    0 ROOT
