@<TRIPOS>MOLECULE
47X
   30    26     1     0     0
SMALL
bcc


@<TRIPOS>ATOM
      1 CAA         0.3140    0.1220   -4.5630 c1        1 47X     -0.127000
      2 CAB         1.7190    0.1170   -4.5690 c1        1 47X      0.066500
      3 CAC         2.4220    0.0960   -3.3650 c1        1 47X     -0.181000
      4 CAD        -0.3790    0.1070   -3.3520 c1        1 47X     -0.127000
      5 CAE         0.3240    0.0860   -2.1440 c1        1 47X     -0.232000
      6 CAF         1.7300    0.0800   -2.1500 c1        1 47X      0.125000
      7 OAG         2.4830   -0.0020   -0.8620 os        1 47X     -0.126000
      8 CAH         1.7880    0.1260    0.3870 c2        1 47X      0.040000
      9 CAI         0.3140    0.1900    0.4060 c1        1 47X     -0.195000
     10 CAJ        -0.4200    0.1540   -0.8380 c2        1 47X      0.324000
     11 CAK        -0.4290    0.1630    1.7240 c1        1 47X     -0.023000
     12 CAL        -0.7860   -1.0490    2.2930 c2        1 47X     -0.134000
     13 CAM        -1.4460   -1.0740    3.5120 c1        1 47X      0.062000
     14 CAN        -1.7470    0.1130    4.1620 c1        1 47X      0.066500
     15 CAO        -1.3900    1.3250    3.5920 c1        1 47X     -0.181000
     16 CAP        -0.7300    1.3500    2.3730 c1        1 47X     -0.094000
     17 OAQ        -2.4530    0.0890    5.3790 oh        1 47X     -0.256000
     18 OAR        -1.8380   -2.3020    4.0740 oh        1 47X     -0.251000
     19 OAS         2.4160    0.1370   -5.7900 oh        1 47X     -0.256000
     20 OAT        -1.6330    0.2060   -0.8310 o         1 47X     -0.308000
     21 HAA        -0.1770    0.1370   -5.4060 ha        1 47X      0.154000
     22 HAC         3.3980    0.0920   -3.3700 ha        1 47X      0.156000
     23 HAD        -1.3550    0.1110   -3.3490 ha        1 47X      0.154000
     24 HAH         2.2890    0.1500    1.2240 h4        1 47X      0.188000
     25 HAL        -0.5740   -1.8840    1.8360 ha        1 47X      0.149000
     26 HAO        -1.6020    2.1600    4.0500 ha        1 47X      0.156000
     27 HAP        -0.4780    2.2030    1.9720 ha        1 47X      0.159000
     28 HOAQ       -3.2680    0.4240    5.2560 ho        1 47X      0.227500
     29 HOAR       -1.1210   -2.7350    4.3710 ho        1 47X      0.236000
     30 HOAS        2.6310   -0.6940   -6.0220 ho        1 47X      0.227500
@<TRIPOS>BOND
     1    1    4 1   
     2    1   21 1   
     3    2    3 1   
     4    2   19 1   
     5    3   22 1   
     6    4   23 1   
     7    5    6 1   
     8    5   10 1   
     9    6    7 1   
    10    7    8 1   
    11    8    9 1   
    12    8   24 1   
    13    9   10 1   
    14   10   20 1   
    15   11   12 1   
    16   11   16 1   
    17   12   13 1   
    18   12   25 1   
    19   13   18 1   
    20   14   15 1   
    21   14   17 1   
    22   15   26 1   
    23   16   27 1   
    24   17   28 1   
    25   18   29 1   
    26   19   30 1   
@<TRIPOS>SUBSTRUCTURE
     1 47X         1 TEMP              0 ****  ****    0 ROOT
