@<TRIPOS>MOLECULE
47X
   30    32     1     0     0
SMALL
bcc


@<TRIPOS>ATOM
      1 CAA         0.0790   -0.3780    0.0070 ca        1 47X     -0.246000
      2 CAB         1.4640   -0.1130   -0.0210 ca        1 47X      0.177100
      3 CAC         2.1580    0.2650    1.1350 ca        1 47X     -0.191000
      4 CAD        -0.6140   -0.2640    1.2010 ca        1 47X     -0.008000
      5 CAE         0.0460    0.1130    2.3830 ca        1 47X     -0.252600
      6 CAF         1.4260    0.3720    2.3250 ca        1 47X      0.170100
      7 OAG         2.1570    0.7480    3.4420 os        1 47X     -0.215200
      8 CAH         1.4650    0.8940    4.6180 cc        1 47X      0.084100
      9 CAI         0.1370    0.6790    4.7870 cd        1 47X     -0.202400
     10 CAJ        -0.6890    0.2290    3.6510 c         1 47X      0.602900
     11 CAK        -0.4720    0.8970    6.0960 ca        1 47X     -0.034800
     12 CAL        -0.0380    1.9720    6.8870 ca        1 47X     -0.134000
     13 CAM        -0.5970    2.1760    8.1530 ca        1 47X      0.107100
     14 CAN        -1.5990    1.3030    8.6280 ca        1 47X      0.046100
     15 CAO        -2.0350    0.2400    7.8330 ca        1 47X     -0.171000
     16 CAP        -1.4730    0.0410    6.5750 ca        1 47X     -0.094000
     17 OAQ        -2.0940    1.5690    9.8880 oh        1 47X     -0.516100
     18 OAR        -0.1240    3.2400    8.8860 oh        1 47X     -0.497100
     19 OAS         2.2070   -0.2090   -1.1700 oh        1 47X     -0.488100
     20 OAT        -1.8960   -0.0370    3.7350 o         1 47X     -0.547100
     21 HAA        -0.4420   -0.6720   -0.9150 ha        1 47X      0.144000
     22 HAC         3.2360    0.4700    1.1090 ha        1 47X      0.174000
     23 HAD        -1.6970   -0.4670    1.2470 ha        1 47X      0.164000
     24 HAH         2.1730    1.2120    5.4050 h4        1 47X      0.188000
     25 HAL         0.7280    2.6720    6.5260 ha        1 47X      0.149000
     26 HAO        -2.8220   -0.4350    8.2000 ha        1 47X      0.138000
     27 HAP        -1.8320   -0.7860    5.9420 ha        1 47X      0.159000
     28 HOAQ       -2.8130    0.9450   10.0600 ho        1 47X      0.430000
     29 HOAR       -0.6290    3.2780    9.7130 ho        1 47X      0.437000
     30 HOAS        1.6150   -0.4730   -1.8910 ho        1 47X      0.427000
@<TRIPOS>BOND
     1    1    2 ar  
     2    1    4 ar  
     3    1   21 1   
     4    2    3 ar  
     5    2   19 1   
     6    3    6 ar  
     7    3   22 1   
     8    4    5 ar  
     9    4   23 1   
    10    5    6 ar  
    11    5   10 1   
    12    6    7 1   
    13    7    8 1   
    14    8    9 2   
    15    8   24 1   
    16    9   10 1   
    17    9   11 1   
    18   10   20 2   
    19   11   12 ar  
    20   11   16 ar  
    21   12   13 ar  
    22   12   25 1   
    23   13   14 ar  
    24   13   18 1   
    25   14   15 ar  
    26   14   17 1   
    27   15   16 ar  
    28   15   26 1   
    29   16   27 1   
    30   17   28 1   
    31   18   29 1   
    32   19   30 1   
@<TRIPOS>SUBSTRUCTURE
     1 47X         1 TEMP              0 ****  ****    0 ROOT
