@<TRIPOS>MOLECULE
47X
   30    32     1     0     0
SMALL
bcc


@<TRIPOS>ATOM
      1 CAA         0.0820   -0.3770    0.0070 ca        1 47X     -0.246000
      2 CAB         1.4650   -0.1060   -0.0220 ca        1 47X      0.177100
      3 CAC         2.1580    0.2750    1.1340 ca        1 47X     -0.191000
      4 CAD        -0.6110   -0.2660    1.2020 ca        1 47X     -0.008000
      5 CAE         0.0480    0.1130    2.3830 ca        1 47X     -0.252600
      6 CAF         1.4260    0.3780    2.3250 ca        1 47X      0.170100
      7 OAG         2.1560    0.7580    3.4410 os        1 47X     -0.215200
      8 CAH         1.4640    0.9010    4.6180 cc        1 47X      0.084100
      9 CAI         0.1370    0.6800    4.7870 cd        1 47X     -0.202400
     10 CAJ        -0.6880    0.2270    3.6520 c         1 47X      0.602900
     11 CAK        -0.4730    0.8960    6.0970 ca        1 47X     -0.034800
     12 CAL        -0.0430    1.9720    6.8870 ca        1 47X     -0.134000
     13 CAM        -0.6020    2.1740    8.1530 ca        1 47X      0.107100
     14 CAN        -1.6000    1.2960    8.6280 ca        1 47X      0.046100
     15 CAO        -2.0330    0.2320    7.8340 ca        1 47X     -0.171000
     16 CAP        -1.4700    0.0350    6.5750 ca        1 47X     -0.094000
     17 OAQ        -2.0960    1.5600    9.8890 oh        1 47X     -0.516100
     18 OAR        -0.1330    3.2390    8.8870 oh        1 47X     -0.497100
     19 OAS         2.2080   -0.2000   -1.1710 oh        1 47X     -0.488100
     20 OAT        -1.8940   -0.0440    3.7360 o         1 47X     -0.547100
     21 HAA        -0.4380   -0.6730   -0.9150 ha        1 47X      0.144000
     22 HAC         3.2350    0.4850    1.1080 ha        1 47X      0.174000
     23 HAD        -1.6940   -0.4730    1.2480 ha        1 47X      0.164000
     24 HAH         2.1710    1.2220    5.4040 h4        1 47X      0.188000
     25 HAL         0.7210    2.6760    6.5260 ha        1 47X      0.149000
     26 HAO        -2.8160   -0.4470    8.2010 ha        1 47X      0.138000
     27 HAP        -1.8250   -0.7930    5.9420 ha        1 47X      0.159000
     28 HOAQ       -2.8120    0.9330   10.0610 ho        1 47X      0.430000
     29 HOAR       -0.6380    3.2750    9.7140 ho        1 47X      0.437000
     30 HOAS        1.6170   -0.4660   -1.8920 ho        1 47X      0.427000
@<TRIPOS>BOND
     1    1    2 ar  
     2    1    4 ar  
     3    1   21 1   
     4    2    3 ar  
     5    2   19 1   
     6    3    6 ar  
     7    3   22 1   
     8    4    5 ar  
     9    4   23 1   
    10    5    6 ar  
    11    5   10 1   
    12    6    7 1   
    13    7    8 1   
    14    8    9 2   
    15    8   24 1   
    16    9   10 1   
    17    9   11 1   
    18   10   20 2   
    19   11   12 ar  
    20   11   16 ar  
    21   12   13 ar  
    22   12   25 1   
    23   13   14 ar  
    24   13   18 1   
    25   14   15 ar  
    26   14   17 1   
    27   15   16 ar  
    28   15   26 1   
    29   16   27 1   
    30   17   28 1   
    31   18   29 1   
    32   19   30 1   
@<TRIPOS>SUBSTRUCTURE
     1 47X         1 TEMP              0 ****  ****    0 ROOT
