@<TRIPOS>MOLECULE
481
   81    86     1     0     0
SMALL
bcc


@<TRIPOS>ATOM
      1 O34         0.1320   -1.7580   -0.0570 o         1 481     -0.584100
      2 C32         0.8880   -0.7740    0.0360 c         1 481      0.683700
      3 C33         1.4720   -0.3670    1.3490 ca        1 481     -0.153600
      4 C39         2.7950    0.0690    1.4720 ca        1 481     -0.090000
      5 C38         3.2970    0.4210    2.7210 ca        1 481     -0.137500
      6 C37         2.4950    0.3460    3.8710 ca        1 481     -0.037300
      7 C40         3.0800    0.7490    5.1990 c3        1 481     -0.014700
      8 C43         2.0990    0.5510    6.3490 c3        1 481     -0.087433
      9 C42         4.3230   -0.0910    5.4840 c3        1 481     -0.087433
     10 C41         3.4700    2.2240    5.1490 c3        1 481     -0.087433
     11 C36         1.1760   -0.1020    3.7370 ca        1 481     -0.137500
     12 C35         0.6680   -0.4610    2.4890 ca        1 481     -0.090000
     13 N31         1.2250    0.0290   -1.0460 n         1 481     -0.470100
     14 C13         0.8620   -0.1430   -2.3910 ca        1 481      0.068600
     15 C12         1.3320    0.8090   -3.3300 ca        1 481     -0.149000
     16 C14         0.0630   -1.2120   -2.8500 ca        1 481     -0.146000
     17 C15        -0.2410   -1.3190   -4.2040 ca        1 481     -0.108000
     18 C16         0.2250   -0.3860   -5.1250 ca        1 481     -0.148000
     19 C11         1.0130    0.6840   -4.6830 ca        1 481     -0.113500
     20 C3          1.5020    1.6820   -5.6530 cc        1 481      0.467800
     21 N2          2.8000    2.1390   -5.5070 nc        1 481     -0.731000
     22 C4          0.6340    2.1150   -6.6510 cd        1 481     -0.230600
     23 N6          1.0810    3.0550   -7.5580 na        1 481      0.054700
     24 C5          2.4110    3.5650   -7.4600 cd        1 481     -0.198600
     25 N9          2.6440    4.4950   -8.4340 nc        1 481     -0.267600
     26 C8          1.4700    4.5770   -9.1530 cc        1 481      0.002600
     27 C7          0.4850    3.6970   -8.6320 cd        1 481     -0.209100
     28 C1          3.2660    3.0410   -6.3830 cd        1 481      0.723200
     29 N10         4.5780    3.5110   -6.3580 nh        1 481     -0.726300
     30 C17         5.4900    3.2260   -5.3220 ca        1 481      0.162600
     31 C20         6.2510    4.2780   -4.7590 ca        1 481     -0.154000
     32 C21         7.1950    4.0130   -3.7750 ca        1 481     -0.077500
     33 C22         7.3920    2.7060   -3.3170 ca        1 481     -0.154600
     34 C19         6.6630    1.6580   -3.8850 ca        1 481     -0.077500
     35 C18         5.7230    1.9060   -4.8800 ca        1 481     -0.154000
     36 C23         8.4370    2.4640   -2.2820 c         1 481      0.668700
     37 O24         9.5760    2.9580   -2.4070 o         1 481     -0.596100
     38 N25         8.1500    1.6170   -1.2100 n         1 481     -0.456800
     39 C30         9.1590    1.3730   -0.2000 c3        1 481      0.080500
     40 C29         8.8430    2.0120    1.1680 c3        1 481      0.142300
     41 N28         7.4900    1.7280    1.6290 n3        1 481     -0.732600
     42 C44         7.1950    2.3550    2.8970 c3        1 481      0.156100
     43 C27         6.4830    2.0160    0.6190 c3        1 481      0.142300
     44 C26         6.8010    1.3790   -0.7530 c3        1 481      0.080500
     45 H1          3.4580    0.1170    0.5940 ha        1 481      0.144000
     46 H2          4.3430    0.7580    2.8030 ha        1 481      0.141500
     47 H3          1.7940   -0.5190    6.4260 hc        1 481      0.039256
     48 H4          2.5830    0.8500    7.3100 hc        1 481      0.039256
     49 H5          1.1900    1.1830    6.2050 hc        1 481      0.039256
     50 H6          4.7360    0.1720    6.4870 hc        1 481      0.039256
     51 H7          4.0660   -1.1770    5.4760 hc        1 481      0.039256
     52 H8          5.1110    0.0970    4.7160 hc        1 481      0.039256
     53 H9          2.5730    2.8550    4.9440 hc        1 481      0.039256
     54 H10         4.2260    2.4030    4.3480 hc        1 481      0.039256
     55 H11         3.9080    2.5330    6.1290 hc        1 481      0.039256
     56 H12         0.5170   -0.1850    4.6140 ha        1 481      0.141500
     57 H13        -0.3650   -0.8300    2.3940 ha        1 481      0.144000
     58 H14         1.7990    0.8230   -0.8570 hn        1 481      0.319500
     59 H15         1.9570    1.6530   -3.0010 ha        1 481      0.146000
     60 H16        -0.3220   -1.9700   -2.1480 ha        1 481      0.176000
     61 H17        -0.8600   -2.1620   -4.5480 ha        1 481      0.138000
     62 H18        -0.0110   -0.4960   -6.1940 ha        1 481      0.135000
     63 H19        -0.4010    1.7560   -6.7590 h4        1 481      0.178000
     64 H20         1.3670    5.2500  -10.0050 h4        1 481      0.186000
     65 H21        -0.5390    3.5020   -8.9420 h4        1 481      0.189000
     66 H22         4.7410    4.3610   -6.8590 hn        1 481      0.460800
     67 H23         6.1090    5.3150   -5.1010 ha        1 481      0.151000
     68 H24         7.8000    4.8320   -3.3550 ha        1 481      0.149500
     69 H25         6.8380    0.6220   -3.5540 ha        1 481      0.149500
     70 H26         5.1700    1.0600   -5.3170 ha        1 481      0.151000
     71 H27        10.1550    1.7680   -0.5490 h1        1 481      0.066950
     72 H28         9.2380    0.2560   -0.0730 h1        1 481      0.066950
     73 H29         9.0380    3.1220    1.1060 h1        1 481      0.038950
     74 H30         9.5580    1.5770    1.9220 h1        1 481      0.038950
     75 H32         7.1710    3.4780    2.8460 h1        1 481      0.032700
     76 H33         6.1940    1.9930    3.2530 h1        1 481      0.032700
     77 H34         7.9760    2.0490    3.6420 h1        1 481      0.032700
     78 H35         5.5060    1.5820    0.9770 h1        1 481      0.038950
     79 H36         6.3350    3.1260    0.4780 h1        1 481      0.038950
     80 H37         6.0520    1.7740   -1.4930 h1        1 481      0.066950
     81 H38         6.6660    0.2610   -0.6720 h1        1 481      0.066950
@<TRIPOS>BOND
     1    1    2 2   
     2    2    3 1   
     3    2   13 1   
     4    3    4 ar  
     5    3   12 ar  
     6    4    5 ar  
     7    4   45 1   
     8    5    6 ar  
     9    5   46 1   
    10    6    7 1   
    11    6   11 ar  
    12    7    8 1   
    13    7    9 1   
    14    7   10 1   
    15    8   47 1   
    16    8   48 1   
    17    8   49 1   
    18    9   50 1   
    19    9   51 1   
    20    9   52 1   
    21   10   53 1   
    22   10   54 1   
    23   10   55 1   
    24   11   12 ar  
    25   11   56 1   
    26   12   57 1   
    27   13   14 1   
    28   13   58 1   
    29   14   15 ar  
    30   14   16 ar  
    31   15   19 ar  
    32   15   59 1   
    33   16   17 ar  
    34   16   60 1   
    35   17   18 ar  
    36   17   61 1   
    37   18   19 ar  
    38   18   62 1   
    39   19   20 1   
    40   20   21 1   
    41   20   22 2   
    42   21   28 2   
    43   22   23 1   
    44   22   63 1   
    45   23   24 1   
    46   23   27 1   
    47   24   25 2   
    48   24   28 1   
    49   25   26 1   
    50   26   27 2   
    51   26   64 1   
    52   27   65 1   
    53   28   29 1   
    54   29   30 1   
    55   29   66 1   
    56   30   31 ar  
    57   30   35 ar  
    58   31   32 ar  
    59   31   67 1   
    60   32   33 ar  
    61   32   68 1   
    62   33   34 ar  
    63   33   36 1   
    64   34   35 ar  
    65   34   69 1   
    66   35   70 1   
    67   36   37 2   
    68   36   38 1   
    69   38   39 1   
    70   38   44 1   
    71   39   40 1   
    72   39   71 1   
    73   39   72 1   
    74   40   41 1   
    75   40   73 1   
    76   40   74 1   
    77   41   42 1   
    78   41   43 1   
    79   42   75 1   
    80   42   76 1   
    81   42   77 1   
    82   43   44 1   
    83   43   78 1   
    84   43   79 1   
    85   44   80 1   
    86   44   81 1   
@<TRIPOS>SUBSTRUCTURE
     1 481         1 TEMP              0 ****  ****    0 ROOT
