@<TRIPOS>MOLECULE
481
   81    86     1     0     0
SMALL
bcc


@<TRIPOS>ATOM
      1 O34         0.1750   -1.8100   -0.0630 o         1 481     -0.584100
      2 C32         0.9180   -0.8160    0.0320 c         1 481      0.683700
      3 C33         1.4940   -0.4010    1.3450 ca        1 481     -0.153600
      4 C39         2.8110    0.0520    1.4710 ca        1 481     -0.090000
      5 C38         3.3060    0.4120    2.7210 ca        1 481     -0.137500
      6 C37         2.5030    0.3280    3.8690 ca        1 481     -0.037300
      7 C40         3.0790    0.7390    5.1980 c3        1 481     -0.014700
      8 C43         2.0980    0.5310    6.3460 c3        1 481     -0.087433
      9 C42         4.3320   -0.0850    5.4860 c3        1 481     -0.087433
     10 C41         3.4510    2.2190    5.1480 c3        1 481     -0.087433
     11 C36         1.1900   -0.1380    3.7330 ca        1 481     -0.137500
     12 C35         0.6890   -0.5030    2.4840 ca        1 481     -0.090000
     13 N31         1.2470   -0.0090   -1.0510 ns        1 481     -0.470100
     14 C13         0.8880   -0.1860   -2.3960 ca        1 481      0.068600
     15 C12         1.3450    0.7730   -3.3340 ca        1 481     -0.149000
     16 C14         0.1050   -1.2650   -2.8560 ca        1 481     -0.146000
     17 C15        -0.1970   -1.3760   -4.2110 ca        1 481     -0.108000
     18 C16         0.2580   -0.4370   -5.1310 ca        1 481     -0.148000
     19 C11         1.0300    0.6440   -4.6870 ca        1 481     -0.113500
     20 C3          1.5060    1.6490   -5.6560 cc        1 481      0.467800
     21 N2          2.7980    2.1240   -5.5080 nc        1 481     -0.731000
     22 C4          0.6340    2.0700   -6.6560 cd        1 481     -0.230600
     23 N6          1.0690    3.0160   -7.5610 na        1 481      0.054700
     24 C5          2.3920    3.5450   -7.4620 cd        1 481     -0.198600
     25 N9          2.6130    4.4780   -8.4350 nc        1 481     -0.267600
     26 C8          1.4390    4.5440   -9.1560 cc        1 481      0.002600
     27 C7          0.4650    3.6500   -8.6370 cd        1 481     -0.209100
     28 C1          3.2530    3.0320   -6.3840 cd        1 481      0.723200
     29 N10         4.5580    3.5210   -6.3560 nu        1 481     -0.726300
     30 C17         5.4720    3.2480   -5.3190 ca        1 481      0.162600
     31 C20         6.2170    4.3100   -4.7550 ca        1 481     -0.154000
     32 C21         7.1630    4.0580   -3.7700 ca        1 481     -0.077500
     33 C22         7.3780    2.7540   -3.3120 ca        1 481     -0.154600
     34 C19         6.6650    1.6960   -3.8810 ca        1 481     -0.077500
     35 C18         5.7230    1.9310   -4.8780 ca        1 481     -0.154000
     36 C23         8.4250    2.5260   -2.2760 c         1 481      0.668700
     37 O24         9.5580    3.0360   -2.4000 o         1 481     -0.596100
     38 N25         8.1490    1.6750   -1.2040 n         1 481     -0.456800
     39 C30         9.1610    1.4450   -0.1940 c3        1 481      0.081000
     40 C29         8.8340    2.0780    1.1750 c3        1 481      0.142300
     41 N28         7.4850    1.7740    1.6330 n3        1 481     -0.732600
     42 C44         7.1790    2.3950    2.9020 c3        1 481      0.156100
     43 C27         6.4750    2.0480    0.6230 c3        1 481      0.142300
     44 C26         6.8040    1.4170   -0.7490 c3        1 481      0.081000
     45 H1          3.4750    0.1080    0.5940 ha        1 481      0.144000
     46 H2          4.3480    0.7620    2.8040 ha        1 481      0.141500
     47 H3          2.5770    0.8360    7.3080 hc        1 481      0.039256
     48 H4          1.8060   -0.5440    6.4230 hc        1 481      0.039256
     49 H5          1.1820    1.1510    6.1990 hc        1 481      0.039256
     50 H6          5.1200    0.1120    4.7200 hc        1 481      0.039256
     51 H7          4.7400    0.1850    6.4900 hc        1 481      0.039256
     52 H8          4.0890   -1.1740    5.4790 hc        1 481      0.039256
     53 H9          3.8830    2.5340    6.1270 hc        1 481      0.039256
     54 H10         2.5470    2.8390    4.9390 hc        1 481      0.039256
     55 H11         4.2070    2.4070    4.3480 hc        1 481      0.039256
     56 H12         0.5300   -0.2280    4.6090 ha        1 481      0.141500
     57 H13        -0.3400   -0.8860    2.3870 ha        1 481      0.144000
     58 H14         1.8100    0.7920   -0.8610 hn        1 481      0.319500
     59 H15         1.9590    1.6260   -3.0030 ha        1 481      0.146000
     60 H16        -0.2710   -2.0290   -2.1550 ha        1 481      0.176000
     61 H17        -0.8040   -2.2280   -4.5550 ha        1 481      0.138000
     62 H18         0.0250   -0.5500   -6.1990 ha        1 481      0.135000
     63 H19        -0.3950    1.6960   -6.7650 h4        1 481      0.178000
     64 H20         1.3280    5.2160  -10.0080 h4        1 481      0.186000
     65 H21        -0.5550    3.4410   -8.9480 h4        1 481      0.189000
     66 H22         4.7100    4.3730   -6.8570 hn        1 481      0.460800
     67 H23         6.0610    5.3450   -5.0970 ha        1 481      0.151000
     68 H24         7.7560    4.8860   -3.3490 ha        1 481      0.149500
     69 H25         6.8540    0.6620   -3.5510 ha        1 481      0.149500
     70 H26         5.1830    1.0780   -5.3160 ha        1 481      0.151000
     71 H27        10.1510    1.8540   -0.5410 h1        1 481      0.066950
     72 H28         9.2560    0.3290   -0.0680 h1        1 481      0.066950
     73 H29         9.5540    1.6530    1.9290 h1        1 481      0.038950
     74 H30         9.0130    3.1910    1.1140 h1        1 481      0.038950
     75 H32         6.1830    2.0190    3.2570 h1        1 481      0.032700
     76 H33         7.9630    2.0990    3.6470 h1        1 481      0.032700
     77 H34         7.1400    3.5180    2.8520 h1        1 481      0.032700
     78 H35         6.3110    3.1560    0.4830 h1        1 481      0.038950
     79 H36         5.5040    1.6000    0.9790 h1        1 481      0.038950
     80 H37         6.6840    0.2970   -0.6700 h1        1 481      0.066950
     81 H38         6.0500    1.8020   -1.4900 h1        1 481      0.066950
@<TRIPOS>BOND
     1    1    2 2   
     2    2    3 1   
     3    2   13 1   
     4    3    4 ar  
     5    3   12 ar  
     6    4    5 ar  
     7    4   45 1   
     8    5    6 ar  
     9    5   46 1   
    10    6    7 1   
    11    6   11 ar  
    12    7    8 1   
    13    7    9 1   
    14    7   10 1   
    15    8   47 1   
    16    8   48 1   
    17    8   49 1   
    18    9   50 1   
    19    9   51 1   
    20    9   52 1   
    21   10   53 1   
    22   10   54 1   
    23   10   55 1   
    24   11   12 ar  
    25   11   56 1   
    26   12   57 1   
    27   13   14 1   
    28   13   58 1   
    29   14   15 ar  
    30   14   16 ar  
    31   15   19 ar  
    32   15   59 1   
    33   16   17 ar  
    34   16   60 1   
    35   17   18 ar  
    36   17   61 1   
    37   18   19 ar  
    38   18   62 1   
    39   19   20 1   
    40   20   21 1   
    41   20   22 2   
    42   21   28 2   
    43   22   23 1   
    44   22   63 1   
    45   23   24 1   
    46   23   27 1   
    47   24   25 2   
    48   24   28 1   
    49   25   26 1   
    50   26   27 2   
    51   26   64 1   
    52   27   65 1   
    53   28   29 1   
    54   29   30 1   
    55   29   66 1   
    56   30   31 ar  
    57   30   35 ar  
    58   31   32 ar  
    59   31   67 1   
    60   32   33 ar  
    61   32   68 1   
    62   33   34 ar  
    63   33   36 1   
    64   34   35 ar  
    65   34   69 1   
    66   35   70 1   
    67   36   37 2   
    68   36   38 1   
    69   38   39 1   
    70   38   44 1   
    71   39   40 1   
    72   39   71 1   
    73   39   72 1   
    74   40   41 1   
    75   40   73 1   
    76   40   74 1   
    77   41   42 1   
    78   41   43 1   
    79   42   75 1   
    80   42   76 1   
    81   42   77 1   
    82   43   44 1   
    83   43   78 1   
    84   43   79 1   
    85   44   80 1   
    86   44   81 1   
@<TRIPOS>SUBSTRUCTURE
     1 481         1 TEMP              0 ****  ****    0 ROOT
