@<TRIPOS>MOLECULE
481
   83    88     1     0     0
SMALL
bcc


@<TRIPOS>ATOM
      1 O34         3.0330   -0.5570    0.3960 o         1 481     -0.442100
      2 C32         2.2220   -1.4400    0.6340 c         1 481      0.597700
      3 C33         1.5700   -1.7920    1.8850 ca        1 481     -0.228600
      4 C39         1.2060   -3.1070    2.2270 ca        1 481     -0.061500
      5 C38         0.6220   -3.3640    3.4580 ca        1 481     -0.130500
      6 C37         0.3810   -2.3290    4.3850 ca        1 481      0.041700
      7 C40        -0.2580   -2.6610    5.7070 c3        1 481     -0.030700
      8 C43        -0.4540   -1.4290    6.5820 c3        1 481     -0.093433
      9 C42        -1.6230   -3.2980    5.4590 c3        1 481     -0.093433
     10 C41         0.6340   -3.6480    6.4580 c3        1 481     -0.093433
     11 C36         0.7590   -1.0250    4.0380 ca        1 481     -0.130500
     12 C35         1.3540   -0.7550    2.8100 ca        1 481     -0.061500
     13 N31         1.8400   -2.2880   -0.5920 n4        1 481     -0.556200
     14 C13         1.1130   -1.5110   -1.5990 ca        1 481     -0.043400
     15 C12         1.7860   -0.5130   -2.3280 ca        1 481     -0.063000
     16 C14        -0.2470   -1.7820   -1.8350 ca        1 481     -0.084000
     17 C15        -0.9230   -1.0550   -2.8120 ca        1 481     -0.096000
     18 C16        -0.2660   -0.0690   -3.5470 ca        1 481     -0.070000
     19 C11         1.0870    0.2100   -3.3010 ca        1 481     -0.124500
     20 C3          1.7560    1.2680   -4.0770 cc        1 481      0.387800
     21 N2          3.0030    1.0010   -4.6120 nc        1 481     -0.613000
     22 C4          1.0870    2.4860   -4.2600 cd        1 481     -0.087600
     23 N6          1.6680    3.4670   -5.0160 na        1 481      0.031700
     24 C5          2.9610    3.2310   -5.6180 cd        1 481     -0.171600
     25 N9          3.3640    4.3090   -6.3420 nc        1 481     -0.255600
     26 C8          2.3490    5.2410   -6.2160 cc        1 481      0.063600
     27 C7          1.2940    4.7510   -5.4040 cd        1 481     -0.158100
     28 C1          3.5700    1.9450   -5.3590 cd        1 481      0.530200
     29 N10         4.8910    1.7060   -5.9840 n4        1 481     -0.605100
     30 C17         6.0030    2.2210   -5.1720 ca        1 481     -0.056400
     31 C20         6.6300    3.4240   -5.5400 ca        1 481     -0.096500
     32 C21         7.7300    3.8650   -4.8060 ca        1 481     -0.082000
     33 C22         8.1920    3.1250   -3.7140 ca        1 481     -0.058600
     34 C19         7.5480    1.9380   -3.3430 ca        1 481     -0.082000
     35 C18         6.4500    1.4790   -4.0630 ca        1 481     -0.096500
     36 C23         9.4560    3.5050   -2.9940 c         1 481      0.647700
     37 O24        10.4520    2.7680   -3.1350 o         1 481     -0.564100
     38 N25         9.4560    4.5860   -2.1380 n         1 481     -0.443800
     39 C30        10.7020    5.0260   -1.5300 c3        1 481      0.078500
     40 C29        11.1330    6.4390   -1.9740 c3        1 481      0.147300
     41 N28        10.0570    7.4150   -1.8770 n3        1 481     -0.732600
     42 C44        10.4660    8.7420   -2.2760 c3        1 481      0.154100
     43 C27         8.8430    6.9740   -2.5430 c3        1 481      0.147300
     44 C26         8.3980    5.5680   -2.0820 c3        1 481      0.078500
     45 H1          1.4130   -3.9580    1.5590 ha        1 481      0.144000
     46 H2          0.3490   -4.4010    3.7210 ha        1 481      0.173500
     47 H3         -1.1160   -0.6850    6.0780 hc        1 481      0.050589
     48 H4         -0.9370   -1.7300    7.5440 hc        1 481      0.050589
     49 H5          0.5270   -0.9510    6.8210 hc        1 481      0.050589
     50 H6         -1.5230   -4.2390    4.8680 hc        1 481      0.050589
     51 H7         -2.2890   -2.5920    4.9080 hc        1 481      0.050589
     52 H8         -2.1010   -3.5470    6.4380 hc        1 481      0.050589
     53 H9          0.1690   -3.8940    7.4440 hc        1 481      0.050589
     54 H10         1.6410   -3.2040    6.6420 hc        1 481      0.050589
     55 H11         0.7560   -4.5950    5.8800 hc        1 481      0.050589
     56 H12         0.6000   -0.1890    4.7410 ha        1 481      0.173500
     57 H13         1.6620    0.2750    2.5610 ha        1 481      0.144000
     58 H14         2.7000   -2.6490   -1.0220 hn        1 481      0.461800
     59 H15         2.8480   -0.2870   -2.1270 ha        1 481      0.174000
     60 H16        -0.7900   -2.5570   -1.2680 ha        1 481      0.168000
     61 H17        -1.9890   -1.2680   -3.0080 ha        1 481      0.184000
     62 H18        -0.8130    0.4830   -4.3300 ha        1 481      0.166000
     63 H19         0.0960    2.6980   -3.8140 h4        1 481      0.207000
     64 H20         2.4080    6.2200   -6.7070 h4        1 481      0.226000
     65 H21         0.3520    5.2130   -5.1000 h4        1 481      0.223000
     66 H22         5.0330    0.6950   -6.1270 hn        1 481      0.481800
     67 H23         6.2750    4.0240   -6.3970 ha        1 481      0.163500
     68 H24         8.2420    4.7980   -5.1010 ha        1 481      0.180500
     69 H25         7.9310    1.3530   -2.4890 ha        1 481      0.180500
     70 H26         5.9570    0.5400   -3.7670 ha        1 481      0.163500
     71 H27        10.5470    5.0170   -0.4130 h1        1 481      0.068950
     72 H28        11.5300    4.3050   -1.7860 h1        1 481      0.068950
     73 H29        11.5550    6.3810   -3.0190 h1        1 481      0.045450
     74 H30        11.9600    6.7720   -1.2850 h1        1 481      0.045450
     75 H32         9.6230    9.4550   -2.0770 h1        1 481      0.043367
     76 H33        11.3500    9.0460   -1.6570 h1        1 481      0.043367
     77 H34        10.7470    8.8120   -3.3630 h1        1 481      0.043367
     78 H35         8.0210    7.6970   -2.2780 h1        1 481      0.045450
     79 H36         8.9510    6.9700   -3.6680 h1        1 481      0.045450
     80 H37         7.5230    5.2520   -2.7140 h1        1 481      0.068950
     81 H38         8.0540    5.6290   -1.0080 h1        1 481      0.068950
     82 H312        1.2570   -3.0790   -0.2950 hn        1 481      0.461800
     83 H102        4.8950    2.1810   -6.9020 hn        1 481      0.481800
@<TRIPOS>BOND
     1    1    2 2   
     2    2    3 1   
     3    2   13 1   
     4    3    4 ar  
     5    3   12 ar  
     6    4    5 ar  
     7    4   45 1   
     8    5    6 ar  
     9    5   46 1   
    10    6    7 1   
    11    6   11 ar  
    12    7    8 1   
    13    7    9 1   
    14    7   10 1   
    15    8   47 1   
    16    8   48 1   
    17    8   49 1   
    18    9   50 1   
    19    9   51 1   
    20    9   52 1   
    21   10   53 1   
    22   10   54 1   
    23   10   55 1   
    24   11   12 ar  
    25   11   56 1   
    26   12   57 1   
    27   13   14 1   
    28   13   58 1   
    29   13   82 1   
    30   14   15 ar  
    31   14   16 ar  
    32   15   19 ar  
    33   15   59 1   
    34   16   17 ar  
    35   16   60 1   
    36   17   18 ar  
    37   17   61 1   
    38   18   19 ar  
    39   18   62 1   
    40   19   20 1   
    41   20   21 1   
    42   20   22 2   
    43   21   28 2   
    44   22   23 1   
    45   22   63 1   
    46   23   24 1   
    47   23   27 1   
    48   24   25 2   
    49   24   28 1   
    50   25   26 1   
    51   26   27 2   
    52   26   64 1   
    53   27   65 1   
    54   28   29 1   
    55   29   30 1   
    56   29   66 1   
    57   29   83 1   
    58   30   31 ar  
    59   30   35 ar  
    60   31   32 ar  
    61   31   67 1   
    62   32   33 ar  
    63   32   68 1   
    64   33   34 ar  
    65   33   36 1   
    66   34   35 ar  
    67   34   69 1   
    68   35   70 1   
    69   36   37 2   
    70   36   38 1   
    71   38   39 1   
    72   38   44 1   
    73   39   40 1   
    74   39   71 1   
    75   39   72 1   
    76   40   41 1   
    77   40   73 1   
    78   40   74 1   
    79   41   42 1   
    80   41   43 1   
    81   42   75 1   
    82   42   76 1   
    83   42   77 1   
    84   43   44 1   
    85   43   78 1   
    86   43   79 1   
    87   44   80 1   
    88   44   81 1   
@<TRIPOS>SUBSTRUCTURE
     1 481         1 TEMP              0 ****  ****    0 ROOT
