@<TRIPOS>MOLECULE
482
   31    31     1     0     0
SMALL
bcc


@<TRIPOS>ATOM
      1 C15         1.1920   -0.7320   -0.4240 c3        1 482     -0.100100
      2 C14         2.5940   -0.4510    0.0500 c3        1 482     -0.076400
      3 C13         2.5920    0.0270    1.4880 c3        1 482     -0.171400
      4 C11         3.9600    0.3780    1.9710 c         1 482      0.602100
      5 O12         4.9550    0.5510    1.2640 o         1 482     -0.531100
      6 C10         4.0770    0.4990    3.4850 c3        1 482     -0.290400
      7 C8          5.1570    1.4550    3.8790 c         1 482      0.572100
      8 O9          5.1380    2.6730    3.8700 o         1 482     -0.387100
      9 N7          6.4690    0.8630    4.3940 ny        1 482     -0.668800
     10 C1          7.1850    0.0390    3.3780 c3        1 482     -0.008500
     11 C5          8.7150    0.2060    3.3490 c3        1 482     -0.130400
     12 C4          9.2560   -1.2220    3.2220 c3        1 482      0.116400
     13 C2          7.0000   -1.4660    3.6370 c         1 482      0.706600
     14 O6          5.9750   -2.0520    3.9550 o         1 482     -0.541500
     15 OAP         8.1700   -2.1410    3.5090 os        1 482     -0.341900
     16 H1          0.7090   -1.5200    0.2040 hc        1 482      0.048033
     17 H2          1.2130   -1.0900   -1.4820 hc        1 482      0.048033
     18 H3          0.5630    0.1900   -0.3780 hc        1 482      0.048033
     19 H4          3.2190   -1.3790   -0.0330 hc        1 482      0.060700
     20 H5          3.0720    0.3290   -0.6010 hc        1 482      0.060700
     21 H6          1.9470    0.9450    1.5830 hc        1 482      0.089200
     22 H7          2.1540   -0.7630    2.1560 hc        1 482      0.089200
     23 H8          3.1110    0.8960    3.9090 hc        1 482      0.142700
     24 H9          4.2410   -0.5390    3.8970 hc        1 482      0.142700
     25 H10         7.0820    1.6360    4.6930 hn        1 482      0.465300
     26 H11         6.7560    0.2830    2.3520 hx        1 482      0.179700
     27 H12         9.1180    0.6950    4.2720 hc        1 482      0.098200
     28 H13         9.0240    0.8260    2.4690 hc        1 482      0.098200
     29 H14        10.0560   -1.4550    3.9700 h1        1 482      0.106700
     30 H15         9.6060   -1.4560    2.1830 h1        1 482      0.106700
     31 H72         6.2540    0.2800    5.2140 hn        1 482      0.465300
@<TRIPOS>BOND
     1    1    2 1   
     2    1   16 1   
     3    1   17 1   
     4    1   18 1   
     5    2    3 1   
     6    2   19 1   
     7    2   20 1   
     8    3    4 1   
     9    3   21 1   
    10    3   22 1   
    11    4    5 2   
    12    4    6 1   
    13    6    7 1   
    14    6   23 1   
    15    6   24 1   
    16    7    8 2   
    17    7    9 1   
    18    9   10 1   
    19    9   25 1   
    20    9   31 1   
    21   10   11 1   
    22   10   13 1   
    23   10   26 1   
    24   11   12 1   
    25   11   27 1   
    26   11   28 1   
    27   12   15 1   
    28   12   29 1   
    29   12   30 1   
    30   13   14 2   
    31   13   15 1   
@<TRIPOS>SUBSTRUCTURE
     1 482         1 TEMP              0 ****  ****    0 ROOT
