@<TRIPOS>MOLECULE
482
   31    31     1     0     0
SMALL
bcc


@<TRIPOS>ATOM
      1 C15         1.2460   -0.8220   -0.4770 c3        1 482     -0.100100
      2 C14         2.6330   -0.5020    0.0160 c3        1 482     -0.076400
      3 C13         2.6000   -0.0440    1.4610 c3        1 482     -0.171400
      4 C11         3.9490    0.3440    1.9650 c         1 482      0.602100
      5 O12         4.9450    0.5610    1.2720 o         1 482     -0.531100
      6 C10         4.0460    0.4460    3.4810 c3        1 482     -0.290400
      7 C8          5.0890    1.4310    3.9020 c         1 482      0.572100
      8 O9          5.0290    2.6480    3.9110 o         1 482     -0.387100
      9 N7          6.4140    0.8750    4.4230 n4        1 482     -0.668800
     10 C1          7.1690    0.0910    3.4030 c3        1 482     -0.008500
     11 C5          8.6920    0.3100    3.3930 c3        1 482     -0.130400
     12 C4          9.2820   -1.0970    3.2510 c3        1 482      0.116400
     13 C2          7.0310   -1.4230    3.6370 c         1 482      0.706600
     14 O6          6.0230   -2.0470    3.9350 o         1 482     -0.541500
     15 OAP         8.2240   -2.0560    3.5120 os        1 482     -0.341900
     16 H1          0.7830   -1.6340    0.1340 hc        1 482      0.048033
     17 H2          1.2910   -1.1640   -1.5400 hc        1 482      0.048033
     18 H3          0.5870    0.0790   -0.4260 hc        1 482      0.048033
     19 H4          3.0920    0.3030   -0.6180 hc        1 482      0.060700
     20 H5          3.2900   -1.4070   -0.0730 hc        1 482      0.060700
     21 H6          2.1800   -0.8590    2.1120 hc        1 482      0.089200
     22 H7          1.9230    0.8500    1.5610 hc        1 482      0.089200
     23 H8          4.2400   -0.5930    3.8800 hc        1 482      0.143200
     24 H9          3.0620    0.8040    3.9000 hc        1 482      0.143200
     25 H10         6.9980    1.6630    4.7400 hn        1 482      0.465300
     26 H11         6.7430    0.3370    2.3760 hx        1 482      0.179700
     27 H12         8.9900    0.9530    2.5270 hc        1 482      0.098200
     28 H13         9.0690    0.7970    4.3280 hc        1 482      0.098200
     29 H14         9.6510   -1.3040    2.2130 h1        1 482      0.106700
     30 H15        10.0820   -1.3150    4.0050 h1        1 482      0.106700
     31 H72         6.2100    0.2730    5.2320 hn        1 482      0.465300
@<TRIPOS>BOND
     1    1    2 1   
     2    1   16 1   
     3    1   17 1   
     4    1   18 1   
     5    2    3 1   
     6    2   19 1   
     7    2   20 1   
     8    3    4 1   
     9    3   21 1   
    10    3   22 1   
    11    4    5 2   
    12    4    6 1   
    13    6    7 1   
    14    6   23 1   
    15    6   24 1   
    16    7    8 2   
    17    7    9 1   
    18    9   10 1   
    19    9   25 1   
    20    9   31 1   
    21   10   11 1   
    22   10   13 1   
    23   10   26 1   
    24   11   12 1   
    25   11   27 1   
    26   11   28 1   
    27   12   15 1   
    28   12   29 1   
    29   12   30 1   
    30   13   14 2   
    31   13   15 1   
@<TRIPOS>SUBSTRUCTURE
     1 482         1 TEMP              0 ****  ****    0 ROOT
