@<TRIPOS>MOLECULE
484
   74    76     1     0     0
SMALL
bcc


@<TRIPOS>ATOM
      1 C1          0.1050    0.5990    0.1350 ca        1 484     -0.101000
      2 C2          1.4970    0.4820    0.0790 ca        1 484     -0.092300
      3 C3          2.2140    0.1940    1.2540 ca        1 484     -0.087300
      4 C4          1.5310    0.0300    2.4610 ca        1 484     -0.100000
      5 C5          0.1390    0.1490    2.5140 ca        1 484     -0.081300
      6 C6         -0.5690    0.4340    1.3420 ca        1 484     -0.130000
      7 C48         3.7010    0.0670    1.1860 c3        1 484      0.176700
      8 O49         4.2190   -0.2050    2.4790 oh        1 484     -0.596800
      9 C52         2.2380    0.6550   -1.2060 c3        1 484      0.176700
     10 O53         1.3200    0.9260   -2.2550 oh        1 484     -0.596800
     11 C10        -0.5850   -0.0350    3.8020 c3        1 484     -0.034100
     12 C27        -1.0480    1.2960    4.3750 c3        1 484     -0.033100
     13 C14        -1.7700    1.1130    5.6630 ca        1 484     -0.086300
     14 C17        -3.1560    1.2680    5.7290 ca        1 484     -0.110000
     15 C18        -3.8420    1.1030    6.9400 cp        1 484     -0.041000
     16 C19        -3.1270    0.7830    8.1080 ca        1 484     -0.063300
     17 C20        -1.7370    0.6330    8.0350 ca        1 484     -0.133000
     18 C21        -1.0630    0.7940    6.8290 ca        1 484     -0.122000
     19 C8         -3.8160    0.6190    9.4090 c3        1 484     -0.055800
     20 C7         -5.3030    1.2470    6.9560 cp        1 484     -0.035000
     21 C9         -6.0950    0.0900    7.0110 ca        1 484     -0.119000
     22 C11        -5.9280    2.5030    6.9060 ca        1 484     -0.059300
     23 C12        -7.3270    2.5760    6.9070 ca        1 484     -0.124000
     24 C13        -7.4830    0.1750    7.0060 ca        1 484     -0.129000
     25 C16        -8.1140    1.4240    6.9460 ca        1 484     -0.105300
     26 C15        -5.1460    3.7710    6.8690 c3        1 484     -0.043100
     27 C24        -9.6240    1.5100    6.9340 c3        1 484      0.198100
     28 C25       -10.1670    0.6370    5.7880 c3        1 484     -0.083400
     29 C26       -10.2040    1.0550    8.2820 c3        1 484     -0.083400
     30 O2        -10.0580    2.8590    6.7580 oh        1 484     -0.591800
     31 C28        -9.7560    1.9190    9.4320 c3        1 484     -0.092600
     32 C29       -11.6450    0.8140    5.5580 c3        1 484     -0.092600
     33 C22        -5.2140    4.4370    5.5070 c3        1 484     -0.074400
     34 C23        -4.4650    5.7440    5.5000 c3        1 484     -0.094100
     35 H1         -0.4550    0.8230   -0.7870 ha        1 484      0.153000
     36 H2          2.1020   -0.1970    3.3760 ha        1 484      0.153000
     37 H3         -1.6650    0.5280    1.3740 ha        1 484      0.132000
     38 H4          3.9780   -0.7710    0.4850 h1        1 484      0.029200
     39 H5          4.1470    1.0250    0.7950 h1        1 484      0.029200
     40 H6          5.1740   -0.2850    2.3740 ho        1 484      0.403000
     41 H7          2.8140   -0.2830   -1.4430 h1        1 484      0.028700
     42 H8          2.9660    1.5100   -1.1130 h1        1 484      0.028700
     43 H9          1.8490    1.0260   -3.0550 ho        1 484      0.402000
     44 H10        -1.4760   -0.6990    3.6370 hc        1 484      0.052700
     45 H11         0.0780   -0.5480    4.5490 hc        1 484      0.052700
     46 H12        -0.1560    1.9590    4.5380 hc        1 484      0.052200
     47 H13        -1.7110    1.8080    3.6270 hc        1 484      0.052200
     48 H14        -3.7230    1.5250    4.8210 ha        1 484      0.136000
     49 H15        -1.1710    0.3830    8.9460 ha        1 484      0.132000
     50 H16         0.0300    0.6720    6.7870 ha        1 484      0.133000
     51 H17        -4.0630    1.6220    9.8400 hc        1 484      0.047033
     52 H18        -3.1720    0.0710   10.1410 hc        1 484      0.047033
     53 H19        -4.7720    0.0520    9.2800 hc        1 484      0.047033
     54 H20        -5.6070   -0.8960    7.0570 ha        1 484      0.137000
     55 H21        -7.8100    3.5670    6.8900 ha        1 484      0.143000
     56 H22        -8.0830   -0.7460    7.0550 ha        1 484      0.132000
     57 H23        -4.0710    3.5710    7.1300 hc        1 484      0.054700
     58 H24        -5.5510    4.4740    7.6460 hc        1 484      0.054700
     59 H25        -9.9460   -0.4370    6.0180 hc        1 484      0.046700
     60 H26        -9.6110    0.9020    4.8500 hc        1 484      0.046700
     61 H27       -11.3230    1.0850    8.2090 hc        1 484      0.046700
     62 H28        -9.8910   -0.0080    8.4500 hc        1 484      0.046700
     63 H29        -9.8020    3.1200    5.8650 ho        1 484      0.400000
     64 H30       -10.0710    2.9780    9.2650 hc        1 484      0.039367
     65 H31        -8.6440    1.8960    9.5330 hc        1 484      0.039367
     66 H32       -10.2100    1.5540   10.3850 hc        1 484      0.039367
     67 H33       -12.2360    0.3530    6.3860 hc        1 484      0.039367
     68 H34       -11.9090    1.8980    5.5020 hc        1 484      0.039367
     69 H35       -11.9440    0.3230    4.6000 hc        1 484      0.039367
     70 H36        -4.7800    3.7480    4.7350 hc        1 484      0.040200
     71 H37        -6.2870    4.6120    5.2310 hc        1 484      0.040200
     72 H38        -3.3900    5.5840    5.7560 hc        1 484      0.034033
     73 H39        -4.9000    6.4530    6.2450 hc        1 484      0.034033
     74 H40        -4.5210    6.2160    4.4890 hc        1 484      0.034033
@<TRIPOS>BOND
     1    1    2 ar  
     2    1    6 ar  
     3    1   35 1   
     4    2    3 ar  
     5    2    9 1   
     6    3    4 ar  
     7    3    7 1   
     8    4    5 ar  
     9    4   36 1   
    10    5    6 ar  
    11    5   11 1   
    12    6   37 1   
    13    7    8 1   
    14    7   38 1   
    15    7   39 1   
    16    8   40 1   
    17    9   10 1   
    18    9   41 1   
    19    9   42 1   
    20   10   43 1   
    21   11   12 1   
    22   11   44 1   
    23   11   45 1   
    24   12   13 1   
    25   12   46 1   
    26   12   47 1   
    27   13   14 ar  
    28   13   18 ar  
    29   14   15 ar  
    30   14   48 1   
    31   15   16 ar  
    32   15   20 1   
    33   16   17 ar  
    34   16   19 1   
    35   17   18 ar  
    36   17   49 1   
    37   18   50 1   
    38   19   51 1   
    39   19   52 1   
    40   19   53 1   
    41   20   21 ar  
    42   20   22 ar  
    43   21   24 ar  
    44   21   54 1   
    45   22   23 ar  
    46   22   26 1   
    47   23   25 ar  
    48   23   55 1   
    49   24   25 ar  
    50   24   56 1   
    51   25   27 1   
    52   26   33 1   
    53   26   57 1   
    54   26   58 1   
    55   27   28 1   
    56   27   29 1   
    57   27   30 1   
    58   28   32 1   
    59   28   59 1   
    60   28   60 1   
    61   29   31 1   
    62   29   61 1   
    63   29   62 1   
    64   30   63 1   
    65   31   64 1   
    66   31   65 1   
    67   31   66 1   
    68   32   67 1   
    69   32   68 1   
    70   32   69 1   
    71   33   34 1   
    72   33   70 1   
    73   33   71 1   
    74   34   72 1   
    75   34   73 1   
    76   34   74 1   
@<TRIPOS>SUBSTRUCTURE
     1 484         1 TEMP              0 ****  ****    0 ROOT
