@<TRIPOS>MOLECULE
484
   74    76     1     0     0
SMALL
bcc


@<TRIPOS>ATOM
      1 C1         -5.7330    2.1920   -0.4180 ca        1 484     -0.101000
      2 C2         -6.9540    1.5240   -0.2940 ca        1 484     -0.092300
      3 C3         -6.9820    0.2340    0.2650 ca        1 484     -0.087300
      4 C4         -5.7940   -0.3650    0.6880 ca        1 484     -0.100000
      5 C5         -4.5730    0.3060    0.5630 ca        1 484     -0.081300
      6 C6         -4.5520    1.5900    0.0070 ca        1 484     -0.130000
      7 C48        -8.2910   -0.4730    0.3960 c3        1 484      0.176700
      8 O49        -8.0870   -1.7600    0.9620 oh        1 484     -0.596800
      9 C52        -8.2300    2.1540   -0.7450 c3        1 484      0.176700
     10 O53        -7.9690    3.4510   -1.2590 oh        1 484     -0.596800
     11 C10        -3.3110   -0.3330    1.0240 c3        1 484     -0.034100
     12 C27        -2.4700   -0.8140   -0.1480 c3        1 484     -0.033100
     13 C14        -1.2080   -1.4560    0.3120 ca        1 484     -0.086300
     14 C17         0.0170   -0.8000    0.1690 ca        1 484     -0.111000
     15 C18         1.2090   -1.4040    0.5880 cp        1 484     -0.041000
     16 C19         1.1760   -2.6850    1.1670 ca        1 484     -0.063300
     17 C20        -0.0550   -3.3360    1.3080 ca        1 484     -0.132000
     18 C21        -1.2350   -2.7320    0.8860 ca        1 484     -0.122000
     19 C8          2.4190   -3.3430    1.6330 c3        1 484     -0.056800
     20 C7          2.4700   -0.6660    0.4360 cp        1 484     -0.036000
     21 C9          2.7700    0.3440    1.3620 ca        1 484     -0.118000
     22 C11         3.3710   -0.9290   -0.6070 ca        1 484     -0.060300
     23 C12         4.5520   -0.1800   -0.7010 ca        1 484     -0.124000
     24 C13         3.9430    1.0820    1.2580 ca        1 484     -0.129000
     25 C16         4.8460    0.8300    0.2160 ca        1 484     -0.105300
     26 C15         3.1190   -1.9960   -1.6170 c3        1 484     -0.044100
     27 C24         6.1180    1.6400    0.1020 c3        1 484      0.198100
     28 C25         5.7580    3.1370    0.0790 c3        1 484     -0.083400
     29 C26         7.0650    1.3300    1.2720 c3        1 484     -0.083400
     30 O2          6.8370    1.3000   -1.0830 oh        1 484     -0.591800
     31 C28         7.5010   -0.1110    1.3040 c3        1 484     -0.092600
     32 C29         6.9340    4.0240   -0.2370 c3        1 484     -0.092600
     33 C22         2.8310   -1.4210   -2.9910 c3        1 484     -0.074400
     34 C23         2.6160   -2.5140   -4.0060 c3        1 484     -0.094100
     35 H1         -5.7130    3.2040   -0.8550 ha        1 484      0.153000
     36 H2         -5.8260   -1.3760    1.1260 ha        1 484      0.153000
     37 H3         -3.5960    2.1260   -0.0930 ha        1 484      0.132000
     38 H4         -8.9810    0.1240    1.0570 h1        1 484      0.029200
     39 H5         -8.7700   -0.5800   -0.6180 h1        1 484      0.029200
     40 H6         -8.9600   -2.1640    1.0300 ho        1 484      0.403000
     41 H7         -8.7050    1.5200   -1.5460 h1        1 484      0.028700
     42 H8         -8.9450    2.2290    0.1230 h1        1 484      0.028700
     43 H9         -8.8220    3.8080   -1.5320 ho        1 484      0.402000
     44 H10        -2.7180    0.4060    1.6280 hc        1 484      0.052700
     45 H11        -3.5400   -1.2040    1.6960 hc        1 484      0.052700
     46 H12        -3.0640   -1.5520   -0.7520 hc        1 484      0.052700
     47 H13        -2.2400    0.0570   -0.8190 hc        1 484      0.052700
     48 H14         0.0510    0.2040   -0.2820 ha        1 484      0.136000
     49 H15        -0.0880   -4.3390    1.7600 ha        1 484      0.132000
     50 H16        -2.1950   -3.2570    1.0030 ha        1 484      0.133000
     51 H17         2.7930   -2.8430    2.5620 hc        1 484      0.047367
     52 H18         2.2470   -4.4230    1.8580 hc        1 484      0.047367
     53 H19         3.2170   -3.2630    0.8510 hc        1 484      0.047367
     54 H20         2.0650    0.5500    2.1820 ha        1 484      0.137000
     55 H21         5.2660   -0.4090   -1.5090 ha        1 484      0.143000
     56 H22         4.1620    1.8630    2.0020 ha        1 484      0.132000
     57 H23         4.0230   -2.6630   -1.6760 hc        1 484      0.054700
     58 H24         2.2550   -2.6380   -1.2960 hc        1 484      0.054700
     59 H25         4.9570    3.2940   -0.6910 hc        1 484      0.046700
     60 H26         5.3280    3.4200    1.0740 hc        1 484      0.046700
     61 H27         7.9670    1.9890    1.1740 hc        1 484      0.046700
     62 H28         6.5360    1.5970    2.2230 hc        1 484      0.046700
     63 H29         6.3030    1.5990   -1.8290 ho        1 484      0.400000
     64 H30         8.0290   -0.3760    0.3550 hc        1 484      0.039367
     65 H31         8.1940   -0.2830    2.1620 hc        1 484      0.039367
     66 H32         6.6190   -0.7880    1.4140 hc        1 484      0.039367
     67 H33         7.6500    4.0590    0.6190 hc        1 484      0.039367
     68 H34         7.4820    3.6470   -1.1350 hc        1 484      0.039367
     69 H35         6.5830    5.0650   -0.4430 hc        1 484      0.039367
     70 H36         1.9200   -0.7690   -2.9390 hc        1 484      0.041700
     71 H37         3.6880   -0.7700   -3.3100 hc        1 484      0.041700
     72 H38         2.4040   -2.0730   -5.0100 hc        1 484      0.033700
     73 H39         3.5240   -3.1600   -4.0890 hc        1 484      0.033700
     74 H40         1.7530   -3.1590   -3.7140 hc        1 484      0.033700
@<TRIPOS>BOND
     1    1    2 ar  
     2    1    6 ar  
     3    1   35 1   
     4    2    3 ar  
     5    2    9 1   
     6    3    4 ar  
     7    3    7 1   
     8    4    5 ar  
     9    4   36 1   
    10    5    6 ar  
    11    5   11 1   
    12    6   37 1   
    13    7    8 1   
    14    7   38 1   
    15    7   39 1   
    16    8   40 1   
    17    9   10 1   
    18    9   41 1   
    19    9   42 1   
    20   10   43 1   
    21   11   12 1   
    22   11   44 1   
    23   11   45 1   
    24   12   13 1   
    25   12   46 1   
    26   12   47 1   
    27   13   14 ar  
    28   13   18 ar  
    29   14   15 ar  
    30   14   48 1   
    31   15   16 ar  
    32   15   20 1   
    33   16   17 ar  
    34   16   19 1   
    35   17   18 ar  
    36   17   49 1   
    37   18   50 1   
    38   19   51 1   
    39   19   52 1   
    40   19   53 1   
    41   20   21 ar  
    42   20   22 ar  
    43   21   24 ar  
    44   21   54 1   
    45   22   23 ar  
    46   22   26 1   
    47   23   25 ar  
    48   23   55 1   
    49   24   25 ar  
    50   24   56 1   
    51   25   27 1   
    52   26   33 1   
    53   26   57 1   
    54   26   58 1   
    55   27   28 1   
    56   27   29 1   
    57   27   30 1   
    58   28   32 1   
    59   28   59 1   
    60   28   60 1   
    61   29   31 1   
    62   29   61 1   
    63   29   62 1   
    64   30   63 1   
    65   31   64 1   
    66   31   65 1   
    67   31   66 1   
    68   32   67 1   
    69   32   68 1   
    70   32   69 1   
    71   33   34 1   
    72   33   70 1   
    73   33   71 1   
    74   34   72 1   
    75   34   73 1   
    76   34   74 1   
@<TRIPOS>SUBSTRUCTURE
     1 484         1 TEMP              0 ****  ****    0 ROOT
