@<TRIPOS>MOLECULE
484
   74    66     1     0     0
SMALL
bcc


@<TRIPOS>ATOM
      1 C1          5.1580   -1.2130   -4.8830 c1        1 484     -0.120500
      2 C2          6.4650   -0.8700   -4.6640 c1        1 484     -0.094000
      3 C3          6.9190   -0.6400   -3.3560 c1        1 484     -0.094000
      4 C4          6.0410   -0.7620   -2.2840 c1        1 484     -0.121000
      5 C5          4.7270   -1.1070   -2.5030 c1        1 484     -0.078500
      6 C6          4.2760   -1.3350   -3.8050 c1        1 484     -0.120500
      7 C48         8.3510   -0.1900   -3.1190 c3        1 484      0.012000
      8 O49         9.1510   -1.3250   -2.7600 oh        1 484     -0.329500
      9 C52         7.4450   -0.7380   -5.8580 c3        1 484      0.012000
     10 O53         6.7210   -0.9280   -7.1120 oh        1 484     -0.329500
     11 C10         3.7690   -1.3480   -1.2830 c3        1 484     -0.119000
     12 C27         2.8010   -0.1620   -1.1520 c3        1 484     -0.119000
     13 C14         2.0540   -0.2520    0.1950 c1        1 484     -0.078500
     14 C17         0.6790   -0.1560    0.2270 c1        1 484     -0.110000
     15 C18        -0.0030   -0.2820    1.4390 c1        1 484     -0.038000
     16 C19         0.7090   -0.5070    2.6210 c2        1 484     -0.055000
     17 C20         2.0860   -0.6030    2.5890 c1        1 484     -0.132000
     18 C21         2.7680   -0.4760    1.3770 c1        1 484     -0.121000
     19 C8         -0.0450   -0.7380    3.9350 c3        1 484     -0.182000
     20 C7         -1.5260   -0.2720    1.4580 c1        1 484     -0.038000
     21 C9         -2.2330   -1.4370    1.1830 c1        1 484     -0.120500
     22 C11        -2.2150    0.9150    1.7630 c1        1 484     -0.057000
     23 C12        -3.6170    0.9240    1.7900 c1        1 484     -0.103000
     24 C13        -3.6410   -1.4270    1.2110 c1        1 484     -0.120500
     25 C16        -4.3290   -0.2350    1.5180 c1        1 484     -0.068000
     26 C15        -1.4190    2.1860    2.2260 c3        1 484     -0.128000
     27 C24        -5.9230   -0.1780    1.4250 c2        1 484      0.125000
     28 C25        -6.3610   -0.3600   -0.0450 c3        1 484     -0.184000
     29 C26        -6.5460   -1.3150    2.2980 c3        1 484     -0.184000
     30 O2         -6.3850    1.1100    1.9130 oh        1 484     -0.325000
     31 C28        -7.5040   -0.6800    3.3870 c3        1 484     -0.215500
     32 C29        -7.7650    0.3610   -0.2700 c3        1 484     -0.215500
     33 C22        -1.9620    3.4020    1.5260 c3        1 484     -0.154000
     34 C23        -1.6950    4.6230    2.3640 c3        1 484     -0.211000
     35 H1          4.8590   -1.3640   -5.7500 ha        1 484      0.139000
     36 H2          6.3630   -0.5990   -1.3590 ha        1 484      0.130000
     37 H3          3.3530   -1.5770   -3.9600 ha        1 484      0.139000
     38 H4          8.3710    0.4630   -2.3970 h1        1 484      0.087250
     39 H5          8.7110    0.2220   -3.9480 h1        1 484      0.087250
     40 H6          9.9530   -1.0610   -2.5550 ho        1 484      0.203500
     41 H7          7.8550    0.1610   -5.8490 h1        1 484      0.087250
     42 H8          8.1730   -1.4440   -5.7780 h1        1 484      0.087250
     43 H9          7.3090   -1.0130   -7.7870 ho        1 484      0.203500
     44 H10         4.3030   -1.4260   -0.4630 hc        1 484      0.091750
     45 H11         3.2800   -2.1420   -1.4170 hc        1 484      0.091750
     46 H12         3.2920    0.6530   -1.1870 hc        1 484      0.091750
     47 H13         2.1660   -0.1840   -1.8720 hc        1 484      0.091750
     48 H14         0.1870   -0.0010   -0.5910 ha        1 484      0.137000
     49 H15         2.5730   -0.7560    3.3980 ha        1 484      0.131000
     50 H16         3.7520   -0.5450    1.3560 ha        1 484      0.130000
     51 H17        -0.9830   -0.8700    3.7500 hc        1 484      0.087000
     52 H18         0.3160   -1.5340    4.3830 hc        1 484      0.087000
     53 H19         0.0650    0.0410    4.5160 hc        1 484      0.087000
     54 H20        -1.7290   -2.3040    0.9600 ha        1 484      0.139000
     55 H21        -4.0720    1.7120    1.9930 ha        1 484      0.156000
     56 H22        -4.1620   -2.2800    1.0100 ha        1 484      0.139000
     57 H23        -1.5160    2.2970    3.1940 hc        1 484      0.092500
     58 H24        -0.5020    2.0810    2.0110 hc        1 484      0.092500
     59 H25        -5.6670    0.0490   -0.6580 hc        1 484      0.092500
     60 H26        -6.4480   -1.3090   -0.2430 hc        1 484      0.092500
     61 H27        -7.0910   -1.9550    1.6950 hc        1 484      0.092500
     62 H28        -5.8210   -1.8220    2.7500 hc        1 484      0.092500
     63 H29        -7.2700    1.1740    1.7990 ho        1 484      0.204000
     64 H30        -6.9470   -0.2200    4.1070 hc        1 484      0.076000
     65 H31        -8.0760   -0.0450    2.9730 hc        1 484      0.076000
     66 H32        -8.0320   -1.3730    3.7880 hc        1 484      0.076000
     67 H33        -7.9450    0.4210   -1.1950 hc        1 484      0.076000
     68 H34        -8.4750   -0.1600    0.1700 hc        1 484      0.076000
     69 H35        -7.7360    1.2550    0.1120 hc        1 484      0.076000
     70 H36        -2.9280    3.3000    1.3930 hc        1 484      0.083000
     71 H37        -1.5180    3.5010    0.6510 hc        1 484      0.083000
     72 H38        -2.2220    4.5690    3.2080 hc        1 484      0.072000
     73 H39        -0.7320    4.6690    2.5800 hc        1 484      0.072000
     74 H40        -1.9590    5.4320    1.8630 hc        1 484      0.072000
@<TRIPOS>BOND
     1    1    6 1   
     2    1   35 1   
     3    2    3 1   
     4    2    9 1   
     5    3    7 1   
     6    4    5 1   
     7    4   36 1   
     8    5   11 1   
     9    6   37 1   
    10    7    8 1   
    11    7   38 1   
    12    7   39 1   
    13    8   40 1   
    14    9   10 1   
    15    9   41 1   
    16    9   42 1   
    17   10   43 1   
    18   11   12 1   
    19   11   44 1   
    20   11   45 1   
    21   12   13 1   
    22   12   46 1   
    23   12   47 1   
    24   13   18 1   
    25   14   15 1   
    26   14   48 1   
    27   15   16 1   
    28   16   17 1   
    29   16   19 1   
    30   17   49 1   
    31   18   50 1   
    32   19   51 1   
    33   19   52 1   
    34   19   53 1   
    35   20   22 1   
    36   21   24 1   
    37   21   54 1   
    38   22   26 1   
    39   23   25 1   
    40   23   55 1   
    41   24   56 1   
    42   26   33 1   
    43   26   57 1   
    44   26   58 1   
    45   27   28 1   
    46   27   29 1   
    47   27   30 1   
    48   28   32 1   
    49   28   59 1   
    50   28   60 1   
    51   29   31 1   
    52   29   61 1   
    53   29   62 1   
    54   30   63 1   
    55   31   64 1   
    56   31   65 1   
    57   31   66 1   
    58   32   67 1   
    59   32   68 1   
    60   32   69 1   
    61   33   34 1   
    62   33   70 1   
    63   33   71 1   
    64   34   72 1   
    65   34   73 1   
    66   34   74 1   
@<TRIPOS>SUBSTRUCTURE
     1 484         1 TEMP              0 ****  ****    0 ROOT
