@<TRIPOS>MOLECULE
484
   74    76     1     0     0
SMALL
bcc


@<TRIPOS>ATOM
      1 C1          0.1040    0.6120    0.1330 ca        1 484     -0.101000
      2 C2          1.4940    0.4850    0.0760 ca        1 484     -0.092300
      3 C3          2.2100    0.1850    1.2490 ca        1 484     -0.087300
      4 C4          1.5260    0.0190    2.4550 ca        1 484     -0.100000
      5 C5          0.1340    0.1470    2.5100 ca        1 484     -0.081300
      6 C6         -0.5720    0.4450    1.3390 ca        1 484     -0.130000
      7 C48         3.6950    0.0480    1.1800 c3        1 484      0.176700
      8 O49         4.2120   -0.2350    2.4720 oh        1 484     -0.596800
      9 C52         2.2360    0.6610   -1.2080 c3        1 484      0.176700
     10 O53         1.3200    0.9450   -2.2550 oh        1 484     -0.596800
     11 C10        -0.5910   -0.0400    3.7960 c3        1 484     -0.034100
     12 C27        -1.0470    1.2910    4.3750 c3        1 484     -0.033100
     13 C14        -1.7700    1.1060    5.6630 ca        1 484     -0.086300
     14 C17        -3.1560    1.2640    5.7300 ca        1 484     -0.110000
     15 C18        -3.8420    1.0970    6.9400 cp        1 484     -0.041000
     16 C19        -3.1290    0.7700    8.1060 ca        1 484     -0.063300
     17 C20        -1.7390    0.6160    8.0330 ca        1 484     -0.133000
     18 C21        -1.0640    0.7800    6.8280 ca        1 484     -0.122000
     19 C8         -3.8180    0.6030    9.4070 c3        1 484     -0.055800
     20 C7         -5.3030    1.2450    6.9560 cp        1 484     -0.035000
     21 C9         -6.0990    0.0900    7.0070 ca        1 484     -0.119000
     22 C11        -5.9240    2.5030    6.9100 ca        1 484     -0.059300
     23 C12        -7.3230    2.5800    6.9100 ca        1 484     -0.124000
     24 C13        -7.4860    0.1790    7.0020 ca        1 484     -0.129000
     25 C16        -8.1140    1.4300    6.9460 ca        1 484     -0.105300
     26 C15        -5.1380    3.7690    6.8780 c3        1 484     -0.043100
     27 C24        -9.6230    1.5210    6.9350 c3        1 484      0.198100
     28 C25       -10.1690    0.6530    5.7850 c3        1 484     -0.083400
     29 C26       -10.2040    1.0630    8.2810 c3        1 484     -0.083400
     30 O2        -10.0530    2.8720    6.7630 oh        1 484     -0.591800
     31 C28        -9.7550    1.9220    9.4330 c3        1 484     -0.092600
     32 C29       -11.6460    0.8350    5.5560 c3        1 484     -0.092600
     33 C22        -5.2050    4.4400    5.5180 c3        1 484     -0.074400
     34 C23        -4.4520    5.7450    5.5150 c3        1 484     -0.094100
     35 H1         -0.4560    0.8460   -0.7870 ha        1 484      0.153000
     36 H2          2.0950   -0.2180    3.3690 ha        1 484      0.153000
     37 H3         -1.6670    0.5450    1.3720 ha        1 484      0.132000
     38 H4          3.9670   -0.7870    0.4740 h1        1 484      0.029200
     39 H5          4.1480    1.0050    0.7950 h1        1 484      0.029200
     40 H6          5.1670   -0.3210    2.3660 ho        1 484      0.403000
     41 H7          2.8060   -0.2800   -1.4500 h1        1 484      0.028700
     42 H8          2.9700    1.5100   -1.1090 h1        1 484      0.028700
     43 H9          1.8500    1.0460   -3.0540 ho        1 484      0.402000
     44 H10        -1.4850   -0.6980    3.6280 hc        1 484      0.052700
     45 H11         0.0700   -0.5590    4.5410 hc        1 484      0.052700
     46 H12        -0.1520    1.9490    4.5420 hc        1 484      0.052200
     47 H13        -1.7080    1.8100    3.6300 hc        1 484      0.052200
     48 H14        -3.7220    1.5270    4.8220 ha        1 484      0.136000
     49 H15        -1.1750    0.3610    8.9430 ha        1 484      0.132000
     50 H16         0.0280    0.6540    6.7850 ha        1 484      0.133000
     51 H17        -4.0620    1.6050    9.8410 hc        1 484      0.047033
     52 H18        -3.1760    0.0510   10.1360 hc        1 484      0.047033
     53 H19        -4.7760    0.0390    9.2760 hc        1 484      0.047033
     54 H20        -5.6140   -0.8970    7.0500 ha        1 484      0.137000
     55 H21        -7.8030    3.5730    6.8970 ha        1 484      0.143000
     56 H22        -8.0890   -0.7400    7.0480 ha        1 484      0.132000
     57 H23        -4.0640    3.5650    7.1370 hc        1 484      0.054700
     58 H24        -5.5420    4.4710    7.6570 hc        1 484      0.054700
     59 H25        -9.9510   -0.4220    6.0120 hc        1 484      0.046700
     60 H26        -9.6110    0.9200    4.8480 hc        1 484      0.046700
     61 H27       -11.3230    1.0970    8.2070 hc        1 484      0.046700
     62 H28        -9.8950   -0.0010    8.4450 hc        1 484      0.046700
     63 H29        -9.7970    3.1350    5.8710 ho        1 484      0.400000
     64 H30       -10.0660    2.9820    9.2700 hc        1 484      0.039367
     65 H31        -8.6430    1.8950    9.5350 hc        1 484      0.039367
     66 H32       -10.2100    1.5560   10.3850 hc        1 484      0.039367
     67 H33       -12.2390    0.3740    6.3820 hc        1 484      0.039367
     68 H34       -11.9070    1.9210    5.5040 hc        1 484      0.039367
     69 H35       -11.9470    0.3480    4.5960 hc        1 484      0.039367
     70 H36        -4.7730    3.7520    4.7440 hc        1 484      0.040200
     71 H37        -6.2780    4.6200    5.2430 hc        1 484      0.040200
     72 H38        -3.3770    5.5810    5.7700 hc        1 484      0.034033
     73 H39        -4.8850    6.4530    6.2630 hc        1 484      0.034033
     74 H40        -4.5070    6.2210    4.5060 hc        1 484      0.034033
@<TRIPOS>BOND
     1    1    2 ar  
     2    1    6 ar  
     3    1   35 1   
     4    2    3 ar  
     5    2    9 1   
     6    3    4 ar  
     7    3    7 1   
     8    4    5 ar  
     9    4   36 1   
    10    5    6 ar  
    11    5   11 1   
    12    6   37 1   
    13    7    8 1   
    14    7   38 1   
    15    7   39 1   
    16    8   40 1   
    17    9   10 1   
    18    9   41 1   
    19    9   42 1   
    20   10   43 1   
    21   11   12 1   
    22   11   44 1   
    23   11   45 1   
    24   12   13 1   
    25   12   46 1   
    26   12   47 1   
    27   13   14 ar  
    28   13   18 ar  
    29   14   15 ar  
    30   14   48 1   
    31   15   16 ar  
    32   15   20 1   
    33   16   17 ar  
    34   16   19 1   
    35   17   18 ar  
    36   17   49 1   
    37   18   50 1   
    38   19   51 1   
    39   19   52 1   
    40   19   53 1   
    41   20   21 ar  
    42   20   22 ar  
    43   21   24 ar  
    44   21   54 1   
    45   22   23 ar  
    46   22   26 1   
    47   23   25 ar  
    48   23   55 1   
    49   24   25 ar  
    50   24   56 1   
    51   25   27 1   
    52   26   33 1   
    53   26   57 1   
    54   26   58 1   
    55   27   28 1   
    56   27   29 1   
    57   27   30 1   
    58   28   32 1   
    59   28   59 1   
    60   28   60 1   
    61   29   31 1   
    62   29   61 1   
    63   29   62 1   
    64   30   63 1   
    65   31   64 1   
    66   31   65 1   
    67   31   66 1   
    68   32   67 1   
    69   32   68 1   
    70   32   69 1   
    71   33   34 1   
    72   33   70 1   
    73   33   71 1   
    74   34   72 1   
    75   34   73 1   
    76   34   74 1   
@<TRIPOS>SUBSTRUCTURE
     1 484         1 TEMP              0 ****  ****    0 ROOT
