@<TRIPOS>MOLECULE
485
   52    53     1     0     0
SMALL
bcc


@<TRIPOS>ATOM
      1 O1         -0.0250    0.3790   -0.0110 oh        1 485     -0.471100
      2 C2          1.3320    0.2200    0.0000 ca        1 485      0.168100
      3 C3          2.1390    0.5770    1.0930 ca        1 485     -0.181000
      4 C4          3.5130    0.3730    1.0220 ca        1 485     -0.086500
      5 C5          4.0910   -0.1920   -0.1210 ca        1 485     -0.220300
      6 C6          3.2760   -0.5340   -1.2110 ca        1 485     -0.086500
      7 C7          1.9040   -0.3410   -1.1610 ca        1 485     -0.181000
      8 C8          5.5640   -0.3630   -0.2070 c3        1 485     -0.042100
      9 C9          5.9710   -1.8420   -0.0940 c3        1 485      0.035500
     10 N10         5.3240   -2.4990    1.0910 n4        1 485     -0.835600
     11 C11         7.5150   -1.9470    0.0380 c         1 485      0.651100
     12 O12         7.9980   -2.3290    1.1240 o         1 485     -0.586100
     13 N13         8.2490   -1.5950   -1.0540 n         1 485     -0.522900
     14 C14         9.6960   -1.5850   -1.0380 c3        1 485      0.010700
     15 C15        10.2240   -0.1660   -0.7970 c         1 485      0.605100
     16 O16        10.1040    0.7900   -1.7550 oh        1 485     -0.569100
     17 O17        10.7460    0.2100    0.2470 o         1 485     -0.449000
     18 C18        10.3260   -2.1620   -2.3280 c3        1 485      0.127100
     19 C19        10.1170   -3.6820   -2.4220 c3        1 485      0.128100
     20 C20        10.7070   -4.1890   -3.7500 c3        1 485      0.063100
     21 C21        10.0640   -3.4260   -4.9210 c3        1 485      0.088100
     22 C22        10.2340   -1.9140   -4.7070 c3        1 485      0.157100
     23 O23         9.7100   -1.5060   -3.4340 os        1 485     -0.450600
     24 O24        10.7670   -4.2610   -1.3090 oh        1 485     -0.596800
     25 O25        10.3650   -5.5650   -3.8210 oh        1 485     -0.606800
     26 O26         8.6780   -3.7130   -5.0070 oh        1 485     -0.591800
     27 C27         9.4860   -1.1030   -5.7450 c3        1 485     -0.094100
     28 H1         -0.2940    0.8390    0.8000 ho        1 485      0.440000
     29 H3          1.6900    1.0340    1.9880 ha        1 485      0.166500
     30 H4          4.1480    0.6910    1.8650 ha        1 485      0.141500
     31 H6          3.7310   -0.9440   -2.1270 ha        1 485      0.141500
     32 H7          1.2550   -0.5990   -2.0120 ha        1 485      0.166500
     33 H81         5.9350    0.0110   -1.2020 hc        1 485      0.096700
     34 H82         6.0830    0.2360    0.5890 hc        1 485      0.096700
     35 H9          5.6180   -2.3990   -1.0120 hx        1 485      0.120700
     36 H101        5.1930   -3.4960    0.9120 hn        1 485      0.472133
     37 H102        4.4160   -2.0510    1.2770 hn        1 485      0.472133
     38 H13         9.7840    0.4090   -2.5880 ho        1 485      0.447000
     39 H14        10.0630   -2.2320   -0.1740 h1        1 485      0.156700
     40 H18        11.4300   -1.9310   -2.3070 h1        1 485      0.088700
     41 H19         9.0190   -3.9330   -2.4020 h1        1 485      0.059700
     42 H20        11.8220   -4.0530   -3.7570 h1        1 485      0.071700
     43 H21        10.5640   -3.7200   -5.8860 h1        1 485      0.060700
     44 H2         11.3360   -1.6790   -4.7280 h1        1 485      0.057700
     45 H24        10.7910   -5.2160   -1.4650 ho        1 485      0.436000
     46 H25        10.9380   -5.9680   -4.4850 ho        1 485      0.425000
     47 H26         8.5960   -4.6780   -4.9980 ho        1 485      0.421000
     48 H271        9.9310   -1.2980   -6.7500 hc        1 485      0.061033
     49 H272        9.5640   -0.0150   -5.5110 hc        1 485      0.061033
     50 H273        8.4090   -1.3970   -5.7620 hc        1 485      0.061033
     51 H103        5.9420   -2.3930    1.9140 hn        1 485      0.472133
     52 H132        7.8070   -1.3560   -1.9140 hn        1 485      0.344500
@<TRIPOS>BOND
     1    1    2 1   
     2    1   28 1   
     3    2    3 ar  
     4    2    7 ar  
     5    3    4 ar  
     6    3   29 1   
     7    4    5 ar  
     8    4   30 1   
     9    5    6 ar  
    10    5    8 1   
    11    6    7 ar  
    12    6   31 1   
    13    7   32 1   
    14    8    9 1   
    15    8   33 1   
    16    8   34 1   
    17    9   10 1   
    18    9   11 1   
    19    9   35 1   
    20   10   36 1   
    21   10   37 1   
    22   10   51 1   
    23   11   12 2   
    24   11   13 1   
    25   13   14 1   
    26   13   52 1   
    27   14   15 1   
    28   14   18 1   
    29   14   39 1   
    30   15   16 1   
    31   15   17 2   
    32   16   38 1   
    33   18   19 1   
    34   18   23 1   
    35   18   40 1   
    36   19   20 1   
    37   19   24 1   
    38   19   41 1   
    39   20   21 1   
    40   20   25 1   
    41   20   42 1   
    42   21   22 1   
    43   21   26 1   
    44   21   43 1   
    45   22   23 1   
    46   22   27 1   
    47   22   44 1   
    48   24   45 1   
    49   25   46 1   
    50   26   47 1   
    51   27   48 1   
    52   27   49 1   
    53   27   50 1   
@<TRIPOS>SUBSTRUCTURE
     1 485         1 TEMP              0 ****  ****    0 ROOT
