@<TRIPOS>MOLECULE
485
   52    53     1     0     0
SMALL
bcc


@<TRIPOS>ATOM
      1 O1          0.0090    0.5450   -0.0350 oh        1 485     -0.471100
      2 C2          1.3630    0.3650   -0.0210 ca        1 485      0.168100
      3 C3          2.1740    0.7180    1.0690 ca        1 485     -0.181000
      4 C4          3.5450    0.4910    1.0010 ca        1 485     -0.086500
      5 C5          4.1150   -0.0930   -0.1370 ca        1 485     -0.220300
      6 C6          3.2950   -0.4310   -1.2250 ca        1 485     -0.086500
      7 C7          1.9260   -0.2140   -1.1770 ca        1 485     -0.181000
      8 C8          5.5850   -0.2880   -0.2210 c3        1 485     -0.042100
      9 C9          5.9680   -1.7720   -0.0950 c3        1 485      0.035500
     10 N10         5.3100   -2.4090    1.0960 nz        1 485     -0.835600
     11 C11         7.5100   -1.9010    0.0400 c         1 485      0.651100
     12 O12         7.9860   -2.2810    1.1290 o         1 485     -0.586100
     13 N13         8.2500   -1.5700   -1.0550 ns        1 485     -0.522900
     14 C14         9.6970   -1.5840   -1.0370 c3        1 485      0.009700
     15 C15        10.2480   -0.1710   -0.8090 c         1 485      0.605100
     16 O16        10.1440    0.7780   -1.7760 oh        1 485     -0.569100
     17 O17        10.7760    0.2060    0.2320 o         1 485     -0.449000
     18 C18        10.3190   -2.1830   -2.3210 c3        1 485      0.127100
     19 C19        10.0840   -3.6990   -2.4020 c3        1 485      0.128100
     20 C20        10.6670   -4.2280   -3.7250 c3        1 485      0.063100
     21 C21        10.0380   -3.4650   -4.9030 c3        1 485      0.088100
     22 C22        10.2320   -1.9550   -4.7030 c3        1 485      0.157100
     23 O23         9.7140   -1.5270   -3.4340 os        1 485     -0.450600
     24 O24        10.7240   -4.2790   -1.2840 oh        1 485     -0.596800
     25 O25        10.3030   -5.5990   -3.7840 oh        1 485     -0.606800
     26 O26         8.6480   -3.7300   -4.9890 oh        1 485     -0.591800
     27 C27         9.4990   -1.1410   -5.7500 c3        1 485     -0.094100
     28 H1         -0.2530    1.0170    0.7730 ho        1 485      0.440000
     29 H3          1.7330    1.1890    1.9610 ha        1 485      0.166500
     30 H4          4.1850    0.8060    1.8420 ha        1 485      0.141500
     31 H6          3.7430   -0.8550   -2.1370 ha        1 485      0.141500
     32 H7          1.2730   -0.4690   -2.0260 ha        1 485      0.166500
     33 H81         5.9620    0.0720   -1.2180 hc        1 485      0.096700
     34 H82         6.1130    0.3090    0.5710 hc        1 485      0.096700
     35 H9          5.6060   -2.3310   -1.0090 hx        1 485      0.120700
     36 H101        5.1620   -3.4050    0.9250 hn        1 485      0.472133
     37 H102        4.4090   -1.9440    1.2770 hn        1 485      0.472133
     38 H13         9.8190    0.3940   -2.6050 ho        1 485      0.447000
     39 H14        10.0530   -2.2280   -0.1680 h1        1 485      0.156700
     40 H18        11.4260   -1.9700   -2.3020 h1        1 485      0.088700
     41 H19         8.9830   -3.9320   -2.3810 h1        1 485      0.059700
     42 H20        11.7840   -4.1110   -3.7320 h1        1 485      0.071700
     43 H21        10.5340   -3.7760   -5.8660 h1        1 485      0.060700
     44 H2         11.3380   -1.7380   -4.7260 h1        1 485      0.057700
     45 H24        10.7330   -5.2360   -1.4320 ho        1 485      0.436000
     46 H25        10.8690   -6.0180   -4.4440 ho        1 485      0.425000
     47 H26         8.5500   -4.6930   -4.9710 ho        1 485      0.421000
     48 H271        9.9420   -1.3520   -6.7520 hc        1 485      0.061033
     49 H272        9.5950   -0.0520   -5.5250 hc        1 485      0.061033
     50 H273        8.4170   -1.4160   -5.7650 hc        1 485      0.061033
     51 H103        5.9290   -2.3060    1.9180 hn        1 485      0.472133
     52 H132        7.8130   -1.3320   -1.9180 hn        1 485      0.344500
@<TRIPOS>BOND
     1    1    2 1   
     2    1   28 1   
     3    2    3 ar  
     4    2    7 ar  
     5    3    4 ar  
     6    3   29 1   
     7    4    5 ar  
     8    4   30 1   
     9    5    6 ar  
    10    5    8 1   
    11    6    7 ar  
    12    6   31 1   
    13    7   32 1   
    14    8    9 1   
    15    8   33 1   
    16    8   34 1   
    17    9   10 1   
    18    9   11 1   
    19    9   35 1   
    20   10   36 1   
    21   10   37 1   
    22   10   51 1   
    23   11   12 2   
    24   11   13 1   
    25   13   14 1   
    26   13   52 1   
    27   14   15 1   
    28   14   18 1   
    29   14   39 1   
    30   15   16 1   
    31   15   17 2   
    32   16   38 1   
    33   18   19 1   
    34   18   23 1   
    35   18   40 1   
    36   19   20 1   
    37   19   24 1   
    38   19   41 1   
    39   20   21 1   
    40   20   25 1   
    41   20   42 1   
    42   21   22 1   
    43   21   26 1   
    44   21   43 1   
    45   22   23 1   
    46   22   27 1   
    47   22   44 1   
    48   24   45 1   
    49   25   46 1   
    50   26   47 1   
    51   27   48 1   
    52   27   49 1   
    53   27   50 1   
@<TRIPOS>SUBSTRUCTURE
     1 485         1 TEMP              0 ****  ****    0 ROOT
