@<TRIPOS>MOLECULE
485
   50    49     1     0     0
SMALL
bcc


@<TRIPOS>ATOM
      1 O1         -3.9170    4.0610   -6.2950 oh        1 485     -0.261000
      2 C2         -3.2480    3.6960   -5.0800 c2        1 485      0.062000
      3 C3         -3.3240    4.5420   -3.9510 c2        1 485     -0.162000
      4 C4         -2.5870    4.2440   -2.8030 c1        1 485     -0.097000
      5 C5         -1.7660    3.1000   -2.7700 c1        1 485     -0.097000
      6 C6         -1.6900    2.2630   -3.8860 c1        1 485     -0.092000
      7 C7         -2.4340    2.5620   -5.0460 c1        1 485     -0.213000
      8 C8         -0.8470    2.8500   -1.5670 c3        1 485     -0.117000
      9 C9         -1.4570    1.8160   -0.6820 c3        1 485     -0.048000
     10 N10        -2.3010    2.4470    0.2640 n3        1 485     -0.342000
     11 C11        -0.3450    1.0470    0.0510 c2        1 485      0.299000
     12 O12         0.6850    1.6090    0.3400 o         1 485     -0.378000
     13 N13        -0.5850   -0.2980    0.5120 n         1 485     -0.320000
     14 C14         0.3760   -1.3270    0.2470 c3        1 485     -0.069000
     15 C15        -0.2290   -2.3540   -0.6990 c2        1 485      0.320000
     16 O16         0.2420   -2.4990   -1.8420 o         1 485     -0.560500
     17 O17        -1.2820   -2.9940   -0.3570 o         1 485     -0.560500
     18 C18         0.7560   -1.9930    1.5250 c3        1 485      0.013000
     19 C19         1.7610   -3.1030    1.2220 c3        1 485     -0.018000
     20 C20         2.3190   -3.6970    2.4470 c3        1 485     -0.004000
     21 C21         2.8560   -2.6610    3.3800 c3        1 485      0.011000
     22 C22         1.8450   -1.5590    3.6650 c3        1 485     -0.009000
     23 O23         1.2910   -0.9800    2.4520 os        1 485     -0.266000
     24 O24         1.0980   -4.1400    0.4540 oh        1 485     -0.371000
     25 O25         3.3960   -4.6020    2.0840 oh        1 485     -0.329000
     26 O26         4.0030   -2.0760    2.7950 oh        1 485     -0.316000
     27 C27         2.5200   -0.4750    4.4530 c3        1 485     -0.205000
     28 H1         -4.7310    3.6990   -6.3060 ho        1 485      0.212000
     29 H3         -3.8640    5.3770   -3.9910 ha        1 485      0.142000
     30 H4         -2.6400    4.8350   -2.0160 ha        1 485      0.147000
     31 H6         -1.1240    1.4740   -3.8620 ha        1 485      0.140000
     32 H7         -2.3820    1.9780   -5.8190 ha        1 485      0.128000
     33 H81         0.0100    2.5420   -1.8760 hc        1 485      0.113500
     34 H82        -0.7330    3.6790   -1.0670 hc        1 485      0.113500
     35 H9         -1.9680    1.2100   -1.2100 h1        1 485      0.066000
     36 H101       -3.0790    2.6770   -0.1330 hn        1 485      0.149000
     37 H102       -2.4640    1.8890    0.9360 hn        1 485      0.149000
     38 H13        -1.3780   -0.5100    0.8900 hn        1 485      0.226000
     39 H14         1.1870   -0.9240   -0.1730 h1        1 485      0.129000
     40 H18        -0.0390   -2.3900    1.9210 h1        1 485      0.088000
     41 H19         2.5060   -2.7250    0.6790 h1        1 485      0.125000
     42 H20         1.6250   -4.2000    2.8970 h1        1 485      0.079000
     43 H21         3.1160   -3.0970    4.2420 h1        1 485      0.113000
     44 H2          1.1240   -1.9260    4.1920 h1        1 485      0.074000
     45 H24         1.7080   -4.6790    0.0920 ho        1 485      0.257000
     46 H25         3.3000   -5.3860    2.5340 ho        1 485      0.214000
     47 H26         4.7170   -2.2880    3.2680 ho        1 485      0.216000
     48 H271        1.8280    0.1440    4.8290 hc        1 485      0.082667
     49 H272        3.0340   -0.8760    5.1860 hc        1 485      0.082667
     50 H273        3.1160    0.0200    3.8750 hc        1 485      0.082667
@<TRIPOS>BOND
     1    1    2 1   
     2    1   28 1   
     3    2    3 1   
     4    2    7 1   
     5    3    4 1   
     6    3   29 1   
     7    4   30 1   
     8    5    6 1   
     9    5    8 1   
    10    6   31 1   
    11    7   32 1   
    12    8    9 1   
    13    8   33 1   
    14    8   34 1   
    15    9   10 1   
    16    9   11 1   
    17    9   35 1   
    18   10   36 1   
    19   10   37 1   
    20   11   12 1   
    21   11   13 1   
    22   13   14 1   
    23   13   38 1   
    24   14   15 1   
    25   14   18 1   
    26   14   39 1   
    27   15   16 1   
    28   15   17 1   
    29   18   19 1   
    30   18   23 1   
    31   18   40 1   
    32   19   20 1   
    33   19   24 1   
    34   19   41 1   
    35   20   21 1   
    36   20   25 1   
    37   20   42 1   
    38   21   22 1   
    39   21   26 1   
    40   21   43 1   
    41   22   23 1   
    42   22   27 1   
    43   22   44 1   
    44   24   45 1   
    45   25   46 1   
    46   26   47 1   
    47   27   48 1   
    48   27   49 1   
    49   27   50 1   
@<TRIPOS>SUBSTRUCTURE
     1 485         1 TEMP              0 ****  ****    0 ROOT
