@<TRIPOS>MOLECULE
485
   50    51     1     0     0
SMALL
bcc


@<TRIPOS>ATOM
      1 O1         -2.6870    2.6410    4.4650 oh        1 485     -0.509100
      2 C2         -1.6870    1.7680    4.0830 ca        1 485      0.103100
      3 C3         -1.5730    0.4790    4.6200 ca        1 485     -0.193500
      4 C4         -0.5340   -0.3440    4.1910 ca        1 485     -0.094000
      5 C5          0.3850    0.1060    3.2370 ca        1 485     -0.113300
      6 C6          0.2560    1.3970    2.7040 ca        1 485     -0.094000
      7 C7         -0.7750    2.2330    3.1220 ca        1 485     -0.193500
      8 C8          1.5120   -0.7680    2.8100 c3        1 485     -0.052100
      9 C9          1.0100   -2.0090    2.0420 c3        1 485      0.085500
     10 N10         1.5260   -3.2530    2.5830 n3        1 485     -0.887800
     11 C11         1.3230   -1.8180    0.5310 c         1 485      0.606100
     12 O12         1.9680   -2.6960   -0.0840 o         1 485     -0.642100
     13 N13         0.7680   -0.7130   -0.0890 n         1 485     -0.486900
     14 C14         1.4380   -0.1020   -1.2230 c3        1 485     -0.061300
     15 C15         2.2890    1.1620   -0.8230 c         1 485      0.916600
     16 O16         2.4440    1.4120    0.4070 o         1 485     -0.831300
     17 O17         2.7810    1.8320   -1.7660 o         1 485     -0.831300
     18 C18         0.4700    0.3000   -2.3530 c3        1 485      0.151100
     19 C19        -0.1130   -0.9230   -3.0850 c3        1 485      0.083100
     20 C20        -1.2100   -0.5140   -4.0880 c3        1 485      0.067100
     21 C21        -2.2290    0.4310   -3.4340 c3        1 485      0.083100
     22 C22        -1.4740    1.5970   -2.7770 c3        1 485      0.109100
     23 O23        -0.6010    1.0630   -1.7820 os        1 485     -0.404600
     24 O24         0.9530   -1.5390   -3.7890 oh        1 485     -0.578800
     25 O25        -1.8460   -1.6730   -4.6010 oh        1 485     -0.610800
     26 O26        -3.0110   -0.2930   -2.4980 oh        1 485     -0.614800
     27 C27        -2.4120    2.5530   -2.0700 c3        1 485     -0.089100
     28 H1         -3.2470    2.1790    5.1030 ho        1 485      0.406000
     29 H3         -2.2930    0.1240    5.3680 ha        1 485      0.132500
     30 H4         -0.4350   -1.3590    4.6040 ha        1 485      0.172500
     31 H6          0.9840    1.7480    1.9390 ha        1 485      0.172500
     32 H7         -0.8840    3.2450    2.7090 ha        1 485      0.132500
     33 H81         2.0810   -1.0810    3.7280 hc        1 485      0.083200
     34 H82         2.2260   -0.1780    2.1640 hc        1 485      0.083200
     35 H9         -0.1160   -2.0730    2.1400 h1        1 485      0.070700
     36 H101        1.3200   -3.9980    1.9420 hn        1 485      0.347800
     37 H102        2.5250   -3.1970    2.6680 hn        1 485      0.347800
     38 H13         0.4180   -0.0150    0.5430 hn        1 485      0.304500
     39 H14         2.1520   -0.8500   -1.6810 h1        1 485      0.099700
     40 H18         1.0540    0.9390   -3.0760 h1        1 485      0.097700
     41 H19        -0.5500   -1.6460   -2.3410 h1        1 485      0.048700
     42 H20        -0.7410   -0.0250   -4.9850 h1        1 485      0.085700
     43 H21        -2.9660    0.8010   -4.1960 h1        1 485      0.073700
     44 H2         -0.8760    2.1380   -3.5620 h1        1 485      0.053700
     45 H24         0.5730   -2.3180   -4.2150 ho        1 485      0.400000
     46 H25        -2.4380   -1.9980   -3.9080 ho        1 485      0.410000
     47 H26        -2.4730   -0.3850   -1.6960 ho        1 485      0.424000
     48 H271       -1.8200    3.3020   -1.4910 hc        1 485      0.045367
     49 H272       -3.0440    3.0790   -2.8230 hc        1 485      0.045367
     50 H273       -3.0720    1.9940   -1.3630 hc        1 485      0.045367
@<TRIPOS>BOND
     1    1    2 1   
     2    1   28 1   
     3    2    3 ar  
     4    2    7 ar  
     5    3    4 ar  
     6    3   29 1   
     7    4    5 ar  
     8    4   30 1   
     9    5    6 ar  
    10    5    8 1   
    11    6    7 ar  
    12    6   31 1   
    13    7   32 1   
    14    8    9 1   
    15    8   33 1   
    16    8   34 1   
    17    9   10 1   
    18    9   11 1   
    19    9   35 1   
    20   10   36 1   
    21   10   37 1   
    22   11   12 2   
    23   11   13 1   
    24   13   14 1   
    25   13   38 1   
    26   14   15 1   
    27   14   18 1   
    28   14   39 1   
    29   15   16 1   
    30   15   17 1   
    31   18   19 1   
    32   18   23 1   
    33   18   40 1   
    34   19   20 1   
    35   19   24 1   
    36   19   41 1   
    37   20   21 1   
    38   20   25 1   
    39   20   42 1   
    40   21   22 1   
    41   21   26 1   
    42   21   43 1   
    43   22   23 1   
    44   22   27 1   
    45   22   44 1   
    46   24   45 1   
    47   25   46 1   
    48   26   47 1   
    49   27   48 1   
    50   27   49 1   
    51   27   50 1   
@<TRIPOS>SUBSTRUCTURE
     1 485         1 TEMP              0 ****  ****    0 ROOT
