@<TRIPOS>MOLECULE
485
   52    53     1     0     0
SMALL
bcc


@<TRIPOS>ATOM
      1 O1          0.0130    0.5700   -0.0440 oh        1 485     -0.471100
      2 C2          1.3670    0.3860   -0.0280 ca        1 485      0.168100
      3 C3          2.1770    0.7320    1.0650 ca        1 485     -0.181000
      4 C4          3.5470    0.5010    0.9980 ca        1 485     -0.086500
      5 C5          4.1180   -0.0810   -0.1400 ca        1 485     -0.220300
      6 C6          3.2990   -0.4120   -1.2320 ca        1 485     -0.086500
      7 C7          1.9310   -0.1910   -1.1850 ca        1 485     -0.181000
      8 C8          5.5870   -0.2810   -0.2220 c3        1 485     -0.042100
      9 C9          5.9650   -1.7660   -0.0980 c3        1 485      0.035500
     10 N10         5.3030   -2.4030    1.0900 n4        1 485     -0.835600
     11 C11         7.5070   -1.9000    0.0380 c         1 485      0.651100
     12 O12         7.9790   -2.2820    1.1280 o         1 485     -0.586100
     13 N13         8.2490   -1.5710   -1.0550 n         1 485     -0.522900
     14 C14         9.6960   -1.5880   -1.0350 c3        1 485      0.009700
     15 C15        10.2500   -0.1760   -0.8080 c         1 485      0.605100
     16 O16        10.1520    0.7710   -1.7760 oh        1 485     -0.569100
     17 O17        10.7750    0.2010    0.2350 o         1 485     -0.449000
     18 C18        10.3190   -2.1900   -2.3180 c3        1 485      0.127100
     19 C19        10.0810   -3.7060   -2.3970 c3        1 485      0.128100
     20 C20        10.6650   -4.2380   -3.7170 c3        1 485      0.063100
     21 C21        10.0390   -3.4760   -4.8980 c3        1 485      0.088100
     22 C22        10.2360   -1.9660   -4.7000 c3        1 485      0.157100
     23 O23         9.7170   -1.5350   -3.4320 os        1 485     -0.450600
     24 O24        10.7190   -4.2860   -1.2760 oh        1 485     -0.596800
     25 O25        10.2980   -5.6080   -3.7750 oh        1 485     -0.606800
     26 O26         8.6480   -3.7380   -4.9850 oh        1 485     -0.591800
     27 C27         9.5050   -1.1520   -5.7480 c3        1 485     -0.094100
     28 H1         -0.2490    1.0390    0.7640 ho        1 485      0.440000
     29 H3          1.7350    1.2010    1.9570 ha        1 485      0.166500
     30 H4          4.1860    0.8100    1.8410 ha        1 485      0.141500
     31 H6          3.7470   -0.8340   -2.1440 ha        1 485      0.141500
     32 H7          1.2780   -0.4400   -2.0370 ha        1 485      0.166500
     33 H81         6.1160    0.3140    0.5720 hc        1 485      0.096700
     34 H82         5.9670    0.0800   -1.2180 hc        1 485      0.096700
     35 H9          5.6030   -2.3220   -1.0140 hx        1 485      0.120700
     36 H101        4.4030   -1.9370    1.2700 hn        1 485      0.472133
     37 H102        5.1530   -3.3990    0.9170 hn        1 485      0.472133
     38 H13         9.8280    0.3870   -2.6060 ho        1 485      0.447000
     39 H14        10.0490   -2.2320   -0.1640 h1        1 485      0.156700
     40 H18        11.4260   -1.9790   -2.2970 h1        1 485      0.088700
     41 H19         8.9800   -3.9370   -2.3760 h1        1 485      0.059700
     42 H20        11.7820   -4.1230   -3.7240 h1        1 485      0.071700
     43 H21        10.5350   -3.7890   -5.8590 h1        1 485      0.060700
     44 H2         11.3420   -1.7510   -4.7210 h1        1 485      0.057700
     45 H24        10.7260   -5.2430   -1.4220 ho        1 485      0.436000
     46 H25        10.8640   -6.0290   -4.4340 ho        1 485      0.425000
     47 H26         8.5480   -4.7010   -4.9660 ho        1 485      0.421000
     48 H271        8.4230   -1.4250   -5.7650 hc        1 485      0.061033
     49 H272        9.9490   -1.3650   -6.7500 hc        1 485      0.061033
     50 H273        9.6040   -0.0630   -5.5260 hc        1 485      0.061033
     51 H103        5.9210   -2.3040    1.9130 hn        1 485      0.472133
     52 H132        7.8140   -1.3310   -1.9190 hn        1 485      0.344500
@<TRIPOS>BOND
     1    1    2 1   
     2    1   28 1   
     3    2    3 ar  
     4    2    7 ar  
     5    3    4 ar  
     6    3   29 1   
     7    4    5 ar  
     8    4   30 1   
     9    5    6 ar  
    10    5    8 1   
    11    6    7 ar  
    12    6   31 1   
    13    7   32 1   
    14    8    9 1   
    15    8   33 1   
    16    8   34 1   
    17    9   10 1   
    18    9   11 1   
    19    9   35 1   
    20   10   36 1   
    21   10   37 1   
    22   10   51 1   
    23   11   12 2   
    24   11   13 1   
    25   13   14 1   
    26   13   52 1   
    27   14   15 1   
    28   14   18 1   
    29   14   39 1   
    30   15   16 1   
    31   15   17 2   
    32   16   38 1   
    33   18   19 1   
    34   18   23 1   
    35   18   40 1   
    36   19   20 1   
    37   19   24 1   
    38   19   41 1   
    39   20   21 1   
    40   20   25 1   
    41   20   42 1   
    42   21   22 1   
    43   21   26 1   
    44   21   43 1   
    45   22   23 1   
    46   22   27 1   
    47   22   44 1   
    48   24   45 1   
    49   25   46 1   
    50   26   47 1   
    51   27   48 1   
    52   27   49 1   
    53   27   50 1   
@<TRIPOS>SUBSTRUCTURE
     1 485         1 TEMP              0 ****  ****    0 ROOT
