@<TRIPOS>MOLECULE
486
   68    72     1     0     0
SMALL
bcc


@<TRIPOS>ATOM
      1 O30         0.9540   -2.8620   -0.9010 o         1 486     -0.518100
      2 C2          1.7080   -1.9230   -0.6320 c         1 486      0.565300
      3 C1          2.0410   -1.5220    0.7760 c3        1 486     -0.183400
      4 C3          2.3420   -1.0750   -1.6490 ce        1 486     -0.245200
      5 C4          3.5100   -0.4430   -1.4100 cf        1 486     -0.014200
      6 C7          4.1170    0.4070   -2.4730 c3        1 486     -0.055200
      7 C5          4.2440   -0.6360   -0.1600 cf        1 486     -0.085200
      8 C6          3.5260   -1.3020    0.9700 c3        1 486     -0.035200
      9 C10         5.5540   -0.2880   -0.0420 c2        1 486     -0.096400
     10 C14         6.3270   -0.6790    1.1880 c3        1 486      0.009800
     11 C18         6.6240   -2.1550    1.2120 ca        1 486      0.002700
     12 C22         7.0170   -2.7470    2.4240 ca        1 486     -0.110000
     13 C23         7.2910   -4.1070    2.5060 ca        1 486     -0.098000
     14 C24         7.1690   -4.9050    1.3530 ca        1 486     -0.072400
     15 N27         7.4550   -6.3470    1.4420 n4        1 486     -0.543800
     16 C29         8.6020   -6.7230    0.5710 c3        1 486      0.088600
     17 C28         6.2480   -7.1570    1.1170 c3        1 486      0.088600
     18 C25         6.7770   -4.3300    0.1330 ca        1 486     -0.098000
     19 C26         6.5090   -2.9650    0.0750 ca        1 486     -0.110000
     20 C13         7.6010    0.1210    1.4960 c3        1 486     -0.060400
     21 C12         8.3230    0.6070    0.2580 c3        1 486     -0.033000
     22 C19         8.9670   -0.5530   -0.4840 c3        1 486     -0.080100
     23 C17         9.4190    1.7010    0.4960 c3        1 486      0.250900
     24 C31         9.1080    2.5800    1.6040 c1        1 486     -0.198100
     25 C30         8.8700    3.3270    2.5100 c1        1 486     -0.089100
     26 C32         8.5910    4.2220    3.5840 c3        1 486     -0.031000
     27 O3         10.6630    1.0400    0.7090 oh        1 486     -0.590800
     28 C16         9.4420    2.4970   -0.8430 c3        1 486     -0.104400
     29 C15         8.1480    2.1740   -1.5880 c3        1 486     -0.068400
     30 C11         7.3030    1.3840   -0.5940 c3        1 486     -0.067700
     31 C9          6.2350    0.4660   -1.1500 c3        1 486     -0.012500
     32 C8          5.2250    1.2840   -1.9450 c3        1 486     -0.076400
     33 HC1A        1.4800   -0.5730    0.9950 hc        1 486      0.079200
     34 HC12        1.6790   -2.3000    1.4970 hc        1 486      0.079200
     35 HC3         1.8150   -0.9820   -2.6120 ha        1 486      0.162000
     36 HC71        4.5180   -0.2650   -3.2820 hc        1 486      0.064700
     37 HC72        3.3220    1.0480   -2.9430 hc        1 486      0.064700
     38 HC61        4.0220   -2.2950    1.1620 hc        1 486      0.048700
     39 HC62        3.6550   -0.6830    1.9020 hc        1 486      0.048700
     40 HC14        5.6470   -0.4890    2.0800 hc        1 486      0.074700
     41 HC22        7.1120   -2.1230    3.3300 ha        1 486      0.173000
     42 HC23        7.5980   -4.5350    3.4740 ha        1 486      0.151000
     43 H291        9.4970   -6.1060    0.8540 hx        1 486      0.104533
     44 H292        8.3410   -6.5250   -0.5020 hx        1 486      0.104533
     45 H293        8.8270   -7.8140    0.7120 hx        1 486      0.104533
     46 H281        5.9420   -6.9650    0.0540 hx        1 486      0.104533
     47 H282        6.4900   -8.2450    1.2510 hx        1 486      0.104533
     48 H283        5.4100   -6.8600    1.8030 hx        1 486      0.104533
     49 HC25        6.6750   -4.9360   -0.7810 ha        1 486      0.151000
     50 HC26        6.1960   -2.5200   -0.8870 ha        1 486      0.173000
     51 H131        8.2980   -0.5010    2.1170 hc        1 486      0.061200
     52 H132        7.3050    1.0100    2.1180 hc        1 486      0.061200
     53 H191        9.4400   -0.1910   -1.4280 hc        1 486      0.040700
     54 H192        9.7620   -1.0140    0.1520 hc        1 486      0.040700
     55 H193        8.2100   -1.3340   -0.7320 hc        1 486      0.040700
     56 H321        7.5010    4.1950    3.8470 hc        1 486      0.064033
     57 H322        9.1830    3.9410    4.4940 hc        1 486      0.064033
     58 H323        8.8590    5.2730    3.2980 hc        1 486      0.064033
     59 HO3        11.3200    1.7270    0.8780 ho        1 486      0.415000
     60 H161        9.5270    3.5930   -0.6460 hc        1 486      0.063200
     61 H162       10.3330    2.1780   -1.4380 hc        1 486      0.063200
     62 H151        7.6210    3.1060   -1.9080 hc        1 486      0.051700
     63 H152        8.3570    1.5680   -2.5040 hc        1 486      0.051700
     64 HC11        6.7910    2.1310    0.0810 hc        1 486      0.065700
     65 HC9         6.7100   -0.2850   -1.8470 hc        1 486      0.059700
     66 HC81        5.7510    1.7870   -2.7990 hc        1 486      0.059200
     67 HC82        4.7960    2.0890   -1.2920 hc        1 486      0.059200
     68 H271        7.7190   -6.5500    2.4180 hn        1 486      0.450800
@<TRIPOS>BOND
     1    1    2 2   
     2    2    3 1   
     3    2    4 1   
     4    3    8 1   
     5    3   33 1   
     6    3   34 1   
     7    4    5 2   
     8    4   35 1   
     9    5    6 1   
    10    5    7 1   
    11    6   32 1   
    12    6   36 1   
    13    6   37 1   
    14    7    8 1   
    15    7    9 2   
    16    8   38 1   
    17    8   39 1   
    18    9   10 1   
    19    9   31 1   
    20   10   11 1   
    21   10   20 1   
    22   10   40 1   
    23   11   12 ar  
    24   11   19 ar  
    25   12   13 ar  
    26   12   41 1   
    27   13   14 ar  
    28   13   42 1   
    29   14   15 1   
    30   14   18 ar  
    31   15   16 1   
    32   15   17 1   
    33   15   68 1   
    34   16   43 1   
    35   16   44 1   
    36   16   45 1   
    37   17   46 1   
    38   17   47 1   
    39   17   48 1   
    40   18   19 ar  
    41   18   49 1   
    42   19   50 1   
    43   20   21 1   
    44   20   51 1   
    45   20   52 1   
    46   21   22 1   
    47   21   23 1   
    48   21   30 1   
    49   22   53 1   
    50   22   54 1   
    51   22   55 1   
    52   23   24 1   
    53   23   27 1   
    54   23   28 1   
    55   24   25 3   
    56   25   26 1   
    57   26   56 1   
    58   26   57 1   
    59   26   58 1   
    60   27   59 1   
    61   28   29 1   
    62   28   60 1   
    63   28   61 1   
    64   29   30 1   
    65   29   62 1   
    66   29   63 1   
    67   30   31 1   
    68   30   64 1   
    69   31   32 1   
    70   31   65 1   
    71   32   66 1   
    72   32   67 1   
@<TRIPOS>SUBSTRUCTURE
     1 486         1 TEMP              0 ****  ****    0 ROOT
