@<TRIPOS>MOLECULE
486
   67    71     1     0     0
SMALL
bcc


@<TRIPOS>ATOM
      1 O30         0.0560   -0.5990    0.1740 o         1 486     -0.540100
      2 C2          1.2900   -0.5180    0.1310 c         1 486      0.569300
      3 C1          2.1450   -0.7700    1.3400 c3        1 486     -0.178400
      4 C3          2.0090   -0.1370   -1.0910 ce        1 486     -0.260200
      5 C4          3.3530   -0.1550   -1.1810 cf        1 486      0.004800
      6 C7          4.0400    0.2630   -2.4350 c3        1 486     -0.055200
      7 C5          4.2090   -0.5820   -0.0700 cf        1 486     -0.107200
      8 C6          3.4900   -1.3640    0.9790 c3        1 486     -0.036200
      9 C10         5.5420   -0.3270   -0.0480 c2        1 486     -0.058400
     10 C14         6.3920   -0.7630    1.1160 c3        1 486      0.025800
     11 C18         6.6810   -2.2360    1.0880 ca        1 486     -0.117300
     12 C22         7.1050   -2.8640    2.2660 ca        1 486     -0.094000
     13 C23         7.3770   -4.2250    2.3030 ca        1 486     -0.185000
     14 C24         7.2240   -5.0270    1.1460 ca        1 486      0.158600
     15 N27         7.4080   -6.4240    1.1980 nh        1 486     -0.653000
     16 C29         8.1860   -6.9400    2.2960 c3        1 486      0.183100
     17 C28         7.5560   -7.1140   -0.0580 c3        1 486      0.183100
     18 C25         6.8030   -4.3840   -0.0420 ca        1 486     -0.185000
     19 C26         6.5360   -3.0200   -0.0590 ca        1 486     -0.094000
     20 C13         7.6740    0.0420    1.3750 c3        1 486     -0.060400
     21 C12         8.3480    0.5540    0.1190 c3        1 486     -0.024000
     22 C19         9.0040   -0.5890   -0.6380 c3        1 486     -0.083100
     23 C17         9.4160    1.6840    0.3200 c3        1 486      0.241900
     24 C31         9.1090    2.5620    1.4310 c1        1 486     -0.172100
     25 C30         8.8640    3.2990    2.3430 c1        1 486     -0.113100
     26 C32         8.5710    4.1770    3.4280 c3        1 486     -0.022000
     27 O3         10.6890    1.0720    0.4990 oh        1 486     -0.581800
     28 C16         9.3760    2.4750   -1.0230 c3        1 486     -0.103400
     29 C15         8.0710    2.1090   -1.7270 c3        1 486     -0.068400
     30 C11         7.2810    1.3050   -0.7010 c3        1 486     -0.067700
     31 C9          6.2150    0.3570   -1.2080 c3        1 486     -0.018500
     32 C8          5.2450    1.1140   -2.1030 c3        1 486     -0.073400
     33 HC1A        2.2870    0.2140    1.8650 hc        1 486      0.071700
     34 HC12        1.6080   -1.4550    2.0480 hc        1 486      0.071700
     35 HC3         1.3780    0.1710   -1.9400 ha        1 486      0.148000
     36 HC71        3.3400    0.8350   -3.1010 hc        1 486      0.057200
     37 HC72        4.3610   -0.6560   -2.9970 hc        1 486      0.057200
     38 HC61        3.3420   -2.4080    0.5830 hc        1 486      0.060700
     39 HC62        4.0940   -1.4640    1.9190 hc        1 486      0.060700
     40 HC14        5.7720   -0.5820    2.0510 hc        1 486      0.057700
     41 HC22        7.2280   -2.2680    3.1840 ha        1 486      0.131000
     42 HC23        7.7090   -4.6660    3.2550 ha        1 486      0.133000
     43 H291        8.3600   -8.0400    2.1580 h1        1 486      0.037700
     44 H292        9.1830   -6.4310    2.3970 h1        1 486      0.037700
     45 H293        7.6100   -6.7950    3.2480 h1        1 486      0.037700
     46 H281        6.5880   -7.0490   -0.6240 h1        1 486      0.037700
     47 H282        8.3750   -6.6820   -0.6970 h1        1 486      0.037700
     48 H283        7.7800   -8.1970    0.1260 h1        1 486      0.037700
     49 HC25        6.6740   -4.9520   -0.9760 ha        1 486      0.133000
     50 HC26        6.1990   -2.5560   -1.0010 ha        1 486      0.131000
     51 H131        8.3960   -0.5950    1.9520 hc        1 486      0.054700
     52 H132        7.4060    0.9180    2.0260 hc        1 486      0.054700
     53 H191        9.8550   -0.9970   -0.0380 hc        1 486      0.045367
     54 H192        9.4020   -0.2290   -1.6160 hc        1 486      0.045367
     55 H193        8.2740   -1.4150   -0.8160 hc        1 486      0.045367
     56 H321        8.2590    3.5930    4.3330 hc        1 486      0.057367
     57 H322        9.4740    4.7860    3.6950 hc        1 486      0.057367
     58 H323        7.7400    4.8770    3.1540 hc        1 486      0.057367
     59 HO3        11.3210    1.7840    0.6590 ho        1 486      0.404000
     60 H161        9.4360    3.5730   -0.8340 hc        1 486      0.055200
     61 H162       10.2580    2.1760   -1.6420 hc        1 486      0.055200
     62 H151        7.5080    3.0210   -2.0410 hc        1 486      0.045700
     63 H152        8.2720    1.4990   -2.6430 hc        1 486      0.045700
     64 HC11        6.7760    2.0430   -0.0120 hc        1 486      0.059700
     65 HC9         6.6990   -0.4530   -1.8320 hc        1 486      0.065700
     66 HC81        5.7730    1.4110   -3.0470 hc        1 486      0.049700
     67 HC82        4.9120    2.0560   -1.5930 hc        1 486      0.049700
@<TRIPOS>BOND
     1    1    2 2   
     2    2    3 1   
     3    2    4 1   
     4    3    8 1   
     5    3   33 1   
     6    3   34 1   
     7    4    5 2   
     8    4   35 1   
     9    5    6 1   
    10    5    7 1   
    11    6   32 1   
    12    6   36 1   
    13    6   37 1   
    14    7    8 1   
    15    7    9 2   
    16    8   38 1   
    17    8   39 1   
    18    9   10 1   
    19    9   31 1   
    20   10   11 1   
    21   10   20 1   
    22   10   40 1   
    23   11   12 ar  
    24   11   19 ar  
    25   12   13 ar  
    26   12   41 1   
    27   13   14 ar  
    28   13   42 1   
    29   14   15 1   
    30   14   18 ar  
    31   15   16 1   
    32   15   17 1   
    33   16   43 1   
    34   16   44 1   
    35   16   45 1   
    36   17   46 1   
    37   17   47 1   
    38   17   48 1   
    39   18   19 ar  
    40   18   49 1   
    41   19   50 1   
    42   20   21 1   
    43   20   51 1   
    44   20   52 1   
    45   21   22 1   
    46   21   23 1   
    47   21   30 1   
    48   22   53 1   
    49   22   54 1   
    50   22   55 1   
    51   23   24 1   
    52   23   27 1   
    53   23   28 1   
    54   24   25 3   
    55   25   26 1   
    56   26   56 1   
    57   26   57 1   
    58   26   58 1   
    59   27   59 1   
    60   28   29 1   
    61   28   60 1   
    62   28   61 1   
    63   29   30 1   
    64   29   62 1   
    65   29   63 1   
    66   30   31 1   
    67   30   64 1   
    68   31   32 1   
    69   31   65 1   
    70   32   66 1   
    71   32   67 1   
@<TRIPOS>SUBSTRUCTURE
     1 486         1 TEMP              0 ****  ****    0 ROOT
