@<TRIPOS>MOLECULE
486
   67    71     1     0     0
SMALL
bcc


@<TRIPOS>ATOM
      1 O30         0.0470   -0.6250    0.1520 o         1 486     -0.540100
      2 C2          1.2820   -0.5370    0.1170 c         1 486      0.569300
      3 C1          2.1310   -0.7900    1.3300 c3        1 486     -0.178400
      4 C3          2.0050   -0.1470   -1.0980 ce        1 486     -0.260200
      5 C4          3.3500   -0.1560   -1.1810 cf        1 486      0.004800
      6 C7          4.0420    0.2720   -2.4290 c3        1 486     -0.055200
      7 C5          4.2020   -0.5840   -0.0670 cf        1 486     -0.107200
      8 C6          3.4810   -1.3760    0.9750 c3        1 486     -0.036200
      9 C10         5.5330   -0.3230   -0.0350 c2        1 486     -0.058400
     10 C14         6.3780   -0.7590    1.1320 c3        1 486      0.025800
     11 C18         6.6760   -2.2310    1.0980 ca        1 486     -0.117300
     12 C22         7.0960   -2.8620    2.2760 ca        1 486     -0.094000
     13 C23         7.3750   -4.2210    2.3090 ca        1 486     -0.185000
     14 C24         7.2330   -5.0190    1.1470 ca        1 486      0.158600
     15 N27         7.4250   -6.4150    1.1940 nh        1 486     -0.653000
     16 C29         8.1990   -6.9320    2.2940 c3        1 486      0.183100
     17 C28         7.5830   -7.0980   -0.0650 c3        1 486      0.183100
     18 C25         6.8160   -4.3720   -0.0410 ca        1 486     -0.185000
     19 C26         6.5410   -3.0100   -0.0530 ca        1 486     -0.094000
     20 C13         7.6550    0.0510    1.4030 c3        1 486     -0.060400
     21 C12         8.3330    0.5730    0.1530 c3        1 486     -0.024000
     22 C19         9.0000   -0.5630   -0.6050 c3        1 486     -0.083100
     23 C17         9.3940    1.7070    0.3660 c3        1 486      0.241900
     24 C31         9.0750    2.5780    1.4790 c1        1 486     -0.172100
     25 C30         8.8210    3.3100    2.3930 c1        1 486     -0.113100
     26 C32         8.5170    4.1800    3.4810 c3        1 486     -0.022000
     27 O3         10.6690    1.1020    0.5500 oh        1 486     -0.581800
     28 C16         9.3580    2.5050   -0.9730 c3        1 486     -0.103400
     29 C15         8.0590    2.1350   -1.6870 c3        1 486     -0.068400
     30 C11         7.2680    1.3220   -0.6700 c3        1 486     -0.067700
     31 C9          6.2090    0.3700   -1.1880 c3        1 486     -0.018500
     32 C8          5.2400    1.1270   -2.0860 c3        1 486     -0.073400
     33 HC1A        1.5920   -1.4810    2.0310 hc        1 486      0.071700
     34 HC12        2.2640    0.1920    1.8600 hc        1 486      0.071700
     35 HC3         1.3780    0.1630   -1.9500 ha        1 486      0.148000
     36 HC71        3.3440    0.8430   -3.0950 hc        1 486      0.057200
     37 HC72        4.3720   -0.6430   -2.9920 hc        1 486      0.057200
     38 HC61        4.0790   -1.4760    1.9170 hc        1 486      0.060700
     39 HC62        3.3400   -2.4180    0.5730 hc        1 486      0.060700
     40 HC14        5.7520   -0.5860    2.0640 hc        1 486      0.057700
     41 HC22        7.2100   -2.2700    3.1980 ha        1 486      0.131000
     42 HC23        7.7040   -4.6650    3.2600 ha        1 486      0.133000
     43 H291        9.1920   -6.4180    2.4040 h1        1 486      0.037700
     44 H292        7.6150   -6.7940    3.2440 h1        1 486      0.037700
     45 H293        8.3780   -8.0300    2.1520 h1        1 486      0.037700
     46 H281        6.6180   -7.0360   -0.6360 h1        1 486      0.037700
     47 H282        7.8120   -8.1810    0.1160 h1        1 486      0.037700
     48 H283        8.4030   -6.6590   -0.6960 h1        1 486      0.037700
     49 HC25        6.6950   -4.9360   -0.9770 ha        1 486      0.133000
     50 HC26        6.2080   -2.5430   -0.9940 ha        1 486      0.131000
     51 H131        7.3780    0.9230    2.0560 hc        1 486      0.054700
     52 H132        8.3760   -0.5850    1.9800 hc        1 486      0.054700
     53 H191        9.8490   -0.9700   -0.0030 hc        1 486      0.045367
     54 H192        8.2760   -1.3920   -0.7920 hc        1 486      0.045367
     55 H193        9.4020   -0.1960   -1.5790 hc        1 486      0.045367
     56 H321        7.5370    3.8980    3.9470 hc        1 486      0.057033
     57 H322        8.4490    5.2420    3.1280 hc        1 486      0.057033
     58 H323        9.3140    4.1180    4.2670 hc        1 486      0.057033
     59 HO3        11.2970    1.8160    0.7170 ho        1 486      0.404000
     60 H161        9.4110    3.6020   -0.7790 hc        1 486      0.055200
     61 H162       10.2460    2.2140   -1.5890 hc        1 486      0.055200
     62 H151        7.4930    3.0450   -2.0000 hc        1 486      0.045700
     63 H152        8.2680    1.5300   -2.6050 hc        1 486      0.045700
     64 HC11        6.7540    2.0550    0.0200 hc        1 486      0.059700
     65 HC9         6.7010   -0.4330   -1.8130 hc        1 486      0.065700
     66 HC81        4.9000    2.0640   -1.5730 hc        1 486      0.049700
     67 HC82        5.7730    1.4310   -3.0240 hc        1 486      0.049700
@<TRIPOS>BOND
     1    1    2 2   
     2    2    3 1   
     3    2    4 1   
     4    3    8 1   
     5    3   33 1   
     6    3   34 1   
     7    4    5 2   
     8    4   35 1   
     9    5    6 1   
    10    5    7 1   
    11    6   32 1   
    12    6   36 1   
    13    6   37 1   
    14    7    8 1   
    15    7    9 2   
    16    8   38 1   
    17    8   39 1   
    18    9   10 1   
    19    9   31 1   
    20   10   11 1   
    21   10   20 1   
    22   10   40 1   
    23   11   12 ar  
    24   11   19 ar  
    25   12   13 ar  
    26   12   41 1   
    27   13   14 ar  
    28   13   42 1   
    29   14   15 1   
    30   14   18 ar  
    31   15   16 1   
    32   15   17 1   
    33   16   43 1   
    34   16   44 1   
    35   16   45 1   
    36   17   46 1   
    37   17   47 1   
    38   17   48 1   
    39   18   19 ar  
    40   18   49 1   
    41   19   50 1   
    42   20   21 1   
    43   20   51 1   
    44   20   52 1   
    45   21   22 1   
    46   21   23 1   
    47   21   30 1   
    48   22   53 1   
    49   22   54 1   
    50   22   55 1   
    51   23   24 1   
    52   23   27 1   
    53   23   28 1   
    54   24   25 3   
    55   25   26 1   
    56   26   56 1   
    57   26   57 1   
    58   26   58 1   
    59   27   59 1   
    60   28   29 1   
    61   28   60 1   
    62   28   61 1   
    63   29   30 1   
    64   29   62 1   
    65   29   63 1   
    66   30   31 1   
    67   30   64 1   
    68   31   32 1   
    69   31   65 1   
    70   32   66 1   
    71   32   67 1   
@<TRIPOS>SUBSTRUCTURE
     1 486         1 TEMP              0 ****  ****    0 ROOT
