@<TRIPOS>MOLECULE
486
   67    71     1     0     0
SMALL
bcc


@<TRIPOS>ATOM
      1 O30         4.9940   -3.7060   -1.1250 o         1 486     -0.540100
      2 C2          4.1170   -2.8850   -0.8280 c         1 486      0.569300
      3 C1          3.1050   -2.4070   -1.8310 c3        1 486     -0.178400
      4 C3          4.0180   -2.2910    0.5090 ce        1 486     -0.261200
      5 C4          2.9990   -1.4890    0.8770 cf        1 486      0.004800
      6 C7          2.9540   -0.8900    2.2400 c3        1 486     -0.055200
      7 C5          1.8910   -1.1640   -0.0240 cf        1 486     -0.109200
      8 C6          1.7700   -2.0880   -1.1920 c3        1 486     -0.035200
      9 C10         1.0290   -0.1470    0.2300 c2        1 486     -0.056400
     10 C14        -0.0930    0.1720   -0.7240 c3        1 486      0.025800
     11 C18        -1.2270   -0.8060   -0.6110 ca        1 486     -0.117300
     12 C22        -2.1440   -0.9010   -1.6660 ca        1 486     -0.094000
     13 C23        -3.2060   -1.7940   -1.6230 ca        1 486     -0.185500
     14 C24        -3.4010   -2.6380   -0.5020 ca        1 486      0.158600
     15 N27        -4.5260   -3.4810   -0.4080 nh        1 486     -0.653000
     16 C29        -5.2280   -3.7780   -1.6300 c3        1 486      0.184100
     17 C28        -4.4680   -4.5450    0.5620 c3        1 486      0.184100
     18 C25        -2.4610   -2.5460    0.5530 ca        1 486     -0.185500
     19 C26        -1.4050   -1.6450    0.4920 ca        1 486     -0.094000
     20 C13        -0.6140    1.6170   -0.7200 c3        1 486     -0.060400
     21 C12        -0.5900    2.2800    0.6410 c3        1 486     -0.024000
     22 C19        -1.6720    1.6990    1.5360 c3        1 486     -0.083100
     23 C17        -0.7340    3.8410    0.6510 c3        1 486      0.241900
     24 C31        -0.1430    4.4710   -0.5130 c1        1 486     -0.172100
     25 C30         0.3460    5.0050   -1.4660 c1        1 486     -0.113100
     26 C32         0.9290    5.6410   -2.6020 c3        1 486     -0.022000
     27 O3         -2.1170    4.1650    0.7500 oh        1 486     -0.580800
     28 C16         0.0210    4.2750    1.9440 c3        1 486     -0.103400
     29 C15         0.9100    3.1060    2.3640 c3        1 486     -0.068400
     30 C11         0.8330    2.1160    1.2080 c3        1 486     -0.067700
     31 C9          1.1430    0.6610    1.4950 c3        1 486     -0.018500
     32 C8          2.5090    0.5520    2.1550 c3        1 486     -0.073400
     33 HC1A        3.5250   -1.4890   -2.3240 hc        1 486      0.071700
     34 HC12        2.9660   -3.1840   -2.6280 hc        1 486      0.071700
     35 HC3         4.8360   -2.5390    1.2050 ha        1 486      0.148000
     36 HC71        3.9590   -0.9500    2.7360 hc        1 486      0.057200
     37 HC72        2.2330   -1.4780    2.8710 hc        1 486      0.057200
     38 HC61        1.0900   -1.6810   -1.9840 hc        1 486      0.059200
     39 HC62        1.2970   -3.0420   -0.8230 hc        1 486      0.059200
     40 HC14        0.3300    0.0450   -1.7710 hc        1 486      0.056700
     41 HC22       -2.0230   -0.2550   -2.5500 ha        1 486      0.131000
     42 HC23       -3.8960   -1.8270   -2.4800 ha        1 486      0.133000
     43 H291       -5.7100   -2.8370   -2.0100 h1        1 486      0.037700
     44 H292       -4.5510   -4.1830   -2.4310 h1        1 486      0.037700
     45 H293       -6.0370   -4.5290   -1.4320 h1        1 486      0.037700
     46 H281       -4.4700   -4.0980    1.5920 h1        1 486      0.037700
     47 H282       -5.3740   -5.1990    0.4640 h1        1 486      0.037700
     48 H283       -3.5510   -5.1840    0.4490 h1        1 486      0.037700
     49 HC25       -2.5510   -3.1840    1.4440 ha        1 486      0.133000
     50 HC26       -0.6930   -1.6020    1.3330 ha        1 486      0.131000
     51 H131        0.0230    2.2140   -1.4270 hc        1 486      0.055200
     52 H132       -1.6620    1.6280   -1.1210 hc        1 486      0.055200
     53 H191       -1.6010    0.5860    1.5700 hc        1 486      0.045700
     54 H192       -1.5810    2.1070    2.5710 hc        1 486      0.045700
     55 H193       -2.6790    1.9730    1.1350 hc        1 486      0.045700
     56 H321        1.5670    4.9170   -3.1730 hc        1 486      0.057033
     57 H322        0.1310    6.0270   -3.2880 hc        1 486      0.057033
     58 H323        1.5710    6.5040   -2.2850 hc        1 486      0.057033
     59 HO3        -2.1820    5.1270    0.7170 ho        1 486      0.404000
     60 H161        0.6290    5.1920    1.7560 hc        1 486      0.055200
     61 H162       -0.7300    4.5080    2.7380 hc        1 486      0.055200
     62 H151        1.9630    3.4360    2.5390 hc        1 486      0.045200
     63 H152        0.5360    2.6430    3.3110 hc        1 486      0.045200
     64 HC11        1.5600    2.4660    0.4170 hc        1 486      0.059700
     65 HC9         0.3760    0.2510    2.2180 hc        1 486      0.066700
     66 HC81        3.2620    1.1450    1.5730 hc        1 486      0.049700
     67 HC82        2.4550    0.9960    3.1840 hc        1 486      0.049700
@<TRIPOS>BOND
     1    1    2 2   
     2    2    3 1   
     3    2    4 1   
     4    3    8 1   
     5    3   33 1   
     6    3   34 1   
     7    4    5 2   
     8    4   35 1   
     9    5    6 1   
    10    5    7 1   
    11    6   32 1   
    12    6   36 1   
    13    6   37 1   
    14    7    8 1   
    15    7    9 2   
    16    8   38 1   
    17    8   39 1   
    18    9   10 1   
    19    9   31 1   
    20   10   11 1   
    21   10   20 1   
    22   10   40 1   
    23   11   12 ar  
    24   11   19 ar  
    25   12   13 ar  
    26   12   41 1   
    27   13   14 ar  
    28   13   42 1   
    29   14   15 1   
    30   14   18 ar  
    31   15   16 1   
    32   15   17 1   
    33   16   43 1   
    34   16   44 1   
    35   16   45 1   
    36   17   46 1   
    37   17   47 1   
    38   17   48 1   
    39   18   19 ar  
    40   18   49 1   
    41   19   50 1   
    42   20   21 1   
    43   20   51 1   
    44   20   52 1   
    45   21   22 1   
    46   21   23 1   
    47   21   30 1   
    48   22   53 1   
    49   22   54 1   
    50   22   55 1   
    51   23   24 1   
    52   23   27 1   
    53   23   28 1   
    54   24   25 3   
    55   25   26 1   
    56   26   56 1   
    57   26   57 1   
    58   26   58 1   
    59   27   59 1   
    60   28   29 1   
    61   28   60 1   
    62   28   61 1   
    63   29   30 1   
    64   29   62 1   
    65   29   63 1   
    66   30   31 1   
    67   30   64 1   
    68   31   32 1   
    69   31   65 1   
    70   32   66 1   
    71   32   67 1   
@<TRIPOS>SUBSTRUCTURE
     1 486         1 TEMP              0 ****  ****    0 ROOT
