@<TRIPOS>MOLECULE
488
   36    37     1     0     0
SMALL
bcc


@<TRIPOS>ATOM
      1 C1          1.1570   -0.5270    1.0270 c2        1 488      0.193000
      2 N1         -2.1380   -0.4230    0.4360 n2        1 488     -0.134000
      3 O1          1.1530   -1.4040   -0.0080 oh        1 488     -0.247000
      4 S1         -1.4700    1.3300    2.6420 ss        1 488      0.631000
      5 C2          2.5110   -0.2740    1.6160 c3        1 488     -0.085000
      6 N2         -5.6890   -1.1390   -2.8600 n3        1 488     -0.138000
      7 S2         -6.4550   -2.9620   -1.2650 ss        1 488      0.091000
      8 C3          2.5210    0.6860    2.7480 c2        1 488     -0.276000
      9 C4          1.4150    1.3040    3.2370 c2        1 488      0.010000
     10 C5          0.1630    1.0420    2.6580 cv        1 488     -0.529000
     11 C6          0.0710    0.1040    1.5350 cv        1 488     -0.159000
     12 C12        -1.3640    0.2110    1.3510 cv        1 488     -0.335000
     13 C13        -4.3610    0.5060    1.1540 c3        1 488     -0.227000
     14 C14        -3.4220   -0.3100    0.3390 c2        1 488     -0.088000
     15 C15        -5.4090   -1.6960   -1.7020 c1        1 488     -0.311000
     16 C16        -7.4680   -2.8080   -2.7560 c3        1 488     -0.288000
     17 C17        -6.8490   -1.6910   -3.5980 c3        1 488     -0.129000
     18 C19        -7.9110   -0.6010   -4.0020 c2        1 488      0.343000
     19 O20        -9.0700   -0.6980   -3.5270 o         1 488     -0.549000
     20 O21        -7.5250    0.2760   -4.8210 o         1 488     -0.549000
     21 HO1         0.2370   -1.5060   -0.3270 ho        1 488      0.264000
     22 H2          3.1830    0.1050    0.7940 hc        1 488      0.112000
     23 H3          2.9330   -1.2630    1.9550 hc        1 488      0.112000
     24 H4          3.5120    0.8730    3.1820 ha        1 488      0.117000
     25 H5          1.4870    2.0070    4.0800 ha        1 488      0.115000
     26 H13        -3.8850    0.9510    2.0650 hc        1 488      0.087667
     27 H13A       -4.7680    1.3370    0.5230 hc        1 488      0.087667
     28 H14        -5.2190   -0.1350    1.4760 hc        1 488      0.087667
     29 H15        -3.9170   -0.9110   -0.4820 h4        1 488      0.240000
     30 H16        -6.4520   -2.1120   -4.5650 h1        1 488      0.093000
     31 H16A       -8.5140   -2.5380   -2.4700 h1        1 488      0.125000
     32 H17        -7.4670   -3.7760   -3.3000 h1        1 488      0.125000
     33 H18        -5.6300    0.6890   -3.8900 h1        1 488      0.097000
     34 H18A       -4.2820   -0.4880   -4.2700 h1        1 488      0.097000
     35 H18B       -4.2750    0.3970   -2.6690 h1        1 488      0.097000
     36 C18        -4.9280   -0.0740   -3.4490 c3        1 488     -0.082000
@<TRIPOS>BOND
     1    1    3 1   
     2    1    5 1   
     3    1   11 1   
     4    2   12 1   
     5    2   14 1   
     6    3   21 1   
     7    4   10 1   
     8    4   12 1   
     9    5    8 1   
    10    5   22 1   
    11    5   23 1   
    12    6   15 1   
    13    6   17 1   
    14    6   36 1   
    15    7   15 1   
    16    7   16 1   
    17    8    9 1   
    18    8   24 1   
    19    9   10 1   
    20    9   25 1   
    21   10   11 1   
    22   11   12 1   
    23   13   14 1   
    24   13   26 1   
    25   13   27 1   
    26   13   28 1   
    27   14   29 1   
    28   16   17 1   
    29   16   31 1   
    30   16   32 1   
    31   17   18 1   
    32   17   30 1   
    33   18   19 1   
    34   18   20 1   
    35   33   36 1   
    36   34   36 1   
    37   35   36 1   
@<TRIPOS>SUBSTRUCTURE
     1 488         1 TEMP              0 ****  ****    0 ROOT
