@<TRIPOS>MOLECULE
488
   36    38     1     0     0
SMALL
bcc


@<TRIPOS>ATOM
      1 C1          3.3450    1.5830   -0.1860 ca        1 488      0.195100
      2 N1          0.8520   -0.0220    0.4580 n2        1 488     -0.588900
      3 O1          2.2980    2.4570   -0.2260 oh        1 488     -0.499100
      4 S1          1.9790   -2.2470   -0.3130 ss        1 488     -0.331300
      5 C2          4.6130    2.1980   -0.3130 ca        1 488     -0.181000
      6 N2         -2.1760    0.6500   -0.0090 n3        1 488     -0.676600
      7 S2         -2.6180   -1.9860   -0.4310 ss        1 488     -0.536200
      8 C3          5.7620    1.4280   -0.2870 ca        1 488     -0.086000
      9 C4          5.6790    0.0390   -0.1370 ca        1 488     -0.186000
     10 C5          4.4380   -0.5700   -0.0180 ca        1 488     -0.068000
     11 C6          3.2500    0.1830   -0.0420 ca        1 488     -0.213900
     12 C12         1.9810   -0.5290    0.0760 ce        1 488      0.512800
     13 C13         0.2350   -2.3800    0.0510 c3        1 488     -0.030300
     14 C14        -0.2490   -0.9750    0.4970 c3        1 488      0.122500
     15 C15        -1.4460   -0.5440   -0.3700 c3        1 488      0.332600
     16 C16        -4.0530   -0.9260   -0.4040 c3        1 488      0.029700
     17 C17        -3.5450    0.5170   -0.5240 c3        1 488      0.029500
     18 C19        -4.6160    1.4700    0.1220 c         1 488      0.926600
     19 O20        -4.9580    1.2540    1.3160 o         1 488     -0.818300
     20 O21        -5.0850    2.3640   -0.6280 o         1 488     -0.818300
     21 HO1         1.4530    1.9850   -0.1270 ho        1 488      0.468000
     22 H2          4.6550    3.2900   -0.4290 ha        1 488      0.149000
     23 H3          6.7470    1.9100   -0.3830 ha        1 488      0.127000
     24 H4          6.5940   -0.5680   -0.1150 ha        1 488      0.129000
     25 H5          4.3740   -1.6660    0.1000 ha        1 488      0.146000
     26 H13        -0.3040   -2.7340   -0.8600 h1        1 488      0.094700
     27 H13A        0.0800   -3.1210    0.8670 h1        1 488      0.094700
     28 H14        -0.5880   -1.0300    1.5760 h1        1 488      0.102700
     29 H15        -1.1100   -0.4170   -1.4360 h2        1 488      0.073700
     30 H16        -4.7210   -1.1800   -1.2550 h1        1 488      0.078200
     31 H16A       -4.6020   -1.0630    0.5580 h1        1 488      0.078200
     32 H17        -3.4810    0.7900   -1.6180 h1        1 488      0.063700
     33 H18        -1.0290    1.3190    1.6230 h1        1 488      0.044700
     34 H18A       -2.7210    1.9820    1.5060 h1        1 488      0.044700
     35 H18B       -2.4650    0.2840    2.0940 h1        1 488      0.044700
     36 C18        -2.0900    1.0610    1.3730 c3        1 488      0.145100
@<TRIPOS>BOND
     1    1    3 1   
     2    1    5 ar  
     3    1   11 ar  
     4    2   12 2   
     5    2   14 1   
     6    3   21 1   
     7    4   12 1   
     8    4   13 1   
     9    5    8 ar  
    10    5   22 1   
    11    6   15 1   
    12    6   17 1   
    13    6   36 1   
    14    7   15 1   
    15    7   16 1   
    16    8    9 ar  
    17    8   23 1   
    18    9   10 ar  
    19    9   24 1   
    20   10   11 ar  
    21   10   25 1   
    22   11   12 1   
    23   13   14 1   
    24   13   26 1   
    25   13   27 1   
    26   14   15 1   
    27   14   28 1   
    28   15   29 1   
    29   16   17 1   
    30   16   30 1   
    31   16   31 1   
    32   17   18 1   
    33   17   32 1   
    34   18   19 1   
    35   18   20 1   
    36   33   36 1   
    37   34   36 1   
    38   35   36 1   
@<TRIPOS>SUBSTRUCTURE
     1 488         1 TEMP              0 ****  ****    0 ROOT
