@<TRIPOS>MOLECULE
488
   36    36     1     0     0
SMALL
bcc


@<TRIPOS>ATOM
      1 C1          0.3460    1.3170    2.0620 c2        1 488      0.085000
      2 N1         -2.7990    1.9450    1.7090 n2        1 488     -0.032000
      3 O1          0.0630    2.1540    3.0970 oh        1 488     -0.261000
      4 S1         -2.5520    0.4420   -0.4190 s4        1 488      1.238000
      5 C2          1.7720    0.8830    2.0570 c3        1 488     -0.133000
      6 N2         -5.5210   -2.9430   -2.8860 n2        1 488      0.078000
      7 S2         -6.1890   -1.6620   -0.6960 ss        1 488      0.220000
      8 C3          2.1230   -0.0320    0.9470 c2        1 488     -0.115000
      9 C4          1.2200   -0.4310    0.0210 c2        1 488     -0.160000
     10 C5         -0.1330    0.0160    0.0550 c1        1 488     -0.180000
     11 C6         -0.5400    0.8920    1.0970 c2        1 488     -0.083000
     12 C12        -1.9210    1.2110    0.9410 c2        1 488     -0.722000
     13 C13        -4.1790    1.0880   -0.0690 c3        1 488     -0.515000
     14 C14        -4.0090    1.8710    1.2040 c2        1 488     -0.255000
     15 C15        -5.5430   -1.7770   -2.2240 c2        1 488     -0.585000
     16 C16        -7.8910   -1.2810   -0.9140 c3        1 488     -0.390000
     17 C17        -5.4960   -3.9460   -3.4850 c1        1 488     -0.076000
     18 C19        -5.4650   -5.2470   -4.2720 c2        1 488      0.454000
     19 O20        -6.0370   -6.2130   -3.7260 o         1 488     -0.488500
     20 O21        -4.8730   -5.1790   -5.3700 o         1 488     -0.488500
     21 HO1        -0.8790    2.3970    3.0540 ho        1 488      0.266000
     22 H2          1.9950    0.3770    3.0390 hc        1 488      0.135000
     23 H3          2.4270    1.7990    2.0060 hc        1 488      0.135000
     24 H4          3.1710   -0.3670    0.9270 ha        1 488      0.121000
     25 H5          1.5060   -1.1180   -0.7920 ha        1 488      0.142000
     26 H13        -2.6860   -0.7910   -0.0250 hs        1 488     -0.150000
     27 H13A       -4.9860    0.3080    0.0050 h1        1 488      0.155500
     28 H14        -4.4500    1.7650   -0.9150 h1        1 488      0.155500
     29 H15        -4.8660    2.3430    1.6890 h4        1 488      0.157000
     30 H16        -8.4390   -2.1030   -1.4230 h1        1 488      0.082000
     31 H16A       -8.0380   -0.3490   -1.5020 h1        1 488      0.082000
     32 H17        -8.3090   -1.1410    0.1080 h1        1 488      0.082000
     33 H18        -3.9670   -0.3200   -2.4020 hc        1 488      0.041333
     34 H18A       -5.6420    0.3070   -2.6780 hc        1 488      0.041333
     35 H18B       -4.8180   -0.6750   -3.9590 hc        1 488      0.041333
     36 C18        -4.9660   -0.5680   -2.8560 c3        1 488     -0.078000
@<TRIPOS>BOND
     1    1    3 1   
     2    1    5 1   
     3    1   11 1   
     4    2   12 1   
     5    2   14 1   
     6    3   21 1   
     7    4   12 1   
     8    4   13 1   
     9    4   26 1   
    10    5    8 1   
    11    5   22 1   
    12    5   23 1   
    13    6   15 1   
    14    6   17 1   
    15    7   15 1   
    16    7   16 1   
    17    8    9 1   
    18    8   24 1   
    19    9   10 1   
    20    9   25 1   
    21   10   11 1   
    22   11   12 1   
    23   13   14 1   
    24   13   27 1   
    25   13   28 1   
    26   14   29 1   
    27   15   36 1   
    28   16   30 1   
    29   16   31 1   
    30   16   32 1   
    31   17   18 1   
    32   18   19 1   
    33   18   20 1   
    34   33   36 1   
    35   34   36 1   
    36   35   36 1   
@<TRIPOS>SUBSTRUCTURE
     1 488         1 TEMP              0 ****  ****    0 ROOT
