@<TRIPOS>MOLECULE
488
   36    34     1     0     0
SMALL
bcc


@<TRIPOS>ATOM
      1 C1          3.3950    1.5250    0.1580 c1        1 488      0.118000
      2 N1          0.4270    0.2990   -0.1010 n1        1 488     -0.087000
      3 O1          2.7830    2.6530   -0.4200 o         1 488     -0.215000
      4 S1          0.6250    1.3940    2.0160 ss        1 488      0.023000
      5 C2          4.7810    1.5790    0.1060 c1        1 488     -0.228000
      6 N2         -1.9110   -1.3800   -1.0840 n3        1 488     -0.209000
      7 S2         -3.2770   -0.6200    0.7870 ss        1 488     -0.119000
      8 C3          5.5390    0.6880    0.8520 c1        1 488     -0.136000
      9 C4          4.9120   -0.2560    1.6480 c1        1 488     -0.136000
     10 C5          3.5260   -0.3110    1.7010 c1        1 488     -0.074000
     11 C6          2.7680    0.5790    0.9550 c2        1 488     -0.042000
     12 C12         1.2560    0.5730    1.0760 c2        1 488     -0.113000
     13 C13        -1.0000    1.3100    1.5680 c3        1 488     -0.264000
     14 C14        -0.9920    0.4280    0.1320 c2        1 488     -0.085000
     15 C15        -1.7370   -0.8700    0.1930 c3        1 488     -0.031000
     16 C16        -4.2930   -0.7750   -0.5240 c3        1 488     -0.235000
     17 C17        -3.4430   -0.7610   -1.6850 c3        1 488     -0.111000
     18 C18        -1.9660   -2.8190   -1.0230 c3        1 488     -0.112000
     19 C19        -3.3450    0.5000   -2.3060 c2        1 488      0.357000
     20 O20        -4.2680    1.3470   -2.1610 o         1 488     -0.557500
     21 O21        -2.2970    0.8130   -2.9350 o         1 488     -0.557500
     22 HO1         3.2840    2.9500   -1.0960 ho        1 488      0.214000
     23 H2          5.2220    2.2270   -0.4750 ha        1 488      0.128000
     24 H3          6.5200    0.7270    0.8150 ha        1 488      0.124000
     25 H4          5.4430   -0.8610    2.1940 ha        1 488      0.124000
     26 H5          3.0840   -0.9780    2.2630 ha        1 488      0.145000
     27 H13        -1.3580    2.2060    1.4160 h1        1 488      0.125500
     28 H13A       -1.5220    0.8420    2.2560 h1        1 488      0.125500
     29 H14        -1.4540    0.8950   -0.6010 ha        1 488      0.231000
     30 H15        -1.2620   -1.5060    0.7460 h2        1 488      0.098000
     31 H16        -4.9200   -0.0220   -0.5550 h1        1 488      0.106500
     32 H16A       -4.7830   -1.6220   -0.4730 h1        1 488      0.106500
     33 H17        -3.8020   -1.3120   -2.4110 h1        1 488      0.095000
     34 H18        -2.6360   -3.0950   -0.3540 h1        1 488      0.064000
     35 H18A       -1.0800   -3.1720   -0.7670 h1        1 488      0.064000
     36 H18B       -2.2190   -3.1770   -1.9110 h1        1 488      0.064000
@<TRIPOS>BOND
     1    1    5 1   
     2    1   11 1   
     3    2   12 1   
     4    3   22 1   
     5    4   12 1   
     6    4   13 1   
     7    5   23 1   
     8    6   15 1   
     9    6   17 1   
    10    6   18 1   
    11    7   15 1   
    12    7   16 1   
    13    8    9 1   
    14    8   24 1   
    15    9   25 1   
    16   10   11 1   
    17   10   26 1   
    18   11   12 1   
    19   13   14 1   
    20   13   27 1   
    21   13   28 1   
    22   14   15 1   
    23   14   29 1   
    24   15   30 1   
    25   16   17 1   
    26   16   31 1   
    27   16   32 1   
    28   17   19 1   
    29   17   33 1   
    30   18   34 1   
    31   18   35 1   
    32   18   36 1   
    33   19   20 1   
    34   19   21 1   
@<TRIPOS>SUBSTRUCTURE
     1 488         1 TEMP              0 ****  ****    0 ROOT
