@<TRIPOS>MOLECULE
488
   36    33     1     0     0
SMALL
bcc


@<TRIPOS>ATOM
      1 C1          0.5820    0.6670    0.7040 ce        1 488      0.181100
      2 N1         -2.8090    1.1110    0.9050 ne        1 488     -0.327600
      3 O1          0.6250    0.7510   -0.6690 oh        1 488     -0.516100
      4 S1         -1.8350   -1.2100   -0.2060 s         1 488     -0.497300
      5 C2          1.9080    0.9270    1.2610 ce        1 488     -0.128000
      6 N2         -5.8700   -2.2160   -3.6740 ne        1 488     -0.275700
      7 S2         -4.5580   -2.4220   -1.4270 ss        1 488      0.045700
      8 C3          2.3580    0.4850    2.4350 c2        1 488     -0.194000
      9 C4         -0.7070    0.3230    3.9990 c1        1 488     -0.185500
     10 C5         -0.6170    0.3770    2.8050 ch        1 488     -0.102300
     11 C6         -0.5660    0.4340    1.4030 cf        1 488     -0.057900
     12 C12        -1.8770    0.2370    0.7220 cf        1 488      0.197500
     13 C13        -5.2040    1.4240    0.8850 c2        1 488     -0.227000
     14 C14        -4.0620    1.0440    0.2870 ce        1 488      0.041600
     15 C15        -4.9780   -1.6590   -2.8340 c2        1 488     -0.039800
     16 C16        -5.7950   -2.0410   -0.2420 c3        1 488     -0.164000
     17 C17        -6.6470   -2.6690   -4.4170 cg        1 488      0.005000
     18 C19        -7.6790   -3.2770   -5.3700 c         1 488      0.984600
     19 O20        -8.2350   -4.3070   -4.9420 o         1 488     -0.739800
     20 O21        -7.8220   -2.6550   -6.4410 o         1 488     -0.739800
     21 HO1        -0.1760    0.3290   -1.0350 ho        1 488      0.454000
     22 H2          2.5540    1.5250    0.5920 ha        1 488      0.137000
     23 H3          3.3730    0.7210    2.7830 ha        1 488      0.118500
     24 H4          1.7600   -0.1330    3.1180 ha        1 488      0.118500
     25 H5         -0.7890    0.2780    5.0530 ha        1 488      0.157500
     26 H13        -3.2390   -1.4630   -0.7890 DU        1 488      0.214000
     27 H13A       -5.2650    1.7450    1.9310 ha        1 488      0.116500
     28 H14        -6.1500    1.4230    0.3290 ha        1 488      0.116500
     29 H15        -4.0790    0.7210   -0.7790 h4        1 488      0.127000
     30 H16        -6.8090   -2.3120   -0.6110 h1        1 488      0.061033
     31 H16A       -5.5640   -2.6500    0.6610 h1        1 488      0.061033
     32 H17        -5.8030   -0.9640    0.0410 h1        1 488      0.061033
     33 H18        -3.3650   -0.2580   -2.7230 hc        1 488      0.018033
     34 H18A       -4.2470   -0.2370   -4.2990 hc        1 488      0.018033
     35 H18B       -5.0110    0.5000   -2.8370 hc        1 488      0.018033
     36 C18        -4.3760   -0.3520   -3.1930 c3        1 488     -0.058400
@<TRIPOS>BOND
     1    1    3 1   
     2    1    5 1   
     3    1   11 2   
     4    2   12 2   
     5    2   14 1   
     6    3   21 1   
     7    4   12 1   
     8    5    8 2   
     9    5   22 1   
    10    6   15 2   
    11    6   17 1   
    12    7   15 1   
    13    7   16 1   
    14    8   23 1   
    15    8   24 1   
    16    9   10 3   
    17    9   25 1   
    18   10   11 1   
    19   11   12 1   
    20   13   14 2   
    21   13   27 1   
    22   13   28 1   
    23   14   29 1   
    24   15   36 1   
    25   16   30 1   
    26   16   31 1   
    27   16   32 1   
    28   17   18 3   
    29   18   19 1   
    30   18   20 1   
    31   33   36 1   
    32   34   36 1   
    33   35   36 1   
@<TRIPOS>SUBSTRUCTURE
     1 488         1 TEMP              0 ****  ****    0 ROOT
