@<TRIPOS>MOLECULE
48B
   52    55     1     0     0
SMALL
bcc


@<TRIPOS>ATOM
      1 F23         2.2710   -2.2150   -1.8400 f         1 48B     -0.057900
      2 C17         3.2990   -1.6390   -1.2070 ca        1 48B     -0.002700
      3 C18         4.1650   -2.4040   -0.3440 ca        1 48B      0.485200
      4 N19         5.1760   -1.8490    0.3140 nb        1 48B     -0.587000
      5 C20         5.3690   -0.4860    0.1370 ca        1 48B      0.756900
      6 N24         6.4780    0.1320    0.9390 n4        1 48B     -0.580100
      7 C30         6.0960    0.3090    2.3400 ca        1 48B     -0.171400
      8 C29         6.2910   -0.7460    3.2560 ca        1 48B     -0.041000
      9 C28         6.0050   -0.5460    4.5960 ca        1 48B     -0.174000
     10 C27         5.5130    0.7020    5.0340 ca        1 48B      0.237100
     11 O31         5.2080    0.9810    6.3200 oh        1 48B     -0.432100
     12 C26         5.3030    1.7540    4.1050 ca        1 48B     -0.174000
     13 C25         5.5880    1.5580    2.7700 ca        1 48B     -0.041000
     14 N21         4.6340    0.3310   -0.6660 nb        1 48B     -0.652000
     15 C22         3.5910   -0.2540   -1.3340 ca        1 48B      0.466200
     16 N16         2.7310    0.6220   -2.1680 n4        1 48B     -0.618100
     17 C11         3.0660    0.6120   -3.6030 ca        1 48B     -0.028400
     18 C10         2.4260   -0.3030   -4.4590 ca        1 48B     -0.073500
     19 C12         3.9640    1.5610   -4.1190 ca        1 48B     -0.073500
     20 C13         4.2020    1.6100   -5.4920 ca        1 48B     -0.073000
     21 C14         3.5480    0.7130   -6.3570 ca        1 48B      0.051600
     22 C15         2.6660   -0.2510   -5.8300 ca        1 48B     -0.073000
     23 N9          3.7790    0.7770   -7.7970 n4        1 48B     -0.603200
     24 C7          4.8980   -0.1560   -8.3100 c         1 48B      0.594700
     25 O8          5.6710   -0.5520   -7.4530 o         1 48B     -0.419100
     26 C4          4.9140   -0.3830   -9.7510 ca        1 48B     -0.222600
     27 C5          3.7810   -0.4940  -10.5840 ca        1 48B      0.041400
     28 CL1         2.1870   -0.3660   -9.9760 cl        1 48B     -0.059400
     29 C6          3.9290   -0.7520  -11.9450 ca        1 48B     -0.097000
     30 C3          6.1940   -0.5570  -10.3180 ca        1 48B     -0.029000
     31 C2          6.3360   -0.8050  -11.6810 ca        1 48B     -0.112000
     32 C1          5.2090   -0.9010  -12.4960 ca        1 48B     -0.019000
     33 H18         3.9980   -3.5000   -0.2040 h4        1 48B      0.129100
     34 HN24        6.7260    1.0500    0.5370 hn        1 48B      0.491800
     35 H29         6.6770   -1.7280    2.9290 ha        1 48B      0.160500
     36 H28         6.1710   -1.3610    5.3220 ha        1 48B      0.196000
     37 HO31        5.4160    0.2150    6.8890 ho        1 48B      0.468000
     38 H26         4.9230    2.7240    4.4740 ha        1 48B      0.196000
     39 H25         5.4360    2.3890    2.0610 ha        1 48B      0.160500
     40 HN16        2.7900    1.5990   -1.8250 hn        1 48B      0.496300
     41 H10         1.7240   -1.0690   -4.0740 ha        1 48B      0.189500
     42 H12         4.4850    2.2850   -3.4650 ha        1 48B      0.189500
     43 H13         4.9110    2.3690   -5.8770 ha        1 48B      0.198000
     44 H15         2.1460   -0.9780   -6.4850 ha        1 48B      0.198000
     45 HN9         4.0350    1.7380   -8.0590 hn        1 48B      0.482800
     46 H6          3.0390   -0.8460  -12.5960 ha        1 48B      0.197000
     47 H3          7.0900   -0.4980   -9.6730 ha        1 48B      0.174000
     48 H2          7.3460   -0.9330  -12.1120 ha        1 48B      0.193000
     49 H1          5.3160   -1.1010  -13.5790 ha        1 48B      0.195000
     50 H242        7.2980   -0.4980    0.8920 hn        1 48B      0.491800
     51 H162        1.7550    0.2910   -2.0530 hn        1 48B      0.496300
     52 H92         2.8980    0.5190   -8.3180 hn        1 48B      0.482800
@<TRIPOS>BOND
     1    1    2 1   
     2    2    3 ar  
     3    2   15 ar  
     4    3    4 ar  
     5    3   33 1   
     6    4    5 ar  
     7    5    6 1   
     8    5   14 ar  
     9    6    7 1   
    10    6   34 1   
    11    6   50 1   
    12    7    8 ar  
    13    7   13 ar  
    14    8    9 ar  
    15    8   35 1   
    16    9   10 ar  
    17    9   36 1   
    18   10   11 1   
    19   10   12 ar  
    20   11   37 1   
    21   12   13 ar  
    22   12   38 1   
    23   13   39 1   
    24   14   15 ar  
    25   15   16 1   
    26   16   17 1   
    27   16   40 1   
    28   16   51 1   
    29   17   18 ar  
    30   17   19 ar  
    31   18   22 ar  
    32   18   41 1   
    33   19   20 ar  
    34   19   42 1   
    35   20   21 ar  
    36   20   43 1   
    37   21   22 ar  
    38   21   23 1   
    39   22   44 1   
    40   23   24 1   
    41   23   45 1   
    42   23   52 1   
    43   24   25 2   
    44   24   26 1   
    45   26   27 ar  
    46   26   30 ar  
    47   27   28 1   
    48   27   29 ar  
    49   29   32 ar  
    50   29   46 1   
    51   30   31 ar  
    52   30   47 1   
    53   31   32 ar  
    54   31   48 1   
    55   32   49 1   
@<TRIPOS>SUBSTRUCTURE
     1 48B         1 TEMP              0 ****  ****    0 ROOT
