@<TRIPOS>MOLECULE
48B
   49    52     1     0     0
SMALL
bcc


@<TRIPOS>ATOM
      1 F23         3.2840   -4.3930   -1.0460 f         1 48B     -0.132900
      2 C17         3.4670   -3.1380   -0.5780 ca        1 48B     -0.224700
      3 C18         4.7570   -2.5810   -0.4760 ca        1 48B      0.460200
      4 N19         4.9950   -1.3420   -0.0280 nb        1 48B     -0.741000
      5 C20         3.8820   -0.6010    0.3440 ca        1 48B      0.886900
      6 N24         4.0650    0.6790    0.9180 nh        1 48B     -0.693300
      7 C30         5.2330    1.4360    0.6420 ca        1 48B      0.081600
      8 C29         5.1270    2.6830   -0.0150 ca        1 48B     -0.093000
      9 C28         6.2470    3.4780   -0.2150 ca        1 48B     -0.176000
     10 C27         7.5000    3.0270    0.2300 ca        1 48B      0.119100
     11 O31         8.5710    3.8580   -0.0040 oh        1 48B     -0.496100
     12 C26         7.6240    1.7920    0.8800 ca        1 48B     -0.176000
     13 C25         6.4970    1.0030    1.0890 ca        1 48B     -0.093000
     14 N21         2.5690   -1.0350    0.2630 nb        1 48B     -0.788000
     15 C22         2.3520   -2.3090   -0.1710 ca        1 48B      0.694200
     16 N16         1.0690   -2.8590   -0.1870 nh        1 48B     -0.715300
     17 C11        -0.1080   -2.0890   -0.0390 ca        1 48B      0.101600
     18 C10        -1.1350   -2.1780   -1.0020 ca        1 48B     -0.110500
     19 C12        -0.3240   -1.2850    1.0990 ca        1 48B     -0.110500
     20 C13        -1.5160   -0.5940    1.2570 ca        1 48B     -0.157000
     21 C14        -2.5470   -0.6810    0.2910 ca        1 48B      0.062600
     22 C15        -2.3330   -1.4940   -0.8410 ca        1 48B     -0.157000
     23 N9         -3.7250    0.0540    0.5050 n         1 48B     -0.459100
     24 C7         -4.8770    0.0380   -0.2660 c         1 48B      0.683700
     25 O8         -4.9910   -0.6030   -1.3250 o         1 48B     -0.576100
     26 C4         -5.9940    0.9090    0.2230 ca        1 48B     -0.141600
     27 C5         -6.5650    0.7800    1.4960 ca        1 48B      0.036400
     28 CL1        -6.0100   -0.3870    2.6000 cl        1 48B     -0.080400
     29 C6         -7.6280    1.6090    1.8760 ca        1 48B     -0.130000
     30 C3         -6.5020    1.8620   -0.6670 ca        1 48B     -0.075000
     31 C2         -7.5550    2.6900   -0.2850 ca        1 48B     -0.133000
     32 C1         -8.1160    2.5640    0.9860 ca        1 48B     -0.102000
     33 H18         5.6440   -3.1700   -0.7770 h4        1 48B      0.040100
     34 HN24        3.2300    1.2330    0.9520 hn        1 48B      0.433800
     35 H29         4.1500    3.0430   -0.3720 ha        1 48B      0.146500
     36 H28         6.1690    4.4500   -0.7220 ha        1 48B      0.144500
     37 HO31        9.3650    3.4240    0.3410 ho        1 48B      0.420000
     38 H26         8.6080    1.4450    1.2260 ha        1 48B      0.144500
     39 H25         6.6080    0.0360    1.6050 ha        1 48B      0.146500
     40 HN16        0.9780   -3.6540   -0.7870 hn        1 48B      0.439800
     41 H10        -1.0040   -2.8010   -1.9010 ha        1 48B      0.145500
     42 H12         0.4520   -1.1970    1.8760 ha        1 48B      0.145500
     43 H13        -1.6460    0.0260    2.1580 ha        1 48B      0.154500
     44 H15        -3.1100   -1.5970   -1.6170 ha        1 48B      0.154500
     45 HN9        -3.7550    0.5740    1.3550 hn        1 48B      0.323500
     46 H6         -8.0790    1.5020    2.8740 ha        1 48B      0.153000
     47 H3         -6.0660    1.9400   -1.6760 ha        1 48B      0.157000
     48 H2         -7.9470    3.4390   -0.9900 ha        1 48B      0.144000
     49 H1         -8.9500    3.2150    1.2890 ha        1 48B      0.143000
@<TRIPOS>BOND
     1    1    2 1   
     2    2    3 ar  
     3    2   15 ar  
     4    3    4 ar  
     5    3   33 1   
     6    4    5 ar  
     7    5    6 1   
     8    5   14 ar  
     9    6    7 1   
    10    6   34 1   
    11    7    8 ar  
    12    7   13 ar  
    13    8    9 ar  
    14    8   35 1   
    15    9   10 ar  
    16    9   36 1   
    17   10   11 1   
    18   10   12 ar  
    19   11   37 1   
    20   12   13 ar  
    21   12   38 1   
    22   13   39 1   
    23   14   15 ar  
    24   15   16 1   
    25   16   17 1   
    26   16   40 1   
    27   17   18 ar  
    28   17   19 ar  
    29   18   22 ar  
    30   18   41 1   
    31   19   20 ar  
    32   19   42 1   
    33   20   21 ar  
    34   20   43 1   
    35   21   22 ar  
    36   21   23 1   
    37   22   44 1   
    38   23   24 1   
    39   23   45 1   
    40   24   25 2   
    41   24   26 1   
    42   26   27 ar  
    43   26   30 ar  
    44   27   28 1   
    45   27   29 ar  
    46   29   32 ar  
    47   29   46 1   
    48   30   31 ar  
    49   30   47 1   
    50   31   32 ar  
    51   31   48 1   
    52   32   49 1   
@<TRIPOS>SUBSTRUCTURE
     1 48B         1 TEMP              0 ****  ****    0 ROOT
