@<TRIPOS>MOLECULE
48B
   49    44     1     0     0
SMALL
bcc


@<TRIPOS>ATOM
      1 F23         1.5270    0.9590    2.9100 f         1 48B     -0.079000
      2 C17         0.2080    0.7370    2.8560 c2        1 48B     -0.067000
      3 C18        -0.6660    1.7240    3.2100 c2        1 48B     -0.025000
      4 N19        -1.9850    1.4840    3.2110 n1        1 48B     -0.194000
      5 C20        -2.4540    0.2540    2.8570 c1        1 48B      0.157000
      6 N24        -3.8530    0.0060    2.8410 n3        1 48B     -0.213000
      7 C30        -4.7430    0.9180    3.4670 c2        1 48B     -0.002000
      8 C29        -5.1530    0.7010    4.7730 c1        1 48B     -0.126000
      9 C28        -6.0400    1.5790    5.3760 c1        1 48B     -0.146000
     10 C27        -6.5160    2.6750    4.6740 c1        1 48B      0.076000
     11 O31        -7.3880    3.5870    5.2990 o         1 48B     -0.250000
     12 C26        -6.1060    2.8920    3.3680 c2        1 48B     -0.206000
     13 C25        -5.2200    2.0140    2.7640 c2        1 48B     -0.059000
     14 N21        -1.5830   -0.7330    2.5030 n1        1 48B     -0.259000
     15 C22        -0.2620   -0.4940    2.5020 c1        1 48B      0.135000
     16 N16         0.6490   -1.5450    2.2080 n3        1 48B     -0.218000
     17 C11         1.3820   -1.5310    0.9910 c2        1 48B      0.020000
     18 C10         0.7420   -1.8090   -0.2070 c2        1 48B     -0.135000
     19 C12         2.7420   -1.2610    1.0040 c1        1 48B     -0.132000
     20 C13         3.4620   -1.2680   -0.1810 c1        1 48B     -0.156000
     21 C14         2.8230   -1.5460   -1.3790 c1        1 48B      0.056000
     22 C15         1.4630   -1.8160   -1.3930 c1        1 48B     -0.125000
     23 N9          3.5540   -1.5170   -2.5990 n         1 48B     -0.312000
     24 C7          3.0840   -0.7380   -3.6900 c2        1 48B      0.356000
     25 O8          2.0590   -0.0960   -3.5810 o         1 48B     -0.338000
     26 C4          3.8510   -0.7250   -4.9970 c2        1 48B     -0.120000
     27 C5          3.2960   -1.3010   -6.1300 c2        1 48B     -0.042000
     28 CL1         1.7910   -2.1720   -6.0160 cl        1 48B     -0.004000
     29 C6          3.9530   -1.2080   -7.3470 c1        1 48B     -0.130000
     30 C3          5.0630   -0.0580   -5.0820 c1        1 48B     -0.075000
     31 C2          5.7190    0.0350   -6.3000 c1        1 48B     -0.118000
     32 C1          5.1640   -0.5410   -7.4320 c1        1 48B     -0.118000
     33 H18        -0.3300    2.6050    3.4640 h4        1 48B      0.180000
     34 HN24       -4.1810   -0.7250    2.4050 hn        1 48B      0.229000
     35 H29        -4.8170   -0.0700    5.2680 ha        1 48B      0.136000
     36 H28        -6.3280    1.4260    6.2960 ha        1 48B      0.153000
     37 HO31       -8.2300    3.3650    5.1170 ho        1 48B      0.219000
     38 H26        -6.4420    3.6640    2.8730 ha        1 48B      0.138000
     39 H25        -4.9310    2.1670    1.8440 ha        1 48B      0.156000
     40 HN16        0.7580   -2.2320    2.7990 hn        1 48B      0.216000
     41 H10        -0.2150   -1.9980   -0.2170 ha        1 48B      0.143000
     42 H12         3.1930   -1.0650    1.8480 ha        1 48B      0.138000
     43 H13         4.4200   -1.0780   -0.1710 ha        1 48B      0.132000
     44 H15         1.0120   -2.0110   -2.2360 ha        1 48B      0.176000
     45 HN9         4.3130   -2.0140   -2.6870 hn        1 48B      0.236000
     46 H6          3.5620   -1.6130   -8.1450 ha        1 48B      0.152000
     47 H3          5.4540    0.3470   -4.2850 ha        1 48B      0.157000
     48 H2          6.5730    0.5050   -6.3600 ha        1 48B      0.143500
     49 H1          5.6270   -0.4750   -8.2900 ha        1 48B      0.143500
@<TRIPOS>BOND
     1    1    2 1   
     2    2    3 1   
     3    2   15 1   
     4    3    4 1   
     5    3   33 1   
     6    5    6 1   
     7    5   14 1   
     8    6    7 1   
     9    6   34 1   
    10    7    8 1   
    11    7   13 1   
    12    8   35 1   
    13    9   10 1   
    14    9   36 1   
    15   10   12 1   
    16   11   37 1   
    17   12   13 1   
    18   12   38 1   
    19   13   39 1   
    20   15   16 1   
    21   16   17 1   
    22   16   40 1   
    23   17   18 1   
    24   17   19 1   
    25   18   22 1   
    26   18   41 1   
    27   19   42 1   
    28   20   21 1   
    29   20   43 1   
    30   21   23 1   
    31   22   44 1   
    32   23   24 1   
    33   23   45 1   
    34   24   25 1   
    35   24   26 1   
    36   26   27 1   
    37   26   30 1   
    38   27   28 1   
    39   27   29 1   
    40   29   46 1   
    41   30   47 1   
    42   31   32 1   
    43   31   48 1   
    44   32   49 1   
@<TRIPOS>SUBSTRUCTURE
     1 48B         1 TEMP              0 ****  ****    0 ROOT
