@<TRIPOS>MOLECULE
48B
   49    52     1     0     0
SMALL
bcc


@<TRIPOS>ATOM
      1 F23         0.0110   -0.9530   -0.1270 f         1 48B     -0.132900
      2 C17         1.2750   -0.4850   -0.0060 ca        1 48B     -0.224700
      3 C18         1.8480   -0.2620    1.2610 ca        1 48B      0.460200
      4 N19         3.0950    0.1910    1.4390 nb        1 48B     -0.741000
      5 C20         3.8280    0.4400    0.2870 ca        1 48B      0.886900
      6 N24         5.1170    1.0120    0.3970 nh        1 48B     -0.693300
      7 C30         5.8840    0.8440    1.5780 ca        1 48B      0.081600
      8 C29         7.1220    0.1630    1.5260 ca        1 48B     -0.093000
      9 C28         7.9280    0.0660    2.6510 ca        1 48B     -0.176000
     10 C27         7.4980    0.6410    3.8570 ca        1 48B      0.119100
     11 O31         8.3390    0.5050    4.9380 oh        1 48B     -0.496100
     12 C26         6.2730    1.3170    3.9290 ca        1 48B     -0.176000
     13 C25         5.4730    1.4220    2.7960 ca        1 48B     -0.093000
     14 N21         3.3760    0.2330   -1.0070 nb        1 48B     -0.788000
     15 C22         2.0940   -0.2030   -1.1650 ca        1 48B      0.694200
     16 N16         1.5290   -0.3420   -2.4340 nh        1 48B     -0.715300
     17 C11         2.2860   -0.3220   -3.6280 ca        1 48B      0.101600
     18 C10         2.1740   -1.3820   -4.5520 ca        1 48B     -0.110500
     19 C12         3.1000    0.7780   -3.9660 ca        1 48B     -0.110500
     20 C13         3.7790    0.8070   -5.1750 ca        1 48B     -0.157000
     21 C14         3.6670   -0.2570   -6.1040 ca        1 48B      0.062600
     22 C15         2.8440   -1.3510   -5.7670 ca        1 48B     -0.157000
     23 N9          4.3900   -0.1710   -7.3050 n         1 48B     -0.459100
     24 C7          4.3510   -1.0530   -8.3740 c         1 48B      0.683700
     25 O8          3.6970   -2.1110   -8.3730 o         1 48B     -0.576100
     26 C4          5.2130   -0.6900   -9.5440 ca        1 48B     -0.141600
     27 C5          5.0920    0.5200  -10.2390 ca        1 48B      0.036400
     28 CL1         3.9440    1.6890   -9.7840 cl        1 48B     -0.080400
     29 C6          5.9110    0.7810  -11.3440 ca        1 48B     -0.130000
     30 C3          6.1510   -1.6390   -9.9700 ca        1 48B     -0.075000
     31 C2          6.9690   -1.3750  -11.0660 ca        1 48B     -0.133000
     32 C1          6.8500   -0.1650  -11.7500 ca        1 48B     -0.102000
     33 H18         1.2670   -0.4640    2.1800 h4        1 48B      0.040100
     34 HN24        5.6600    0.9550   -0.4430 hn        1 48B      0.433800
     35 H29         7.4650   -0.2960    0.5850 ha        1 48B      0.146500
     36 H28         8.8930   -0.4600    2.6130 ha        1 48B      0.144500
     37 HO31        7.9200    0.9340    5.6970 ho        1 48B      0.420000
     38 H26         5.9420    1.7650    4.8760 ha        1 48B      0.144500
     39 H25         4.5140    1.9600    2.8640 ha        1 48B      0.146500
     40 HN16        0.7260   -0.9370   -2.4550 hn        1 48B      0.439800
     41 H10         1.5420   -2.2550   -4.3240 ha        1 48B      0.145500
     42 H12         3.2070    1.6280   -3.2740 ha        1 48B      0.145500
     43 H13         4.4070    1.6820   -5.4030 ha        1 48B      0.154500
     44 H15         2.7230   -2.2000   -6.4620 ha        1 48B      0.154500
     45 HN9         4.9200    0.6650   -7.4260 hn        1 48B      0.323500
     46 H6          5.8100    1.7310  -11.8920 ha        1 48B      0.153000
     47 H3          6.2230   -2.6000   -9.4360 ha        1 48B      0.157000
     48 H2          7.7050   -2.1240  -11.3940 ha        1 48B      0.144000
     49 H1          7.4940    0.0450  -12.6180 ha        1 48B      0.143000
@<TRIPOS>BOND
     1    1    2 1   
     2    2    3 ar  
     3    2   15 ar  
     4    3    4 ar  
     5    3   33 1   
     6    4    5 ar  
     7    5    6 1   
     8    5   14 ar  
     9    6    7 1   
    10    6   34 1   
    11    7    8 ar  
    12    7   13 ar  
    13    8    9 ar  
    14    8   35 1   
    15    9   10 ar  
    16    9   36 1   
    17   10   11 1   
    18   10   12 ar  
    19   11   37 1   
    20   12   13 ar  
    21   12   38 1   
    22   13   39 1   
    23   14   15 ar  
    24   15   16 1   
    25   16   17 1   
    26   16   40 1   
    27   17   18 ar  
    28   17   19 ar  
    29   18   22 ar  
    30   18   41 1   
    31   19   20 ar  
    32   19   42 1   
    33   20   21 ar  
    34   20   43 1   
    35   21   22 ar  
    36   21   23 1   
    37   22   44 1   
    38   23   24 1   
    39   23   45 1   
    40   24   25 2   
    41   24   26 1   
    42   26   27 ar  
    43   26   30 ar  
    44   27   28 1   
    45   27   29 ar  
    46   29   32 ar  
    47   29   46 1   
    48   30   31 ar  
    49   30   47 1   
    50   31   32 ar  
    51   31   48 1   
    52   32   49 1   
@<TRIPOS>SUBSTRUCTURE
     1 48B         1 TEMP              0 ****  ****    0 ROOT
