@<TRIPOS>MOLECULE
48C
   42    43     1     0     0
SMALL
bcc


@<TRIPOS>ATOM
      1 OAZ         2.2280   -2.1750   -3.4170 o         1 48C     -0.847500
      2 CAU         2.3620   -1.6190   -2.2780 c         1 48C      0.856500
      3 NAT         3.0300   -2.3150   -1.2800 ns        1 48C     -0.580500
      4 CAV         3.2240   -1.8020    0.0370 c         1 48C      0.704700
      5 OBA         3.8350   -2.5060    0.8420 o         1 48C     -0.519500
      6 CAX         2.6540   -0.4710    0.2770 cc        1 48C     -0.244200
      7 CAY         2.0100    0.1940   -0.7090 cd        1 48C      0.022600
      8 NAW         1.8540   -0.3400   -2.0010 n         1 48C     -0.384000
      9 CBB         1.1430    0.4920   -2.9670 c3        1 48C      0.316500
     10 OBE         0.4790   -0.2900   -3.9730 os        1 48C     -0.427600
     11 CBD         2.0460    1.5380   -3.6970 c3        1 48C      0.075100
     12 OBG         1.4920    2.7930   -3.3690 oh        1 48C     -0.583800
     13 CBC         1.8840    1.2590   -5.2090 c3        1 48C      0.109100
     14 OBH         1.4150    2.3640   -5.9270 oh        1 48C     -0.555800
     15 CBF         0.8880    0.0790   -5.2910 c3        1 48C      0.079100
     16 CAA         1.5430   -1.1300   -5.9790 c3        1 48C      0.106800
     17 NAB         0.7380   -2.3800   -5.7380 ny        1 48C     -0.648800
     18 C           1.4330   -3.5860   -6.2500 c         1 48C      0.521100
     19 O           1.5820   -3.7230   -7.4570 o         1 48C     -0.393100
     20 CA          1.9180   -4.5960   -5.2000 c3        1 48C      0.048500
     21 N           2.8760   -5.5710   -5.8230 nz        1 48C     -0.839600
     22 CB          0.7160   -5.3080   -4.5870 c3        1 48C     -0.151100
     23 H1          3.4020   -3.2120   -1.5060 hn        1 48C      0.343500
     24 H2          2.7810   -0.0560    1.2900 ha        1 48C      0.218000
     25 H3          1.5720    1.2020   -0.5550 h4        1 48C      0.200000
     26 H4          0.3030    1.0230   -2.4110 h2        1 48C      0.140700
     27 H5          3.1240    1.4760   -3.3930 h1        1 48C      0.093700
     28 H6          2.1380    3.4750   -3.6110 ho        1 48C      0.453000
     29 H7          2.8710    1.0060   -5.6870 h1        1 48C      0.105700
     30 H8          0.7030    2.7930   -5.4230 ho        1 48C      0.442000
     31 H9         -0.0510    0.3850   -5.8350 h1        1 48C      0.117700
     32 H10         1.6120   -0.9470   -7.0890 hx        1 48C      0.125700
     33 H11         2.5680   -1.3070   -5.5410 hx        1 48C      0.125700
     34 H12         0.6000   -2.4410   -4.7040 hn        1 48C      0.498800
     35 H13         2.4870   -4.0330   -4.3770 hx        1 48C      0.195700
     36 H14         2.4500   -6.0220   -6.6470 hn        1 48C      0.486133
     37 H15         3.1120   -6.2980   -5.1320 hn        1 48C      0.486133
     38 H17         0.0680   -5.7830   -5.3650 hc        1 48C      0.106700
     39 H18         0.1070   -4.5700   -4.0030 hc        1 48C      0.106700
     40 H19         1.0450   -6.0990   -3.8630 hc        1 48C      0.106700
     41 HAB2       -0.1780   -2.2840   -6.2000 hn        1 48C      0.498800
     42 HN3         3.7370   -5.0940   -6.1200 hn        1 48C      0.486133
@<TRIPOS>BOND
     1    1    2 2   
     2    2    3 1   
     3    2    8 1   
     4    3    4 1   
     5    3   23 1   
     6    4    5 2   
     7    4    6 1   
     8    6    7 2   
     9    6   24 1   
    10    7    8 1   
    11    7   25 1   
    12    8    9 1   
    13    9   10 1   
    14    9   11 1   
    15    9   26 1   
    16   10   15 1   
    17   11   12 1   
    18   11   13 1   
    19   11   27 1   
    20   12   28 1   
    21   13   14 1   
    22   13   15 1   
    23   13   29 1   
    24   14   30 1   
    25   15   16 1   
    26   15   31 1   
    27   16   17 1   
    28   16   32 1   
    29   16   33 1   
    30   17   18 1   
    31   17   34 1   
    32   17   41 1   
    33   18   19 2   
    34   18   20 1   
    35   20   21 1   
    36   20   22 1   
    37   20   35 1   
    38   21   36 1   
    39   21   37 1   
    40   21   42 1   
    41   22   38 1   
    42   22   39 1   
    43   22   40 1   
@<TRIPOS>SUBSTRUCTURE
     1 48C         1 TEMP              0 ****  ****    0 ROOT
