@<TRIPOS>MOLECULE
48D
   48    48     1     0     0
SMALL
bcc


@<TRIPOS>ATOM
      1 C1         -1.0300    3.6400   -0.4340 c3        1 48D     -0.062900
      2 C2         -1.0470    2.3280    0.2570 c2        1 48D     -0.120400
      3 C3         -0.0020    1.4880    0.2930 c2        1 48D     -0.171200
      4 C4          1.3060    1.7180   -0.3790 c3        1 48D     -0.027500
      5 C5          1.2540    1.3160   -1.8400 c3        1 48D     -0.087100
      6 C6          2.4340    1.0030    0.3820 c3        1 48D      0.160100
      7 O7          3.6210    1.7200    0.0660 oh        1 48D     -0.606800
      8 C8          2.6260   -0.4860    0.0180 c3        1 48D      0.138300
      9 O9          3.8220   -0.8550    0.7280 os        1 48D     -0.436600
     10 C10         4.3600   -2.0980    0.3110 c3        1 48D      0.119700
     11 C11         1.4910   -1.3490    0.4620 c2        1 48D     -0.210200
     12 C12         0.7170   -2.0410   -0.3790 c2        1 48D     -0.147200
     13 C13        -0.3560   -2.9600    0.0720 c3        1 48D     -0.055200
     14 C14        -1.5240   -3.0570   -0.8940 c3        1 48D     -0.075400
     15 C15        -2.7400   -2.2740   -0.4460 c3        1 48D     -0.074400
     16 C16        -2.5810   -0.7870   -0.6720 c3        1 48D     -0.186400
     17 C17        -3.5940    0.0290    0.0760 c         1 48D      0.566100
     18 O18        -4.5300   -0.4730    0.7080 o         1 48D     -0.534100
     19 C19        -3.4070    1.5220    0.0080 c3        1 48D     -0.181400
     20 C20        -2.3210    1.9980    0.9630 c3        1 48D     -0.035200
     21 H1         -0.3420    3.6330   -1.3150 hc        1 48D      0.044700
     22 H1A        -2.0540    3.9130   -0.7900 hc        1 48D      0.044700
     23 H1B        -0.6830    4.4340    0.2750 hc        1 48D      0.044700
     24 H3         -0.0730    0.5390    0.8540 ha        1 48D      0.127000
     25 H4          1.5560    2.8210   -0.3340 hc        1 48D      0.076700
     26 H5          0.5580    1.9850   -2.4000 hc        1 48D      0.038700
     27 H5A         2.2730    1.4010   -2.2890 hc        1 48D      0.038700
     28 H5B         0.8940    0.2640   -1.9510 hc        1 48D      0.038700
     29 H6          2.2450    1.0750    1.4910 h1        1 48D      0.046700
     30 HO7         4.3490    1.2780    0.5200 ho        1 48D      0.420000
     31 H8          2.8150   -0.5870   -1.0870 h1        1 48D      0.055700
     32 H10         3.6150   -2.9180    0.4570 h1        1 48D      0.036033
     33 H10A        4.6710   -2.0500   -0.7620 h1        1 48D      0.036033
     34 H10B        5.2500   -2.2500    0.9720 h1        1 48D      0.036033
     35 H11         1.3540   -1.3990    1.5540 ha        1 48D      0.135000
     36 H12         0.8690   -1.9840   -1.4710 ha        1 48D      0.122000
     37 H13         0.1040   -3.9820    0.1850 hc        1 48D      0.052700
     38 H13A       -0.7250   -2.6590    1.0890 hc        1 48D      0.052700
     39 H14        -1.2150   -2.7160   -1.9170 hc        1 48D      0.042200
     40 H14A       -1.8210   -4.1370   -0.9860 hc        1 48D      0.042200
     41 H15        -3.6420   -2.6350   -1.0090 hc        1 48D      0.054200
     42 H15A       -2.9430   -2.4680    0.6420 hc        1 48D      0.054200
     43 H16        -1.5540   -0.4580   -0.3510 hc        1 48D      0.072200
     44 H16A       -2.6770   -0.5520   -1.7650 hc        1 48D      0.072200
     45 H19        -3.1570    1.8140   -1.0450 hc        1 48D      0.066700
     46 H19A       -4.3780    2.0170    0.2780 hc        1 48D      0.066700
     47 H20        -2.1420    1.2210    1.7530 hc        1 48D      0.054200
     48 H20A       -2.6850    2.9210    1.4910 hc        1 48D      0.054200
@<TRIPOS>BOND
     1    1    2 1   
     2    1   21 1   
     3    1   22 1   
     4    1   23 1   
     5    2    3 2   
     6    2   20 1   
     7    3    4 1   
     8    3   24 1   
     9    4    5 1   
    10    4    6 1   
    11    4   25 1   
    12    5   26 1   
    13    5   27 1   
    14    5   28 1   
    15    6    7 1   
    16    6    8 1   
    17    6   29 1   
    18    7   30 1   
    19    8    9 1   
    20    8   11 1   
    21    8   31 1   
    22    9   10 1   
    23   10   32 1   
    24   10   33 1   
    25   10   34 1   
    26   11   12 2   
    27   11   35 1   
    28   12   13 1   
    29   12   36 1   
    30   13   14 1   
    31   13   37 1   
    32   13   38 1   
    33   14   15 1   
    34   14   39 1   
    35   14   40 1   
    36   15   16 1   
    37   15   41 1   
    38   15   42 1   
    39   16   17 1   
    40   16   43 1   
    41   16   44 1   
    42   17   18 2   
    43   17   19 1   
    44   19   20 1   
    45   19   45 1   
    46   19   46 1   
    47   20   47 1   
    48   20   48 1   
@<TRIPOS>SUBSTRUCTURE
     1 48D         1 TEMP              0 ****  ****    0 ROOT
