@<TRIPOS>MOLECULE
48D
   48    46     1     0     0
SMALL
bcc


@<TRIPOS>ATOM
      1 C1         -2.6290    1.4450   -1.3930 c3        1 48D     -0.187000
      2 C2         -1.1160    1.4450   -1.3930 c2        1 48D     -0.117000
      3 C3         -0.3600    1.4450   -0.0840 c1        1 48D     -0.136000
      4 C4         -1.1160    1.4450    1.2260 c2        1 48D     -0.066000
      5 C5         -1.7240    2.8120    1.4580 c3        1 48D     -0.209000
      6 C6         -0.1660    1.1180    2.3570 c3        1 48D      0.052000
      7 O7          1.1560    1.3670    1.9450 oh        1 48D     -0.324000
      8 C8         -0.3110   -0.3400    2.7310 c3        1 48D      0.028000
      9 O9         -0.8930   -1.0430    1.6600 os        1 48D     -0.271000
     10 C10        -1.8710   -1.9800    2.0560 c3        1 48D     -0.077000
     11 C11         1.0520   -0.9210    3.0340 c2        1 48D     -0.236000
     12 C12         1.8410   -1.6090    1.9420 c1        1 48D     -0.116000
     13 C13         1.2500   -1.7510    0.5580 c2        1 48D     -0.158000
     14 C14         2.3560   -2.0380   -0.4370 c3        1 48D     -0.150000
     15 C15         1.8280   -1.8660   -1.8430 c3        1 48D     -0.142000
     16 C16         2.1120   -0.4570   -2.3200 c3        1 48D     -0.226000
     17 C17         1.2940   -0.1700   -3.5610 c2        1 48D      0.232000
     18 O18         1.5720   -0.7120   -4.6110 o         1 48D     -0.301000
     19 C19        -0.1580    0.0310   -3.1740 c3        1 48D     -0.208000
     20 C20        -0.3610    1.4530   -2.7010 c3        1 48D     -0.113000
     21 H1         -2.9550    0.7630   -0.7750 hc        1 48D      0.083667
     22 H1A        -2.9550    2.3220   -1.1120 hc        1 48D      0.083667
     23 H1B        -2.9550    1.2510   -2.2920 hc        1 48D      0.083667
     24 H3          0.6160    1.4450   -0.0840 ha        1 48D      0.131000
     25 H4         -1.8250    0.7750    1.1920 ha        1 48D      0.112000
     26 H5         -1.2430    3.4750    0.9270 hc        1 48D      0.076333
     27 H5A        -2.6630    2.8000    1.1910 hc        1 48D      0.076333
     28 H5B        -1.6570    3.0410    2.4040 hc        1 48D      0.076333
     29 H6         -0.3770    1.6750    3.1300 h1        1 48D      0.072000
     30 HO7         1.5150    1.9910    2.4650 ho        1 48D      0.206000
     31 H8         -0.8810   -0.4190    3.5190 h1        1 48D      0.081000
     32 H10        -1.4710   -2.6310    2.6630 h1        1 48D      0.075000
     33 H10A       -2.2190   -2.4400    1.2680 h1        1 48D      0.075000
     34 H10B       -2.6000   -1.5160    2.5100 h1        1 48D      0.075000
     35 H11         1.4340   -0.8290    3.9270 ha        1 48D      0.124000
     36 H12         2.7210   -1.9830    2.1380 ha        1 48D      0.120000
     37 H13         0.6080   -2.4870    0.5520 ha        1 48D      0.109000
     38 H13A        0.7970   -0.9220    0.3100 ha        1 48D      0.109000
     39 H14         3.0960   -1.4180   -0.2890 hc        1 48D      0.079500
     40 H14A        2.6710   -2.9540   -0.3180 hc        1 48D      0.079500
     41 H15         0.8640   -2.0230   -1.8500 hc        1 48D      0.084000
     42 H15A        2.2660   -2.5050   -2.4360 hc        1 48D      0.084000
     43 H16         3.0620   -0.3700   -2.5290 hc        1 48D      0.121000
     44 H16A        1.8740    0.1790   -1.6190 hc        1 48D      0.121000
     45 H19        -0.7270   -0.1380   -3.9480 hc        1 48D      0.104000
     46 H19A       -0.3910   -0.5870   -2.4560 hc        1 48D      0.104000
     47 H20         0.5070    1.8810   -2.5730 hc        1 48D      0.091000
     48 H20A       -0.8720    1.9480   -3.3690 hc        1 48D      0.091000
@<TRIPOS>BOND
     1    1    2 1   
     2    1   21 1   
     3    1   22 1   
     4    1   23 1   
     5    2    3 1   
     6    2   20 1   
     7    3   24 1   
     8    4    5 1   
     9    4    6 1   
    10    4   25 1   
    11    5   26 1   
    12    5   27 1   
    13    5   28 1   
    14    6    7 1   
    15    6    8 1   
    16    6   29 1   
    17    7   30 1   
    18    8    9 1   
    19    8   11 1   
    20    8   31 1   
    21    9   10 1   
    22   10   32 1   
    23   10   33 1   
    24   10   34 1   
    25   11   12 1   
    26   11   35 1   
    27   12   36 1   
    28   13   14 1   
    29   13   37 1   
    30   13   38 1   
    31   14   15 1   
    32   14   39 1   
    33   14   40 1   
    34   15   16 1   
    35   15   41 1   
    36   15   42 1   
    37   16   17 1   
    38   16   43 1   
    39   16   44 1   
    40   17   18 1   
    41   17   19 1   
    42   19   20 1   
    43   19   45 1   
    44   19   46 1   
    45   20   47 1   
    46   20   48 1   
@<TRIPOS>SUBSTRUCTURE
     1 48D         1 TEMP              0 ****  ****    0 ROOT
