@<TRIPOS>MOLECULE
48D
   48    48     1     0     0
SMALL
bcc


@<TRIPOS>ATOM
      1 C1          0.3380   -0.8180   -0.1530 c3        1 48D     -0.064900
      2 C2          1.5600    0.0290   -0.1920 c2        1 48D     -0.106400
      3 C3          2.2270    0.3690    0.9220 c2        1 48D     -0.184200
      4 C4          1.8320   -0.0550    2.2950 c3        1 48D     -0.027500
      5 C5          0.9420    0.9830    2.9460 c3        1 48D     -0.085100
      6 C6          3.0770   -0.3990    3.1290 c3        1 48D      0.160100
      7 O7          2.6630   -1.4320    4.0160 oh        1 48D     -0.607800
      8 C8          3.6640    0.7690    3.9540 c3        1 48D      0.141300
      9 O9          4.6530    0.1460    4.7890 os        1 48D     -0.438600
     10 C10         5.0140    0.9330    5.9110 c3        1 48D      0.119700
     11 C11         4.2380    1.8590    3.1140 c2        1 48D     -0.213200
     12 C12         5.4320    1.8900    2.5150 c2        1 48D     -0.133200
     13 C13         6.4600    0.8240    2.5470 c3        1 48D     -0.058200
     14 C14         7.1430    0.6180    1.2080 c3        1 48D     -0.074400
     15 C15         6.2310    0.0240    0.1540 c3        1 48D     -0.072400
     16 C16         5.5230    1.0930   -0.6540 c3        1 48D     -0.182400
     17 C17         4.4730    0.5060   -1.5570 c         1 48D      0.570100
     18 O18         4.6580   -0.5410   -2.1840 o         1 48D     -0.533100
     19 C19         3.1990    1.2970   -1.6910 c3        1 48D     -0.179400
     20 C20         1.9610    0.4340   -1.5690 c3        1 48D     -0.037200
     21 H1         -0.3950   -0.4170    0.5910 hc        1 48D      0.044700
     22 H1A         0.6050   -1.8630    0.1460 hc        1 48D      0.044700
     23 H1B        -0.1630   -0.8580   -1.1510 hc        1 48D      0.044700
     24 H3          3.1370    0.9920    0.8790 ha        1 48D      0.125000
     25 H4          1.2380   -1.0180    2.2300 hc        1 48D      0.077700
     26 H5          1.4390    1.9820    2.9710 hc        1 48D      0.037367
     27 H5A         0.6980    0.6720    3.9910 hc        1 48D      0.037367
     28 H5B        -0.0100    1.0800    2.3700 hc        1 48D      0.037367
     29 H6          3.8870   -0.7970    2.4530 h1        1 48D      0.048700
     30 HO7         3.4260   -1.6620    4.5610 ho        1 48D      0.418000
     31 H8          2.8560    1.1940    4.6170 h1        1 48D      0.056700
     32 H10         5.7910    0.3260    6.4390 h1        1 48D      0.035700
     33 H10A        5.4360    1.9140    5.5820 h1        1 48D      0.035700
     34 H10B        4.1290    1.1000    6.5750 h1        1 48D      0.035700
     35 H11         3.5590    2.7240    3.0030 ha        1 48D      0.122000
     36 H12         5.7230    2.7910    1.9440 ha        1 48D      0.115000
     37 H13         7.2370    1.1130    3.3090 hc        1 48D      0.060200
     38 H13A        6.0100   -0.1460    2.8960 hc        1 48D      0.060200
     39 H14         8.0090   -0.0790    1.3670 hc        1 48D      0.041200
     40 H14A        7.5650    1.5920    0.8440 hc        1 48D      0.041200
     41 H15         6.8270   -0.6200   -0.5460 hc        1 48D      0.055700
     42 H15A        5.4680   -0.6410    0.6400 hc        1 48D      0.055700
     43 H16         6.2650    1.6390   -1.2970 hc        1 48D      0.062700
     44 H16A        5.0610    1.8450    0.0390 hc        1 48D      0.062700
     45 H19         3.1650    2.1330   -0.9460 hc        1 48D      0.063200
     46 H19A        3.2080    1.7630   -2.7150 hc        1 48D      0.063200
     47 H20         1.0980    0.9920   -2.0280 hc        1 48D      0.062200
     48 H20A        2.1160   -0.5020   -2.1770 hc        1 48D      0.062200
@<TRIPOS>BOND
     1    1    2 1   
     2    1   21 1   
     3    1   22 1   
     4    1   23 1   
     5    2    3 2   
     6    2   20 1   
     7    3    4 1   
     8    3   24 1   
     9    4    5 1   
    10    4    6 1   
    11    4   25 1   
    12    5   26 1   
    13    5   27 1   
    14    5   28 1   
    15    6    7 1   
    16    6    8 1   
    17    6   29 1   
    18    7   30 1   
    19    8    9 1   
    20    8   11 1   
    21    8   31 1   
    22    9   10 1   
    23   10   32 1   
    24   10   33 1   
    25   10   34 1   
    26   11   12 2   
    27   11   35 1   
    28   12   13 1   
    29   12   36 1   
    30   13   14 1   
    31   13   37 1   
    32   13   38 1   
    33   14   15 1   
    34   14   39 1   
    35   14   40 1   
    36   15   16 1   
    37   15   41 1   
    38   15   42 1   
    39   16   17 1   
    40   16   43 1   
    41   16   44 1   
    42   17   18 2   
    43   17   19 1   
    44   19   20 1   
    45   19   45 1   
    46   19   46 1   
    47   20   47 1   
    48   20   48 1   
@<TRIPOS>SUBSTRUCTURE
     1 48D         1 TEMP              0 ****  ****    0 ROOT
