@<TRIPOS>MOLECULE
48D
   48    48     1     0     0
SMALL
bcc


@<TRIPOS>ATOM
      1 C1          0.3290   -0.7330   -0.1990 c3        1 48D     -0.064900
      2 C2          1.5680    0.0890   -0.2170 c2        1 48D     -0.106400
      3 C3          2.2310    0.4060    0.9050 c2        1 48D     -0.184200
      4 C4          1.8130   -0.0230    2.2710 c3        1 48D     -0.027500
      5 C5          0.9380    1.0270    2.9230 c3        1 48D     -0.085100
      6 C6          3.0430   -0.4000    3.1140 c3        1 48D      0.160100
      7 O7          2.5990   -1.4320    3.9870 oh        1 48D     -0.607800
      8 C8          3.6450    0.7490    3.9550 c3        1 48D      0.141300
      9 O9          4.6130    0.0980    4.7940 os        1 48D     -0.438600
     10 C10         4.9780    0.8670    5.9270 c3        1 48D      0.119700
     11 C11         4.2490    1.8350    3.1310 c2        1 48D     -0.213200
     12 C12         5.4490    1.8460    2.5450 c2        1 48D     -0.133200
     13 C13         6.4550    0.7590    2.5760 c3        1 48D     -0.058200
     14 C14         7.1480    0.5520    1.2420 c3        1 48D     -0.074400
     15 C15         6.2350   -0.0130    0.1740 c3        1 48D     -0.072400
     16 C16         5.5560    1.0760   -0.6310 c3        1 48D     -0.182400
     17 C17         4.5040    0.5200   -1.5490 c         1 48D      0.570100
     18 O18         4.6730   -0.5260   -2.1850 o         1 48D     -0.533100
     19 C19         3.2470    1.3370   -1.6890 c3        1 48D     -0.179400
     20 C20         1.9910    0.4980   -1.5860 c3        1 48D     -0.037200
     21 H1         -0.4030   -0.3250    0.5420 hc        1 48D      0.044700
     22 H1A        -0.1630   -0.7540   -1.2020 hc        1 48D      0.044700
     23 H1B         0.5710   -1.7860    0.0930 hc        1 48D      0.044700
     24 H3          3.1540    1.0100    0.8780 ha        1 48D      0.125000
     25 H4          1.2010   -0.9730    2.1910 hc        1 48D      0.077700
     26 H5         -0.0060    1.1480    2.3390 hc        1 48D      0.037367
     27 H5A         1.4550    2.0160    2.9620 hc        1 48D      0.037367
     28 H5B         0.6770    0.7120    3.9630 hc        1 48D      0.037367
     29 H6          3.8510   -0.8080    2.4420 h1        1 48D      0.048700
     30 HO7         3.3520   -1.6830    4.5380 ho        1 48D      0.418000
     31 H8          2.8390    1.1840    4.6150 h1        1 48D      0.056700
     32 H10         5.7380    0.2390    6.4560 h1        1 48D      0.035700
     33 H10A        5.4240    1.8420    5.6110 h1        1 48D      0.035700
     34 H10B        4.0910    1.0460    6.5840 h1        1 48D      0.035700
     35 H11         3.5900    2.7140    3.0220 ha        1 48D      0.122000
     36 H12         5.7650    2.7460    1.9850 ha        1 48D      0.115000
     37 H13         7.2310    1.0260    3.3480 hc        1 48D      0.060200
     38 H13A        5.9820   -0.2040    2.9110 hc        1 48D      0.060200
     39 H14         7.9980   -0.1640    1.4030 hc        1 48D      0.041200
     40 H14A        7.5930    1.5200    0.8920 hc        1 48D      0.041200
     41 H15         6.8240   -0.6630   -0.5270 hc        1 48D      0.055700
     42 H15A        5.4540   -0.6680    0.6460 hc        1 48D      0.055700
     43 H16         5.1030    1.8310    0.0640 hc        1 48D      0.062700
     44 H16A        6.3150    1.6130   -1.2620 hc        1 48D      0.062700
     45 H19         3.2230    2.1670   -0.9370 hc        1 48D      0.063200
     46 H19A        3.2760    1.8120   -2.7080 hc        1 48D      0.063200
     47 H20         1.1440    1.0790   -2.0490 hc        1 48D      0.062200
     48 H20A        2.1330   -0.4340   -2.2020 hc        1 48D      0.062200
@<TRIPOS>BOND
     1    1    2 1   
     2    1   21 1   
     3    1   22 1   
     4    1   23 1   
     5    2    3 2   
     6    2   20 1   
     7    3    4 1   
     8    3   24 1   
     9    4    5 1   
    10    4    6 1   
    11    4   25 1   
    12    5   26 1   
    13    5   27 1   
    14    5   28 1   
    15    6    7 1   
    16    6    8 1   
    17    6   29 1   
    18    7   30 1   
    19    8    9 1   
    20    8   11 1   
    21    8   31 1   
    22    9   10 1   
    23   10   32 1   
    24   10   33 1   
    25   10   34 1   
    26   11   12 2   
    27   11   35 1   
    28   12   13 1   
    29   12   36 1   
    30   13   14 1   
    31   13   37 1   
    32   13   38 1   
    33   14   15 1   
    34   14   39 1   
    35   14   40 1   
    36   15   16 1   
    37   15   41 1   
    38   15   42 1   
    39   16   17 1   
    40   16   43 1   
    41   16   44 1   
    42   17   18 2   
    43   17   19 1   
    44   19   20 1   
    45   19   45 1   
    46   19   46 1   
    47   20   47 1   
    48   20   48 1   
@<TRIPOS>SUBSTRUCTURE
     1 48D         1 TEMP              0 ****  ****    0 ROOT
