@<TRIPOS>MOLECULE
48E
   56    59     1     0     0
SMALL
bcc


@<TRIPOS>ATOM
      1 OAG         1.5720   -3.1180   -1.0280 o         1 48E     -0.620500
      2 CAB         2.5520   -2.3650   -1.1960 c         1 48E      0.812500
      3 NAA         3.8120   -2.6840   -0.6840 n         1 48E     -0.580500
      4 CAC         4.9490   -1.8720   -0.8700 c         1 48E      0.705700
      5 OAH         6.0330   -2.2280   -0.3910 o         1 48E     -0.561500
      6 CAE         4.7400   -0.6410   -1.6520 cc        1 48E     -0.275200
      7 CAF         3.5170   -0.3360   -2.1440 cd        1 48E      0.007600
      8 NAD         2.4000   -1.1380   -1.9230 n         1 48E     -0.405000
      9 CAI         1.1190   -0.8710   -2.5340 c3        1 48E      0.278500
     10 OAL         1.1000   -1.3590   -3.9010 os        1 48E     -0.454600
     11 CAK         0.7150    0.6360   -2.5940 c3        1 48E      0.084100
     12 OAN        -0.6680    0.7240   -2.3300 oh        1 48E     -0.587800
     13 CAJ         0.9300    1.0480   -4.0710 c3        1 48E      0.135100
     14 OAO        -0.0440    1.9130   -4.5790 oh        1 48E     -0.562800
     15 CAM         0.9550   -0.2950   -4.8380 c3        1 48E      0.071100
     16 CAP         2.1120   -0.3530   -5.8450 c3        1 48E      0.093800
     17 NAQ         2.3050   -1.7250   -6.3990 n4        1 48E     -0.664800
     18 C           1.2220   -2.1420   -7.3670 c         1 48E      0.535100
     19 O           0.7970   -1.3000   -8.1370 o         1 48E     -0.382100
     20 CA          0.7930   -3.6210   -7.2620 c3        1 48E     -0.014000
     21 CB         -0.5530   -3.7860   -8.0230 c3        1 48E      0.127400
     22 OG         -1.5340   -3.0820   -7.3030 oh        1 48E     -0.577800
     23 N           1.8610   -4.4700   -7.7250 na        1 48E     -0.009600
     24 CAY         1.8070   -5.4640   -8.7230 cc        1 48E     -0.195600
     25 NAX         3.1130   -4.4550   -7.1710 nc        1 48E     -0.232800
     26 NAZ         3.8380   -5.3270   -7.7180 nd        1 48E     -0.292000
     27 CBA         3.0970   -6.0300   -8.7190 cd        1 48E      0.379800
     28 CBB         3.6230   -7.0980   -9.5380 ca        1 48E     -0.150500
     29 CBF         4.8360   -7.7250   -9.2170 ca        1 48E     -0.098500
     30 CBD         5.3190   -8.7580  -10.0190 ca        1 48E     -0.127000
     31 CBC         4.6030   -9.1730  -11.1410 ca        1 48E     -0.097000
     32 CBE         3.3960   -8.5510  -11.4650 ca        1 48E     -0.127000
     33 CBG         2.9060   -7.5180  -10.6700 ca        1 48E     -0.098500
     34 H1          3.8830   -3.5220   -0.1430 hn        1 48E      0.366500
     35 H2          5.6190    0.0040   -1.7910 ha        1 48E      0.191000
     36 H3          3.3350    0.5830   -2.7320 h4        1 48E      0.149000
     37 H4          0.3240   -1.4880   -2.0070 h2        1 48E      0.157700
     38 H5          1.3130    1.2780   -1.8980 h1        1 48E      0.093700
     39 H6         -0.7800    1.0080   -1.4130 ho        1 48E      0.444000
     40 H7          1.9020    1.6050   -4.1880 h1        1 48E      0.090700
     41 H8         -0.9150    1.6380   -4.2500 ho        1 48E      0.444000
     42 H9         -0.0280   -0.4570   -5.3670 h1        1 48E      0.103700
     43 H10         1.8920    0.3590   -6.6930 hx        1 48E      0.117200
     44 H11         3.0780   -0.0570   -5.3450 hx        1 48E      0.117200
     45 H12         2.3290   -2.3920   -5.6120 hn        1 48E      0.479800
     46 H13         0.5880   -3.8370   -6.1640 h1        1 48E      0.113700
     47 H14        -0.4960   -3.2950   -9.0330 h1        1 48E      0.092200
     48 H15        -0.7990   -4.8740   -8.1280 h1        1 48E      0.092200
     49 H16        -1.9820   -3.7030   -6.7110 ho        1 48E      0.428000
     50 H17         0.9190   -5.6780   -9.3150 h4        1 48E      0.209000
     51 H18         5.4130   -7.4100   -8.3330 ha        1 48E      0.138000
     52 H19         6.2710   -9.2470   -9.7620 ha        1 48E      0.147000
     53 H20         4.9880   -9.9890  -11.7710 ha        1 48E      0.148000
     54 H21         2.8300   -8.8750  -12.3510 ha        1 48E      0.147000
     55 H22         1.9570   -7.0300  -10.9350 ha        1 48E      0.138000
     56 HAQ2        3.2090   -1.7670   -6.8890 hn        1 48E      0.479800
@<TRIPOS>BOND
     1    1    2 2   
     2    2    3 1   
     3    2    8 1   
     4    3    4 1   
     5    3   34 1   
     6    4    5 2   
     7    4    6 1   
     8    6    7 2   
     9    6   35 1   
    10    7    8 1   
    11    7   36 1   
    12    8    9 1   
    13    9   10 1   
    14    9   11 1   
    15    9   37 1   
    16   10   15 1   
    17   11   12 1   
    18   11   13 1   
    19   11   38 1   
    20   12   39 1   
    21   13   14 1   
    22   13   15 1   
    23   13   40 1   
    24   14   41 1   
    25   15   16 1   
    26   15   42 1   
    27   16   17 1   
    28   16   43 1   
    29   16   44 1   
    30   17   18 1   
    31   17   45 1   
    32   17   56 1   
    33   18   19 2   
    34   18   20 1   
    35   20   21 1   
    36   20   23 1   
    37   20   46 1   
    38   21   22 1   
    39   21   47 1   
    40   21   48 1   
    41   22   49 1   
    42   23   24 1   
    43   23   25 1   
    44   24   27 2   
    45   24   50 1   
    46   25   26 2   
    47   26   27 1   
    48   27   28 1   
    49   28   29 ar  
    50   28   33 ar  
    51   29   30 ar  
    52   29   51 1   
    53   30   31 ar  
    54   30   52 1   
    55   31   32 ar  
    56   31   53 1   
    57   32   33 ar  
    58   32   54 1   
    59   33   55 1   
@<TRIPOS>SUBSTRUCTURE
     1 48E         1 TEMP              0 ****  ****    0 ROOT
