@<TRIPOS>MOLECULE
48E
   56    59     1     0     0
SMALL
bcc


@<TRIPOS>ATOM
      1 OAG         1.5320   -3.1010   -1.0250 o         1 48E     -0.620500
      2 CAB         2.5230   -2.3610   -1.1880 c         1 48E      0.812500
      3 NAA         3.7750   -2.6930   -0.6650 ns        1 48E     -0.580500
      4 CAC         4.9220   -1.8950   -0.8440 c         1 48E      0.705700
      5 OAH         5.9980   -2.2630   -0.3560 o         1 48E     -0.561500
      6 CAE         4.7340   -0.6640   -1.6310 cc        1 48E     -0.275200
      7 CAF         3.5180   -0.3460   -2.1340 cd        1 48E      0.007600
      8 NAD         2.3910   -1.1340   -1.9190 n         1 48E     -0.405000
      9 CAI         1.1170   -0.8540   -2.5410 c3        1 48E      0.278500
     10 OAL         1.1030   -1.3450   -3.9070 os        1 48E     -0.454600
     11 CAK         0.7320    0.6570   -2.6080 c3        1 48E      0.084100
     12 OAN        -0.6520    0.7630   -2.3540 oh        1 48E     -0.587800
     13 CAJ         0.9630    1.0630   -4.0840 c3        1 48E      0.135100
     14 OAO         0.0030    1.9390   -4.6010 oh        1 48E     -0.562800
     15 CAM         0.9770   -0.2820   -4.8470 c3        1 48E      0.071100
     16 CAP         2.1410   -0.3560   -5.8450 c3        1 48E      0.093800
     17 NAQ         2.3220   -1.7310   -6.3950 ny        1 48E     -0.664800
     18 C           1.2410   -2.1390   -7.3700 c         1 48E      0.535100
     19 O           0.8320   -1.2940   -8.1440 o         1 48E     -0.382100
     20 CA          0.7940   -3.6120   -7.2640 c3        1 48E     -0.014000
     21 CB         -0.5480   -3.7630   -8.0340 c3        1 48E      0.127400
     22 OG         -1.5260   -3.0460   -7.3240 oh        1 48E     -0.577800
     23 N           1.8560   -4.4750   -7.7170 na        1 48E     -0.009600
     24 CAY         1.7980   -5.4710   -8.7130 cc        1 48E     -0.195600
     25 NAX         3.1030   -4.4730   -7.1540 nc        1 48E     -0.232800
     26 NAZ         3.8220   -5.3550   -7.6930 nd        1 48E     -0.292000
     27 CBA         3.0810   -6.0510   -8.6980 cd        1 48E      0.379800
     28 CBB         3.6000   -7.1270   -9.5100 ca        1 48E     -0.150500
     29 CBF         4.8040   -7.7670   -9.1790 ca        1 48E     -0.098500
     30 CBD         5.2810   -8.8080   -9.9760 ca        1 48E     -0.127000
     31 CBC         4.5680   -9.2170  -11.1020 ca        1 48E     -0.097000
     32 CBE         3.3710   -8.5810  -11.4370 ca        1 48E     -0.127000
     33 CBG         2.8870   -7.5420  -10.6480 ca        1 48E     -0.098500
     34 H1          3.8320   -3.5300   -0.1210 hn        1 48E      0.366500
     35 H2          5.6210   -0.0290   -1.7660 ha        1 48E      0.191000
     36 H3          3.3520    0.5740   -2.7260 h4        1 48E      0.149000
     37 H4          0.3110   -1.4600   -2.0180 h2        1 48E      0.157700
     38 H5          1.3310    1.2950   -1.9090 h1        1 48E      0.093700
     39 H6         -0.7670    1.0510   -1.4390 ho        1 48E      0.444000
     40 H7          1.9420    1.6080   -4.1950 h1        1 48E      0.090700
     41 H8         -0.8730    1.6740   -4.2790 ho        1 48E      0.444000
     42 H9         -0.0030   -0.4340   -5.3830 h1        1 48E      0.103700
     43 H10         1.9360    0.3570   -6.6970 hx        1 48E      0.117200
     44 H11         3.1070   -0.0700   -5.3390 hx        1 48E      0.117200
     45 H12         3.2290   -1.7860   -6.8780 hn        1 48E      0.479800
     46 H13         0.5790   -3.8220   -6.1670 h1        1 48E      0.113700
     47 H14        -0.8060   -4.8490   -8.1390 h1        1 48E      0.092200
     48 H15        -0.4780   -3.2760   -9.0450 h1        1 48E      0.092200
     49 H16        -1.9850   -3.6600   -6.7330 ho        1 48E      0.428000
     50 H17         0.9110   -5.6750   -9.3120 h4        1 48E      0.209000
     51 H18         5.3770   -7.4570   -8.2920 ha        1 48E      0.138000
     52 H19         6.2260   -9.3070   -9.7110 ha        1 48E      0.147000
     53 H20         4.9480  -10.0390  -11.7280 ha        1 48E      0.148000
     54 H21         2.8070   -8.9010  -12.3260 ha        1 48E      0.147000
     55 H22         1.9450   -7.0430  -10.9200 ha        1 48E      0.138000
     56 HAQ2        2.3330   -2.3970   -5.6050 hn        1 48E      0.479800
@<TRIPOS>BOND
     1    1    2 2   
     2    2    3 1   
     3    2    8 1   
     4    3    4 1   
     5    3   34 1   
     6    4    5 2   
     7    4    6 1   
     8    6    7 2   
     9    6   35 1   
    10    7    8 1   
    11    7   36 1   
    12    8    9 1   
    13    9   10 1   
    14    9   11 1   
    15    9   37 1   
    16   10   15 1   
    17   11   12 1   
    18   11   13 1   
    19   11   38 1   
    20   12   39 1   
    21   13   14 1   
    22   13   15 1   
    23   13   40 1   
    24   14   41 1   
    25   15   16 1   
    26   15   42 1   
    27   16   17 1   
    28   16   43 1   
    29   16   44 1   
    30   17   18 1   
    31   17   45 1   
    32   17   56 1   
    33   18   19 2   
    34   18   20 1   
    35   20   21 1   
    36   20   23 1   
    37   20   46 1   
    38   21   22 1   
    39   21   47 1   
    40   21   48 1   
    41   22   49 1   
    42   23   24 1   
    43   23   25 1   
    44   24   27 2   
    45   24   50 1   
    46   25   26 2   
    47   26   27 1   
    48   27   28 1   
    49   28   29 ar  
    50   28   33 ar  
    51   29   30 ar  
    52   29   51 1   
    53   30   31 ar  
    54   30   52 1   
    55   31   32 ar  
    56   31   53 1   
    57   32   33 ar  
    58   32   54 1   
    59   33   55 1   
@<TRIPOS>SUBSTRUCTURE
     1 48E         1 TEMP              0 ****  ****    0 ROOT
