@<TRIPOS>MOLECULE
48I
   32    33     1     0     0
SMALL
bcc


@<TRIPOS>ATOM
      1 CL         -0.1490   -0.0910   -0.3270 cl        1 48I     -0.065400
      2 C10         1.5340   -0.0200   -0.1350 ca        1 48I      0.057400
      3 C8          2.1470   -0.1380    1.1260 ca        1 48I     -0.167200
      4 N16         1.3420   -0.2860    2.3710 no        1 48I      0.314200
      5 O18         1.6120   -1.1880    3.1190 o         1 48I     -0.202000
      6 O17         0.4660    0.4980    2.6130 o         1 48I     -0.202000
      7 C7          3.5470   -0.1290    1.2400 ca        1 48I     -0.049000
      8 C19         2.3360    0.1340   -1.2720 ca        1 48I     -0.142000
      9 C15         3.7230    0.1500   -1.1580 ca        1 48I     -0.072000
     10 C1          4.3310    0.0020    0.0930 ca        1 48I     -0.098300
     11 C3          5.8320   -0.0420    0.1950 c3        1 48I      0.139300
     12 N5          6.4780    1.2470    0.1030 n         1 48I     -0.499400
     13 C20         6.7520    1.9470    1.3100 c         1 48I      0.788500
     14 O4          6.3780    1.4570    2.4010 o         1 48I     -0.663500
     15 N2          7.4470    3.1790    1.2450 n         1 48I     -0.315000
     16 C13         7.7390    3.8690    2.4900 c3        1 48I     -0.057000
     17 C11         9.0480    4.7230    2.5300 c         1 48I      0.915600
     18 O14         9.7420    4.5920    3.5680 o         1 48I     -0.813800
     19 O9          9.2960    5.5140    1.5770 o         1 48I     -0.813800
     20 C22         7.7920    3.7020    0.0210 cc        1 48I      0.092600
     21 C23         7.5050    3.0640   -1.1540 cd        1 48I     -0.402200
     22 C6          6.8210    1.7840   -1.1630 c         1 48I      0.726700
     23 O21         6.5220    1.1390   -2.1930 o         1 48I     -0.685500
     24 H1          4.0330   -0.2130    2.2300 ha        1 48I      0.184000
     25 H2          1.8640    0.2420   -2.2610 ha        1 48I      0.154000
     26 H3          4.3590    0.2880   -2.0530 ha        1 48I      0.183000
     27 H4          6.1220   -0.5200    1.1770 h1        1 48I      0.081200
     28 H5          6.2230   -0.6810   -0.6520 h1        1 48I      0.081200
     29 H6          7.8060    3.1010    3.3110 h1        1 48I      0.060700
     30 H7          6.8800    4.5620    2.7130 h1        1 48I      0.060700
     31 H9          8.3350    4.6820    0.0590 h4        1 48I      0.243000
     32 H10         7.7840    3.4860   -2.1240 ha        1 48I      0.166000
@<TRIPOS>BOND
     1    1    2 1   
     2    2    3 ar  
     3    2    8 ar  
     4    3    4 1   
     5    3    7 ar  
     6    4    5 1   
     7    4    6 1   
     8    7   10 ar  
     9    7   24 1   
    10    8    9 ar  
    11    8   25 1   
    12    9   10 ar  
    13    9   26 1   
    14   10   11 1   
    15   11   12 1   
    16   11   27 1   
    17   11   28 1   
    18   12   13 1   
    19   12   22 1   
    20   13   14 2   
    21   13   15 1   
    22   15   16 1   
    23   15   20 1   
    24   16   17 1   
    25   16   29 1   
    26   16   30 1   
    27   17   18 1   
    28   17   19 1   
    29   20   21 2   
    30   20   31 1   
    31   21   22 1   
    32   21   32 1   
    33   22   23 2   
@<TRIPOS>SUBSTRUCTURE
     1 48I         1 TEMP              0 ****  ****    0 ROOT
