@<TRIPOS>MOLECULE
48I
   32    33     1     0     0
SMALL
bcc


@<TRIPOS>ATOM
      1 Cl         -0.1630   -0.0400   -0.3340 cl        1 48I     -0.065400
      2 C10         1.5200    0.0140   -0.1380 ca        1 48I      0.057400
      3 C8          2.1300   -0.1060    1.1240 ca        1 48I     -0.167200
      4 N16         1.3200   -0.2420    2.3690 no        1 48I      0.314200
      5 O18         1.5800   -1.1450    3.1190 o         1 48I     -0.202000
      6 O17         0.4520    0.5510    2.6060 o         1 48I     -0.202000
      7 C7          3.5290   -0.1110    1.2410 ca        1 48I     -0.049000
      8 C19         2.3250    0.1570   -1.2740 ca        1 48I     -0.142000
      9 C15         3.7120    0.1600   -1.1580 ca        1 48I     -0.072000
     10 C1          4.3160    0.0090    0.0950 ca        1 48I     -0.098300
     11 C3          5.8170   -0.0500    0.2000 c3        1 48I      0.139300
     12 N5          6.4760    1.2330    0.1060 n         1 48I     -0.499400
     13 C20         6.7550    1.9330    1.3110 c         1 48I      0.788500
     14 O4          6.3730    1.4500    2.4030 o         1 48I     -0.663500
     15 N2          7.4610    3.1590    1.2440 n         1 48I     -0.315000
     16 C13         7.7580    3.8490    2.4880 c3        1 48I     -0.057000
     17 C11         9.0750    4.6900    2.5290 c         1 48I      0.915600
     18 O14         9.7650    4.5550    3.5690 o         1 48I     -0.813800
     19 O9          9.3340    5.4760    1.5750 o         1 48I     -0.813800
     20 C22         7.8140    3.6750    0.0200 cc        1 48I      0.092600
     21 C23         7.5230    3.0370   -1.1530 cd        1 48I     -0.402200
     22 C6          6.8260    1.7630   -1.1610 c         1 48I      0.726700
     23 O21         6.5230    1.1190   -2.1890 o         1 48I     -0.685500
     24 H1          4.0130   -0.1960    2.2320 ha        1 48I      0.184000
     25 H2          1.8560    0.2680   -2.2640 ha        1 48I      0.154000
     26 H3          4.3520    0.2890   -2.0510 ha        1 48I      0.183000
     27 H4          6.1000   -0.5270    1.1840 h1        1 48I      0.081200
     28 H5          6.2030   -0.6940   -0.6440 h1        1 48I      0.081200
     29 H6          6.9060    4.5510    2.7080 h1        1 48I      0.060700
     30 H7          7.8150    3.0830    3.3110 h1        1 48I      0.060700
     31 H9          8.3670    4.6490    0.0560 h4        1 48I      0.243000
     32 H10         7.8080    3.4530   -2.1250 ha        1 48I      0.166000
@<TRIPOS>BOND
     1    1    2 1   
     2    2    3 ar  
     3    2    8 ar  
     4    3    4 1   
     5    3    7 ar  
     6    4    5 1   
     7    4    6 1   
     8    7   10 ar  
     9    7   24 1   
    10    8    9 ar  
    11    8   25 1   
    12    9   10 ar  
    13    9   26 1   
    14   10   11 1   
    15   11   12 1   
    16   11   27 1   
    17   11   28 1   
    18   12   13 1   
    19   12   22 1   
    20   13   14 2   
    21   13   15 1   
    22   15   16 1   
    23   15   20 1   
    24   16   17 1   
    25   16   29 1   
    26   16   30 1   
    27   17   18 1   
    28   17   19 1   
    29   20   21 2   
    30   20   31 1   
    31   21   22 1   
    32   21   32 1   
    33   22   23 2   
@<TRIPOS>SUBSTRUCTURE
     1 48I         1 TEMP              0 ****  ****    0 ROOT
