@<TRIPOS>MOLECULE
48K
   49    51     1     0     0
SMALL
bcc


@<TRIPOS>ATOM
      1 S           3.6150    1.3510   -0.0070 sy        1 48K      1.522200
      2 C1          7.4320   -2.3380   -0.6190 c3        1 48K      0.157600
      3 O1          4.2460    1.2560   -1.2660 o         1 48K     -0.657800
      4 C2          7.9180   -2.7980    1.6950 c3        1 48K      0.157600
      5 N2          4.2180    0.2460    1.0050 n3        1 48K     -0.921100
      6 O2          3.6420    2.6070    0.6410 o         1 48K     -0.657800
      7 C3          6.3230   -1.0740    1.1230 c3        1 48K      0.154800
      8 N3         -2.0300   -0.2600   -0.7030 nh        1 48K     -0.626400
      9 O3         -4.0980   -1.8700   -2.0330 o         1 48K     -0.647500
     10 C4          4.8670   -0.9670    0.6020 c3        1 48K      0.223800
     11 N4         -6.2100   -1.3830   -1.1370 n         1 48K     -0.471100
     12 C5          2.0060    0.8860   -0.1800 ca        1 48K     -0.422500
     13 C6          1.6190   -0.0180   -1.1790 ca        1 48K      0.022000
     14 C7          0.2970   -0.3910   -1.3490 ca        1 48K     -0.211500
     15 C8         -0.7120    0.1470   -0.5040 ca        1 48K      0.226600
     16 C9         -3.1170    0.2120   -0.0120 c2        1 48K      0.178000
     17 C10        -4.3890   -0.2120   -0.2310 cc        1 48K     -0.242400
     18 C11        -4.8120   -1.2370   -1.2360 c         1 48K      0.719700
     19 C12        -6.7040   -0.5200   -0.1420 ca        1 48K      0.053600
     20 C13        -8.0090   -0.3240    0.2960 ca        1 48K     -0.161000
     21 C14        -8.2250    0.6110    1.3170 ca        1 48K     -0.100000
     22 C15        -7.1750    1.3260    1.8820 ca        1 48K     -0.156000
     23 C16        -5.8550    1.1360    1.4470 ca        1 48K     -0.090000
     24 C17        -5.6090    0.2210    0.4420 ca        1 48K     -0.075800
     25 C18        -0.3260    1.0670    0.4980 ca        1 48K     -0.211500
     26 C19         1.0080    1.4200    0.6430 ca        1 48K      0.022000
     27 HN4        -6.7630   -1.9860   -1.6850 hn        1 48K      0.342500
     28 H1          7.7590   -3.3780   -0.8820 h1        1 48K      0.033367
     29 H1A         8.3010   -1.6410   -0.7730 h1        1 48K      0.033367
     30 H1B         6.6070   -2.0340   -1.3130 h1        1 48K      0.033367
     31 H2          7.4270   -2.9170    2.6960 h1        1 48K      0.033367
     32 H2A         8.7930   -2.1010    1.8060 h1        1 48K      0.033367
     33 H2B         8.3010   -3.7990    1.3630 h1        1 48K      0.033367
     34 H3          6.9140   -0.1910    0.7400 h1        1 48K      0.038200
     35 H3A         6.3020   -1.0040    2.2470 h1        1 48K      0.038200
     36 H4          4.2820   -1.8530    0.9850 h1        1 48K      0.057700
     37 H4A         4.8720   -1.0120   -0.5260 h1        1 48K      0.057700
     38 HN2         4.1840    0.3720    1.9890 hn        1 48K      0.446800
     39 H6          2.3890   -0.4290   -1.8570 ha        1 48K      0.155500
     40 H7          0.0330   -1.1030   -2.1470 ha        1 48K      0.145000
     41 HN3        -2.1950   -0.9430   -1.4230 hn        1 48K      0.477800
     42 H9         -2.9280    0.9820    0.7630 h4        1 48K      0.159000
     43 H13        -8.8500   -0.8800   -0.1390 ha        1 48K      0.140000
     44 H14        -9.2530    0.7770    1.6750 ha        1 48K      0.134000
     45 H15        -7.3770    2.0530    2.6820 ha        1 48K      0.134000
     46 H16        -5.0340    1.7080    1.9020 ha        1 48K      0.131000
     47 H18        -1.0660    1.5180    1.1750 ha        1 48K      0.145000
     48 H19         1.2900    2.1560    1.4190 ha        1 48K      0.155500
     49 N1          6.9360   -2.3370    0.7390 n3        1 48K     -0.743600
@<TRIPOS>BOND
     1    1    3 2   
     2    1    5 1   
     3    1    6 2   
     4    1   12 1   
     5    2   28 1   
     6    2   29 1   
     7    2   30 1   
     8    2   49 1   
     9    4   31 1   
    10    4   32 1   
    11    4   33 1   
    12    4   49 1   
    13    5   10 1   
    14    5   38 1   
    15    7   10 1   
    16    7   34 1   
    17    7   35 1   
    18    7   49 1   
    19    8   15 1   
    20    8   16 1   
    21    8   41 1   
    22    9   18 2   
    23   10   36 1   
    24   10   37 1   
    25   11   18 1   
    26   11   19 1   
    27   11   27 1   
    28   12   13 ar  
    29   12   26 ar  
    30   13   14 ar  
    31   13   39 1   
    32   14   15 ar  
    33   14   40 1   
    34   15   25 ar  
    35   16   17 2   
    36   16   42 1   
    37   17   18 1   
    38   17   24 1   
    39   19   20 ar  
    40   19   24 ar  
    41   20   21 ar  
    42   20   43 1   
    43   21   22 ar  
    44   21   44 1   
    45   22   23 ar  
    46   22   45 1   
    47   23   24 ar  
    48   23   46 1   
    49   25   26 ar  
    50   25   47 1   
    51   26   48 1   
@<TRIPOS>SUBSTRUCTURE
     1 48K         1 TEMP              0 ****  ****    0 ROOT
