@<TRIPOS>MOLECULE
48K
   49    44     1     0     0
SMALL
bcc


@<TRIPOS>ATOM
      1 S           0.9180    2.7690    0.8670 ss        1 48K      2.861000
      2 C1         -0.3470    4.8720    6.2420 c3        1 48K     -0.115500
      3 O1          2.3480    2.9190    0.6340 o         1 48K     -0.935500
      4 C2          2.0160    5.1900    6.1290 c3        1 48K     -0.115500
      5 N2          0.5880    2.7040    2.4330 n2        1 48K     -0.895000
      6 O2          0.4030    3.9920    0.2650 o         1 48K     -0.935500
      7 C3          0.8820    3.7080    4.6030 c3        1 48K     -0.081000
      8 N3         -0.8490   -1.9120   -2.4020 n3        1 48K     -0.261000
      9 O3          1.2850   -2.3340   -6.2170 o         1 48K     -0.346000
     10 C4          0.4190    3.9270    3.1890 c3        1 48K     -0.009000
     11 N4          0.4380   -4.5370   -6.0810 n         1 48K     -0.330000
     12 C5          0.2740    1.3240    0.0420 c1        1 48K     -0.864000
     13 C6          0.9970    0.1370    0.0550 c2        1 48K      0.023000
     14 C7          0.5450   -0.9610   -0.6780 c1        1 48K     -0.208000
     15 C8         -0.6230   -0.8670   -1.4160 c1        1 48K      0.142000
     16 C9         -0.0660   -1.9410   -3.5990 c2        1 48K      0.088000
     17 C10        -0.0740   -3.0380   -4.3790 c1        1 48K     -0.228000
     18 C11         0.6650   -3.2120   -5.6180 c2        1 48K      0.358000
     19 C12        -0.4800   -5.2310   -5.0880 c2        1 48K      0.067000
     20 C13        -0.9870   -6.5500   -5.0310 c2        1 48K     -0.164000
     21 C14        -1.8050   -6.9450   -3.9530 c1        1 48K     -0.097000
     22 C15        -2.1150   -6.0310   -2.9360 c1        1 48K     -0.159000
     23 C16        -1.6140   -4.7270   -2.9910 c1        1 48K     -0.094000
     24 C17        -0.7880   -4.3260   -4.0800 c1        1 48K     -0.067000
     25 C18        -1.3460    0.3270   -1.4260 c1        1 48K     -0.214000
     26 C19        -0.8980    1.4170   -0.6980 c1        1 48K      0.021000
     27 HN4         0.7250   -4.8840   -6.8820 hn        1 48K      0.256000
     28 H1         -0.3800    5.6740    6.8140 h1        1 48K      0.071833
     29 H1A        -0.2550    4.0680    6.8080 h1        1 48K      0.071833
     30 H1B        -1.1700    4.8100    5.7200 h1        1 48K      0.071833
     31 H2          2.2160    4.3900    6.6760 h1        1 48K      0.071833
     32 H2A         1.8920    5.9880    6.7310 h1        1 48K      0.071833
     33 H2B         2.7550    5.3580    5.5190 h1        1 48K      0.071833
     34 H3          1.7920    3.4110    4.6010 h1        1 48K      0.079000
     35 H3A         0.3230    3.0300    5.0250 h1        1 48K      0.079000
     36 H4         -0.5130    4.1800    3.1940 h1        1 48K      0.093500
     37 H4A         0.9530    4.6480    2.7710 h1        1 48K      0.093500
     38 HN2         0.4670    1.8720    2.8530 hn        1 48K      0.243000
     39 H6          1.7830    0.0740    0.5550 ha        1 48K      0.158000
     40 H7          1.0330   -1.7690   -0.6670 ha        1 48K      0.149000
     41 HN3        -1.5530   -2.4910   -2.3010 hn        1 48K      0.243000
     42 H9          0.4040   -1.1470   -3.8870 h4        1 48K      0.177000
     43 H13        -0.7780   -7.1700   -5.7200 ha        1 48K      0.141000
     44 H14        -2.1700   -7.8930   -3.9120 ha        1 48K      0.135000
     45 H15        -2.6920   -6.3110   -2.1760 ha        1 48K      0.134000
     46 H16        -1.8290   -4.0950   -2.2860 DU        1 48K      0.119000
     47 H18        -2.1710    0.3930   -1.9430 ha        1 48K      0.142000
     48 H19        -1.3930    2.2290   -0.7070 ha        1 48K      0.157000
     49 N1          0.7720    4.9590    5.3510 n3        1 48K     -0.272000
@<TRIPOS>BOND
     1    1    3 1   
     2    1    6 1   
     3    2   28 1   
     4    2   29 1   
     5    2   30 1   
     6    2   49 1   
     7    4   31 1   
     8    4   32 1   
     9    4   33 1   
    10    4   49 1   
    11    5   10 1   
    12    5   38 1   
    13    7   10 1   
    14    7   34 1   
    15    7   35 1   
    16    7   49 1   
    17    8   15 1   
    18    8   16 1   
    19    8   41 1   
    20    9   18 1   
    21   10   36 1   
    22   10   37 1   
    23   11   18 1   
    24   11   19 1   
    25   11   27 1   
    26   12   13 1   
    27   12   26 1   
    28   13   14 1   
    29   13   39 1   
    30   14   40 1   
    31   15   25 1   
    32   16   17 1   
    33   16   42 1   
    34   17   18 1   
    35   19   20 1   
    36   19   24 1   
    37   20   21 1   
    38   20   43 1   
    39   21   44 1   
    40   22   23 1   
    41   22   45 1   
    42   23   24 1   
    43   25   47 1   
    44   26   48 1   
@<TRIPOS>SUBSTRUCTURE
     1 48K         1 TEMP              0 ****  ****    0 ROOT
