@<TRIPOS>MOLECULE
48K
   49    50     1     0     0
SMALL
bcc


@<TRIPOS>ATOM
      1 S          -0.2680   -0.8080    0.9350 s6        1 48K      1.456700
      2 C1          0.1610   -1.8650    4.8400 c3        1 48K      0.094100
      3 O1         -0.4900   -0.0470   -0.2230 o         1 48K     -0.684200
      4 C2         -0.0850    0.4790    5.4580 c3        1 48K      0.094100
      5 N2          1.0060   -0.7910    1.5360 n2        1 48K     -1.039700
      6 O2         -1.2940   -0.6230    1.9620 o         1 48K     -0.727800
      7 C3          1.6360   -0.1730    3.8430 c3        1 48K      0.044800
      8 N3         -1.7970   -4.6190   -3.0590 nh        1 48K     -0.142400
      9 O3         -1.5470   -7.1120   -4.2780 o         1 48K     -0.668100
     10 C4          1.9740   -0.8980    2.4860 c3        1 48K      0.399800
     11 N4         -3.3580   -8.4590   -4.3930 n         1 48K     -0.489100
     12 C5         -0.5620   -2.5740    0.4380 c3        1 48K     -0.185500
     13 C6          0.3760   -3.0190   -0.6020 c2        1 48K     -0.053200
     14 C7         -0.0100   -3.6120   -1.7470 ce        1 48K     -0.268100
     15 C8         -1.4210   -3.8910   -2.0090 ce        1 48K      0.370900
     16 C9         -3.1290   -4.8390   -3.3710 c1        1 48K     -0.102900
     17 C10        -3.6330   -5.9780   -3.9120 ce        1 48K     -0.211000
     18 C11        -2.7970   -7.1870   -4.2000 c         1 48K      0.671300
     19 C12        -4.7470   -8.6120   -4.3740 c2        1 48K     -0.012400
     20 C13        -5.5760   -8.9470   -5.3920 ce        1 48K     -0.209000
     21 C14        -6.9520   -8.4690   -5.3520 ce        1 48K     -0.134000
     22 C15        -7.1950   -7.1780   -5.0010 cf        1 48K      0.006300
     23 C16        -6.1070   -6.3920   -4.5800 ch        1 48K     -0.228300
     24 C17        -4.9880   -6.0740   -4.2600 cg        1 48K     -0.052300
     25 C18        -2.3870   -3.3510   -1.0560 ce        1 48K     -0.268100
     26 C19        -1.9780   -2.7440    0.0720 c2        1 48K     -0.053200
     27 HN4        -2.8020   -9.1260   -4.8800 hn        1 48K      0.307500
     28 H1          0.4160   -2.5510    3.9890 hx        1 48K      0.088200
     29 H1A         0.8680   -2.0390    5.6910 hx        1 48K      0.088200
     30 H1B        -0.8930   -2.0640    5.1720 hx        1 48K      0.088200
     31 H2         -0.4380   -0.3340    3.5930 hn        1 48K      0.519800
     32 H2A        -0.0770    1.5260    5.0530 hx        1 48K      0.088200
     33 H2B        -1.1130    0.2380    5.8380 hx        1 48K      0.088200
     34 H3          0.6570    0.3930    6.2940 hx        1 48K      0.088200
     35 H3A         2.3890   -0.4820    4.6160 hx        1 48K      0.078200
     36 H4          1.7010    0.9380    3.6790 hx        1 48K      0.078200
     37 H4A         2.9410   -0.4120    2.1550 h1        1 48K      0.012700
     38 HN2         2.2060   -1.9760    2.7490 h1        1 48K      0.012700
     39 H6         -0.3710   -3.1820    1.3690 h1        1 48K      0.100700
     40 H7          1.4470   -2.8430   -0.4020 ha        1 48K      0.149000
     41 HN3         0.7290   -3.9090   -2.5090 ha        1 48K      0.165500
     42 H9         -1.0800   -4.9390   -3.6990 hn        1 48K      0.277700
     43 H13        -5.1780   -8.3360   -3.3850 h4        1 48K      0.145000
     44 H14        -5.2380   -9.4120   -6.3280 ha        1 48K      0.131000
     45 H15        -7.7530   -9.1360   -5.6970 ha        1 48K      0.129000
     46 H16        -8.1990   -6.7330   -5.0440 ha        1 48K      0.137000
     47 H18        -3.4560   -3.4480   -1.3240 ha        1 48K      0.165500
     48 H19        -2.7090   -2.3250    0.7880 ha        1 48K      0.149000
     49 N1          0.2670   -0.4640    4.3710 n4        1 48K     -0.694400
@<TRIPOS>BOND
     1    1    3 1   
     2    1    5 2   
     3    1    6 2   
     4    1   12 1   
     5    2   28 1   
     6    2   29 1   
     7    2   30 1   
     8    2   49 1   
     9    4   32 1   
    10    4   33 1   
    11    4   34 1   
    12    4   49 1   
    13    5   10 1   
    14    7   10 1   
    15    7   35 1   
    16    7   36 1   
    17    7   49 1   
    18    8   15 2   
    19    8   16 2   
    20    8   42 1   
    21    9   18 2   
    22   10   37 1   
    23   10   38 1   
    24   11   18 1   
    25   11   19 1   
    26   11   27 1   
    27   12   13 1   
    28   12   26 1   
    29   12   39 1   
    30   13   14 2   
    31   13   40 1   
    32   14   15 1   
    33   14   41 1   
    34   15   25 1   
    35   16   17 2   
    36   17   18 1   
    37   17   24 1   
    38   19   20 2   
    39   19   43 1   
    40   20   21 1   
    41   20   44 1   
    42   21   22 2   
    43   21   45 1   
    44   22   23 1   
    45   22   46 1   
    46   23   24 3   
    47   25   26 2   
    48   25   47 1   
    49   26   48 1   
    50   31   49 1   
@<TRIPOS>SUBSTRUCTURE
     1 48K         1 TEMP              0 ****  ****    0 ROOT
