@<TRIPOS>MOLECULE
48O
   42    43     1     0     0
SMALL
bcc


@<TRIPOS>ATOM
      1 N1          0.6670    0.2210   -0.8230 n2        1 48O     -0.048200
      2 O1          2.8290   -1.7100   -3.4610 o         1 48O     -0.809500
      3 C1          3.1330   -2.0330   -4.6490 c         1 48O      0.849500
      4 N2          2.3940   -1.5190   -5.7040 n         1 48O     -0.574500
      5 C2          2.6350   -1.8640   -7.0630 c         1 48O      0.704700
      6 O2          1.9200   -1.3540   -7.9270 o         1 48O     -0.524500
      7 C3          3.7320   -2.8170   -7.2830 cc        1 48O     -0.248200
      8 C4          4.4540   -3.2960   -6.2460 cd        1 48O      0.022600
      9 N3          4.2250   -2.8930   -4.9190 n         1 48O     -0.385000
     10 C5          4.9930   -3.5210   -3.8600 c3        1 48O      0.286500
     11 O3          4.1330   -4.2930   -2.9870 os        1 48O     -0.380600
     12 C6          5.7950   -2.5270   -2.9500 c3        1 48O      0.102100
     13 O4          7.0120   -3.1260   -2.5720 oh        1 48O     -0.591800
     14 C7          4.9240   -2.4340   -1.6830 c3        1 48O      0.097100
     15 O5          5.5800   -2.2130   -0.4630 oh        1 48O     -0.632800
     16 C8          4.1730   -3.7860   -1.6580 c3        1 48O      0.098100
     17 C9          2.7180   -3.6450   -1.1830 c3        1 48O      0.085800
     18 N4          2.6480   -2.9380    0.1440 n4        1 48O     -0.657800
     19 C10         1.5930   -1.8890    0.1750 c         1 48O      0.524100
     20 O6          0.5670   -2.1240    0.8010 o         1 48O     -0.412100
     21 C11         1.8780   -0.5780   -0.5630 c3        1 48O      0.041500
     22 C12         2.9790    0.1930    0.1610 c3        1 48O     -0.150100
     23 N5         -0.1670    0.6050   -0.0390 n1        1 48O      0.228000
     24 H1          1.6530   -0.8860   -5.4870 hn        1 48O      0.354500
     25 H2          3.9240   -3.1120   -8.3280 ha        1 48O      0.213000
     26 H3          5.2770   -4.0240   -6.3920 h4        1 48O      0.188000
     27 H4          5.6940   -4.2880   -4.3150 h2        1 48O      0.134700
     28 H5          5.9460   -1.5260   -3.4290 h1        1 48O      0.101700
     29 H6          7.7050   -2.8150   -3.1720 ho        1 48O      0.452000
     30 H7          4.2160   -1.5660   -1.8060 h1        1 48O      0.083700
     31 H8          6.4740   -2.5940   -0.5060 ho        1 48O      0.475000
     32 H9          4.7240   -4.5430   -1.0310 h1        1 48O      0.107700
     33 H10         2.1300   -3.0740   -1.9620 hx        1 48O      0.140700
     34 H11         2.2570   -4.6680   -1.0650 hx        1 48O      0.140700
     35 H12         2.4440   -3.6330    0.8820 hn        1 48O      0.493300
     36 H14         2.2020   -0.7960   -1.6510 h1        1 48O      0.231700
     37 H15         2.7490    0.3300    1.2450 hc        1 48O      0.110033
     38 H16         3.1300    1.2040   -0.3050 hc        1 48O      0.110033
     39 H17         3.9520   -0.3590    0.0540 hc        1 48O      0.110033
     40 NAX        -0.9530    1.2670    0.5610 n2        1 48O     -0.137400
     41 H13        -1.9180    0.9500    0.7330 hn        1 48O      0.572400
     42 H42         3.5700   -2.5060    0.3570 hn        1 48O      0.493300
@<TRIPOS>BOND
     1    1   21 1   
     2    1   23 2   
     3    2    3 2   
     4    3    4 1   
     5    3    9 1   
     6    4    5 1   
     7    4   24 1   
     8    5    6 2   
     9    5    7 1   
    10    7    8 2   
    11    7   25 1   
    12    8    9 1   
    13    8   26 1   
    14    9   10 1   
    15   10   11 1   
    16   10   12 1   
    17   10   27 1   
    18   11   16 1   
    19   12   13 1   
    20   12   14 1   
    21   12   28 1   
    22   13   29 1   
    23   14   15 1   
    24   14   16 1   
    25   14   30 1   
    26   15   31 1   
    27   16   17 1   
    28   16   32 1   
    29   17   18 1   
    30   17   33 1   
    31   17   34 1   
    32   18   19 1   
    33   18   35 1   
    34   18   42 1   
    35   19   20 2   
    36   19   21 1   
    37   21   22 1   
    38   21   36 1   
    39   22   37 1   
    40   22   38 1   
    41   22   39 1   
    42   23   40 2   
    43   40   41 1   
@<TRIPOS>SUBSTRUCTURE
     1 48O         1 TEMP              0 ****  ****    0 ROOT
