@<TRIPOS>MOLECULE
48O
   42    43     1     0     0
SMALL
bcc


@<TRIPOS>ATOM
      1 N1          0.7420    0.1680   -0.9390 n2        1 48O     -0.044200
      2 O1          2.1930   -2.8480   -2.9360 o         1 48O     -0.809500
      3 C1          2.1550   -3.6940   -3.8810 c         1 48O      0.849500
      4 N2          1.0840   -3.6820   -4.7610 ns        1 48O     -0.574500
      5 C2          0.9380   -4.6230   -5.8190 c         1 48O      0.704700
      6 O2         -0.0530   -4.5290   -6.5470 o         1 48O     -0.524500
      7 C3          2.0070   -5.6250   -5.9200 cc        1 48O     -0.248200
      8 C4          3.0540   -5.6130   -5.0640 cd        1 48O      0.022600
      9 N3          3.1970   -4.6350   -4.0650 n         1 48O     -0.385000
     10 C5          4.3070   -4.7490   -3.1370 c3        1 48O      0.286500
     11 O3          3.8330   -4.9930   -1.7910 os        1 48O     -0.379600
     12 C6          5.2410   -3.4900   -3.0730 c3        1 48O      0.102100
     13 O4          6.5700   -3.9110   -2.8700 oh        1 48O     -0.591800
     14 C7          4.7880   -2.7860   -1.7800 c3        1 48O      0.098100
     15 O5          5.7560   -2.0660   -1.0630 oh        1 48O     -0.632800
     16 C8          4.2200   -3.9380   -0.9180 c3        1 48O      0.097100
     17 C9          2.9690   -3.5220   -0.1270 c3        1 48O      0.085800
     18 N4          3.2320   -2.2850    0.6900 ny        1 48O     -0.657800
     19 C10         2.1350   -1.2850    0.5790 c         1 48O      0.518100
     20 O6          1.3830   -1.1520    1.5360 o         1 48O     -0.404100
     21 C11         2.0460   -0.4760   -0.7180 c3        1 48O      0.040500
     22 C12         3.2240    0.4930   -0.8000 c3        1 48O     -0.144100
     23 N5          0.0520    0.7850   -0.1620 n1        1 48O      0.221000
     24 H1          0.3820   -2.9850   -4.6290 hn        1 48O      0.354500
     25 H2          1.9040   -6.3740   -6.7220 ha        1 48O      0.213000
     26 H3          3.8640   -6.3670   -5.1190 h4        1 48O      0.188000
     27 H4          4.9120   -5.6720   -3.3950 h2        1 48O      0.134700
     28 H5          5.1380   -2.8280   -3.9690 h1        1 48O      0.101700
     29 H6          7.0130   -3.9450   -3.7300 ho        1 48O      0.452000
     30 H7          3.9930   -2.0340   -2.0480 h1        1 48O      0.082700
     31 H8          6.6290   -2.4710   -1.2080 ho        1 48O      0.475000
     32 H9          5.0080   -4.3520   -0.2270 h1        1 48O      0.107700
     33 H10         2.6710   -4.3550    0.5750 hx        1 48O      0.140700
     34 H11         2.1190   -3.3410   -0.8500 hx        1 48O      0.140700
     35 H12         3.3300   -2.5580    1.6830 hn        1 48O      0.493300
     36 H14         2.0630   -1.1840   -1.6330 h1        1 48O      0.232700
     37 H15         3.1230    1.1680   -1.6910 hc        1 48O      0.109033
     38 H16         3.3080    1.1220    0.1200 hc        1 48O      0.109033
     39 H17         4.1740   -0.0890   -0.9400 hc        1 48O      0.109033
     40 NAX        -0.9040    1.1310    0.4610 n2        1 48O     -0.137400
     41 H13        -1.0980    2.1280    0.6340 hn        1 48O      0.571400
     42 H42         4.1260   -1.8520    0.3870 hn        1 48O      0.493300
@<TRIPOS>BOND
     1    1   21 1   
     2    1   23 2   
     3    2    3 2   
     4    3    4 1   
     5    3    9 1   
     6    4    5 1   
     7    4   24 1   
     8    5    6 2   
     9    5    7 1   
    10    7    8 2   
    11    7   25 1   
    12    8    9 1   
    13    8   26 1   
    14    9   10 1   
    15   10   11 1   
    16   10   12 1   
    17   10   27 1   
    18   11   16 1   
    19   12   13 1   
    20   12   14 1   
    21   12   28 1   
    22   13   29 1   
    23   14   15 1   
    24   14   16 1   
    25   14   30 1   
    26   15   31 1   
    27   16   17 1   
    28   16   32 1   
    29   17   18 1   
    30   17   33 1   
    31   17   34 1   
    32   18   19 1   
    33   18   35 1   
    34   18   42 1   
    35   19   20 2   
    36   19   21 1   
    37   21   22 1   
    38   21   36 1   
    39   22   37 1   
    40   22   38 1   
    41   22   39 1   
    42   23   40 2   
    43   40   41 1   
@<TRIPOS>SUBSTRUCTURE
     1 48O         1 TEMP              0 ****  ****    0 ROOT
