@<TRIPOS>MOLECULE
48P
   25    25     1     0     0
SMALL
bcc


@<TRIPOS>ATOM
      1 OAE         0.1170    0.3100   -0.3520 oh        1 48P     -0.617800
      2 CAM         1.4850   -0.0040   -0.1000 c3        1 48P      0.164300
      3 CAL         1.7720   -0.0470    1.4130 c3        1 48P      0.105100
      4 OAD         1.4530    1.2190    1.9800 oh        1 48P     -0.626800
      5 CAI         3.2170   -0.4410    1.6620 c3        1 48P     -0.096400
      6 CAN         3.5790   -1.7800    1.0240 c3        1 48P      0.043000
      7 CAJ         5.0970   -1.7660    0.5860 c         1 48P      0.905600
      8 OAC         5.5540   -0.7360    0.0310 o         1 48P     -0.816300
      9 OAA         5.7420   -2.8210    0.8390 o         1 48P     -0.816300
     10 OAF         3.3640   -2.7960    2.0020 oh        1 48P     -0.631800
     11 CAG         2.7610   -2.1140   -0.1840 c2        1 48P     -0.091200
     12 CAK         1.8220   -1.3240   -0.7220 c2        1 48P     -0.209400
     13 CAH         1.0670   -1.6570   -1.9630 c3        1 48P      0.189600
     14 OAB         1.6580   -2.6740   -2.7530 oh        1 48P     -0.621800
     15 HAE        -0.1570    0.9070    0.3550 ho        1 48P      0.406000
     16 HAM         2.1120    0.8070   -0.5760 h1        1 48P      0.041700
     17 HAL         1.0640   -0.7630    1.9160 h1        1 48P      0.086700
     18 HAD         2.1700    1.8210    1.7510 ho        1 48P      0.397000
     19 HAI1        3.3970   -0.5000    2.7660 hc        1 48P      0.065700
     20 HAI2        3.8990    0.3440    1.2340 hc        1 48P      0.065700
     21 HAF         4.1350   -3.3870    1.9680 ho        1 48P      0.429000
     22 HAG         3.0050   -3.0930   -0.6310 ha        1 48P      0.134000
     23 HAH1        0.9470   -0.7300   -2.5900 h1        1 48P      0.043200
     24 HAH2        0.0460   -2.0510   -1.7030 h1        1 48P      0.043200
     25 HAB         2.6060   -2.4970   -2.7890 ho        1 48P      0.407000
@<TRIPOS>BOND
     1    1    2 1   
     2    1   15 1   
     3    2    3 1   
     4    2   12 1   
     5    2   16 1   
     6    3    4 1   
     7    3    5 1   
     8    3   17 1   
     9    4   18 1   
    10    5    6 1   
    11    5   19 1   
    12    5   20 1   
    13    6    7 1   
    14    6   10 1   
    15    6   11 1   
    16    7    8 1   
    17    7    9 1   
    18   10   21 1   
    19   11   12 2   
    20   11   22 1   
    21   12   13 1   
    22   13   14 1   
    23   13   23 1   
    24   13   24 1   
    25   14   25 1   
@<TRIPOS>SUBSTRUCTURE
     1 48P         1 TEMP              0 ****  ****    0 ROOT
