@<TRIPOS>MOLECULE
48P
   25    25     1     0     0
SMALL
bcc


@<TRIPOS>ATOM
      1 OAE         0.1100    0.2880   -0.3430 oh        1 48P     -0.617800
      2 CAM         1.4810   -0.0150   -0.0960 c3        1 48P      0.164300
      3 CAL         1.7750   -0.0560    1.4160 c3        1 48P      0.105100
      4 OAD         1.4470    1.2070    1.9850 oh        1 48P     -0.626800
      5 CAI         3.2240   -0.4370    1.6590 c3        1 48P     -0.096400
      6 CAN         3.5950   -1.7740    1.0190 c3        1 48P      0.043000
      7 CAJ         5.1100   -1.7460    0.5740 c         1 48P      0.905600
      8 OAC         5.5560   -0.7110    0.0180 o         1 48P     -0.816300
      9 OAA         5.7650   -2.7950    0.8230 o         1 48P     -0.816300
     10 OAF         3.3930   -2.7920    1.9960 oh        1 48P     -0.631800
     11 CAG         2.7740   -2.1140   -0.1870 c2        1 48P     -0.091200
     12 CAK         1.8260   -1.3310   -0.7200 c2        1 48P     -0.209400
     13 CAH         1.0690   -1.6700   -1.9580 c3        1 48P      0.189600
     14 OAB         1.6650   -2.6830   -2.7510 oh        1 48P     -0.621800
     15 HAE        -0.1670    0.8830    0.3660 ho        1 48P      0.406000
     16 HAM         2.1000    0.8010   -0.5740 h1        1 48P      0.041700
     17 HAL         1.0750   -0.7780    1.9210 h1        1 48P      0.086700
     18 HAD         2.1580    1.8160    1.7530 ho        1 48P      0.397000
     19 HAI1        3.8980    0.3530    1.2290 hc        1 48P      0.065700
     20 HAI2        3.4080   -0.4960    2.7620 hc        1 48P      0.065700
     21 HAF         4.1690   -3.3760    1.9590 ho        1 48P      0.429000
     22 HAG         3.0240   -3.0910   -0.6350 ha        1 48P      0.134000
     23 HAH1        0.9390   -0.7440   -2.5840 h1        1 48P      0.043200
     24 HAH2        0.0520   -2.0730   -1.6940 h1        1 48P      0.043200
     25 HAB         2.6110   -2.4980   -2.7900 ho        1 48P      0.407000
@<TRIPOS>BOND
     1    1    2 1   
     2    1   15 1   
     3    2    3 1   
     4    2   12 1   
     5    2   16 1   
     6    3    4 1   
     7    3    5 1   
     8    3   17 1   
     9    4   18 1   
    10    5    6 1   
    11    5   19 1   
    12    5   20 1   
    13    6    7 1   
    14    6   10 1   
    15    6   11 1   
    16    7    8 1   
    17    7    9 1   
    18   10   21 1   
    19   11   12 2   
    20   11   22 1   
    21   12   13 1   
    22   13   14 1   
    23   13   23 1   
    24   13   24 1   
    25   14   25 1   
@<TRIPOS>SUBSTRUCTURE
     1 48P         1 TEMP              0 ****  ****    0 ROOT
