@<TRIPOS>MOLECULE
48R
   44    46     1     0     0
SMALL
bcc


@<TRIPOS>ATOM
      1 O21        -0.1820   -0.8050    0.2130 o         1 48R     -0.455100
      2 C19         0.5740    0.1330    0.4360 c         1 48R      0.569100
      3 N20         0.5860    1.1920   -0.6240 n4        1 48R     -0.621700
      4 S22         1.3420    0.6630   -2.3170 s6        1 48R      1.425900
      5 O23         2.4200   -0.0890   -1.9210 o         1 48R     -0.553300
      6 C24         0.0790   -0.1970   -2.8920 c3        1 48R     -0.483300
      7 O25         1.4910    1.9010   -2.8960 o         1 48R     -0.553300
      8 C17         1.4640    0.3460    1.6330 c3        1 48R     -0.162700
      9 C18         2.8590    0.7870    1.2490 c3        1 48R     -0.126100
     10 C16         1.5110   -0.9510    2.4590 c3        1 48R      0.153400
     11 O15         2.1340   -0.7030    3.7280 os        1 48R     -0.168300
     12 N14         1.3500   -0.0570    4.5920 n2        1 48R     -0.481200
     13 C07         1.7850    0.0110    5.8210 cc        1 48R      0.523500
     14 C08         1.0360    0.7240    6.8960 ca        1 48R     -0.170400
     15 C09         1.7830    0.6310    8.1150 cp        1 48R     -0.021500
     16 C10         1.3010    1.2130    9.2720 ca        1 48R     -0.102000
     17 C11         0.0700    1.8900    9.2230 ca        1 48R     -0.103000
     18 C12        -0.6530    1.9750    8.0390 ca        1 48R     -0.134500
     19 C13        -0.1730    1.3880    6.8560 ca        1 48R     -0.078500
     20 C02         3.0040   -0.1330    7.8540 cp        1 48R     -0.021500
     21 C03         3.0120   -0.5130    6.4730 ca        1 48R     -0.170400
     22 C01         4.0430   -0.5020    8.6870 ca        1 48R     -0.102000
     23 C06         5.1000   -1.2560    8.1490 ca        1 48R     -0.103000
     24 C05         5.1060   -1.6260    6.8100 ca        1 48R     -0.134500
     25 C04         4.0540   -1.2550    5.9540 ca        1 48R     -0.078500
     26 H1          1.1130    1.9940   -0.2770 hn        1 48R      0.462300
     27 H2          0.3620   -0.8410   -3.7810 h1        1 48R      0.186367
     28 H3         -0.7880    0.4140   -3.2750 h1        1 48R      0.186367
     29 H4         -0.3840   -0.9460   -2.1830 h1        1 48R      0.186367
     30 H5          0.9740    1.1490    2.2630 hc        1 48R      0.128700
     31 H6          2.8880    1.8650    0.9600 hc        1 48R      0.073033
     32 H7          3.5280    0.6580    2.1420 hc        1 48R      0.073033
     33 H8          3.2720    0.1670    0.4150 hc        1 48R      0.073033
     34 H9          0.4830   -1.3810    2.5760 h1        1 48R      0.086700
     35 H10         2.2030   -1.6990    1.9870 h1        1 48R      0.086700
     36 H11         1.8630    1.1490   10.2150 ha        1 48R      0.147500
     37 H12        -0.3220    2.3560   10.1400 ha        1 48R      0.145000
     38 H13        -1.6170    2.5060    8.0230 ha        1 48R      0.141500
     39 H14        -0.7570    1.4570    5.9270 ha        1 48R      0.140500
     40 H15         4.0470   -0.2170    9.7490 ha        1 48R      0.147500
     41 H16         5.9320   -1.5570    8.8050 ha        1 48R      0.145000
     42 H17         5.9410   -2.2200    6.4080 ha        1 48R      0.141500
     43 H18         4.0650   -1.5560    4.8960 ha        1 48R      0.140500
     44 H202       -0.3720    1.5030   -0.7760 hn        1 48R      0.462300
@<TRIPOS>BOND
     1    1    2 2   
     2    2    3 1   
     3    2    8 1   
     4    3    4 1   
     5    3   26 1   
     6    3   44 1   
     7    4    5 2   
     8    4    6 1   
     9    4    7 2   
    10    6   27 1   
    11    6   28 1   
    12    6   29 1   
    13    8    9 1   
    14    8   10 1   
    15    8   30 1   
    16    9   31 1   
    17    9   32 1   
    18    9   33 1   
    19   10   11 1   
    20   10   34 1   
    21   10   35 1   
    22   11   12 1   
    23   12   13 2   
    24   13   14 1   
    25   13   21 1   
    26   14   15 ar  
    27   14   19 ar  
    28   15   16 ar  
    29   15   20 1   
    30   16   17 ar  
    31   16   36 1   
    32   17   18 ar  
    33   17   37 1   
    34   18   19 ar  
    35   18   38 1   
    36   19   39 1   
    37   20   21 ar  
    38   20   22 ar  
    39   21   25 ar  
    40   22   23 ar  
    41   22   40 1   
    42   23   24 ar  
    43   23   41 1   
    44   24   25 ar  
    45   24   42 1   
    46   25   43 1   
@<TRIPOS>SUBSTRUCTURE
     1 48R         1 TEMP              0 ****  ****    0 ROOT
