@<TRIPOS>MOLECULE
48R
   44    46     1     0     0
SMALL
bcc


@<TRIPOS>ATOM
      1 O21        -0.2220   -0.6410    0.1910 o         1 48R     -0.455100
      2 C19         0.5670    0.2630    0.4380 c         1 48R      0.569100
      3 N20         0.6140    1.3490   -0.5940 ny        1 48R     -0.621700
      4 S22         1.3490    0.8400   -2.3020 s6        1 48R      1.425900
      5 O23         2.4020    0.0410   -1.9280 o         1 48R     -0.553300
      6 C24         0.0570    0.0390   -2.8970 c3        1 48R     -0.483300
      7 O25         1.5390    2.0870   -2.8490 o         1 48R     -0.553300
      8 C17         1.4650    0.4140    1.6380 c3        1 48R     -0.162700
      9 C18         2.8740    0.8170    1.2630 c3        1 48R     -0.126100
     10 C16         1.4680   -0.9050    2.4290 c3        1 48R      0.153400
     11 O15         2.1020   -0.7130    3.7030 os        1 48R     -0.168300
     12 N14         1.3420   -0.0640    4.5860 n2        1 48R     -0.481200
     13 C07         1.7810   -0.0440    5.8140 cc        1 48R      0.523500
     14 C08         1.0590    0.6650    6.9100 ca        1 48R     -0.170400
     15 C09         1.8040    0.5140    8.1240 cp        1 48R     -0.021500
     16 C10         1.3450    1.0810    9.2980 ca        1 48R     -0.102000
     17 C11         0.1390    1.8020    9.2700 ca        1 48R     -0.103000
     18 C12        -0.5830    1.9450    8.0910 ca        1 48R     -0.134500
     19 C13        -0.1260    1.3730    6.8910 ca        1 48R     -0.078500
     20 C02         2.9970   -0.2850    7.8410 cp        1 48R     -0.021500
     21 C03         2.9900   -0.6280    6.4500 ca        1 48R     -0.170400
     22 C01         4.0230   -0.7140    8.6610 ca        1 48R     -0.102000
     23 C06         5.0520   -1.4900    8.1000 ca        1 48R     -0.103000
     24 C05         5.0430   -1.8230    6.7510 ca        1 48R     -0.134500
     25 C04         4.0040   -1.3920    5.9080 ca        1 48R     -0.078500
     26 H1         -0.3340    1.6970   -0.7360 hn        1 48R      0.462300
     27 H2         -0.7890    0.6880   -3.2620 h1        1 48R      0.186367
     28 H3          0.3170   -0.5900   -3.8030 h1        1 48R      0.186367
     29 H4         -0.4310   -0.7120   -2.2060 h1        1 48R      0.186367
     30 H5          1.0030    1.2160    2.2900 hc        1 48R      0.128700
     31 H6          3.2640    0.2050    0.4120 hc        1 48R      0.073033
     32 H7          3.5380    0.6410    2.1500 hc        1 48R      0.073033
     33 H8          2.9390    1.9010    1.0030 hc        1 48R      0.073033
     34 H9          0.4250   -1.3020    2.5370 h1        1 48R      0.086700
     35 H10         2.1320   -1.6640    1.9360 h1        1 48R      0.086700
     36 H11         1.9060    0.9720   10.2370 ha        1 48R      0.147500
     37 H12        -0.2350    2.2560   10.2010 ha        1 48R      0.145000
     38 H13        -1.5270    2.5100    8.0910 ha        1 48R      0.141500
     39 H14        -0.7080    1.4880    5.9660 ha        1 48R      0.140500
     40 H15         4.0400   -0.4580    9.7300 ha        1 48R      0.147500
     41 H16         5.8740   -1.8370    8.7450 ha        1 48R      0.145000
     42 H17         5.8560   -2.4350    6.3310 ha        1 48R      0.141500
     43 H18         4.0030   -1.6640    4.8420 ha        1 48R      0.140500
     44 H202        1.1690    2.1230   -0.2260 hn        1 48R      0.462300
@<TRIPOS>BOND
     1    1    2 2   
     2    2    3 1   
     3    2    8 1   
     4    3    4 1   
     5    3   26 1   
     6    3   44 1   
     7    4    5 2   
     8    4    6 1   
     9    4    7 2   
    10    6   27 1   
    11    6   28 1   
    12    6   29 1   
    13    8    9 1   
    14    8   10 1   
    15    8   30 1   
    16    9   31 1   
    17    9   32 1   
    18    9   33 1   
    19   10   11 1   
    20   10   34 1   
    21   10   35 1   
    22   11   12 1   
    23   12   13 2   
    24   13   14 1   
    25   13   21 1   
    26   14   15 ar  
    27   14   19 ar  
    28   15   16 ar  
    29   15   20 1   
    30   16   17 ar  
    31   16   36 1   
    32   17   18 ar  
    33   17   37 1   
    34   18   19 ar  
    35   18   38 1   
    36   19   39 1   
    37   20   21 ar  
    38   20   22 ar  
    39   21   25 ar  
    40   22   23 ar  
    41   22   40 1   
    42   23   24 ar  
    43   23   41 1   
    44   24   25 ar  
    45   24   42 1   
    46   25   43 1   
@<TRIPOS>SUBSTRUCTURE
     1 48R         1 TEMP              0 ****  ****    0 ROOT
