@<TRIPOS>MOLECULE
48S
   36    32     1     0     0
SMALL
bcc


@<TRIPOS>ATOM
      1 C11        -0.8360   -0.2030   -0.9420 c3        1 48S     -0.195000
      2 C13         6.5860    0.6460   -2.3820 c2        1 48S     -0.085000
      3 C14         6.3330   -1.0210   -5.4290 c1        1 48S     -0.244500
      4 C15         7.3930    0.6750   -1.3100 c2        1 48S     -0.119000
      5 C16         8.7670    0.3990   -1.3590 c1        1 48S     -0.090000
      6 O5          0.9630   -1.1390   -3.4610 o         1 48S     -1.127000
      7 O7          1.6550   -2.5240   -5.5040 o         1 48S     -1.127000
      8 O6          3.3980   -1.2210   -4.1670 o         1 48S     -1.127000
      9 C1          4.8280    2.1550   -3.2100 c3        1 48S     -0.189000
     10 C2          5.1220    0.9250   -2.3640 c3        1 48S     -0.036000
     11 C3          4.5840    1.1200   -0.9910 c2        1 48S     -0.368000
     12 C8          3.7710    0.2700   -0.4070 c1        1 48S      0.277000
     13 N9         -0.0450    0.3290    0.1620 n7        1 48S     -0.172000
     14 O10        -0.6670    0.1160    1.3410 oh        1 48S     -0.302000
     15 O12         3.0550   -0.4880    0.1710 o         1 48S     -0.173000
     16 C18         9.9440    0.1670   -1.3780 c1        1 48S     -0.213000
     17 C19        11.3390   -0.1150   -1.4050 c3        1 48S     -0.091000
     18 C17         7.4170   -0.9120   -5.9260 c1        1 48S     -0.244500
     19 H1         -0.1830   -0.2530   -1.8600 h1        1 48S      0.098000
     20 H2         -1.6950    0.4920   -1.1250 h1        1 48S      0.098000
     21 H3         -1.2510   -1.2250   -0.7390 h1        1 48S      0.098000
     22 H4          5.3570   -1.1200   -4.9840 ha        1 48S      0.241500
     23 H5          6.9740    0.3870   -3.3850 ha        1 48S      0.139000
     24 H6          7.0010    0.9180   -0.3050 ha        1 48S      0.134000
     25 H9          5.2060    2.0000   -4.2480 hc        1 48S      0.071667
     26 H10         5.3150    3.0620   -2.7790 hc        1 48S      0.071667
     27 H11         3.7250    2.3250   -3.2520 hc        1 48S      0.071667
     28 H12         4.6080    0.0370   -2.8630 hc        1 48S      0.190000
     29 H13         4.8580    2.0450   -0.4640 ha        1 48S      0.161000
     30 H14        -1.0220    0.9860    1.5890 ho        1 48S      0.198000
     31 H15        11.7390   -0.2360   -0.3650 hc        1 48S      0.081333
     32 H16        11.9010    0.7180   -1.9040 hc        1 48S      0.081333
     33 H17        11.5380   -1.0620   -1.9720 hc        1 48S      0.081333
     34 H18         8.3750   -0.8180   -6.3650 ha        1 48S      0.241500
     35 H91         0.8270   -0.2010    0.2070 hn        1 48S      0.170000
     36 P4          1.9960   -1.6380   -4.3840 p3        1 48S      2.397000
@<TRIPOS>BOND
     1    1   13 1   
     2    1   19 1   
     3    1   20 1   
     4    1   21 1   
     5    2    4 1   
     6    2   10 1   
     7    2   23 1   
     8    3   18 1   
     9    3   22 1   
    10    4    5 1   
    11    4   24 1   
    12    5   16 1   
    13    6   36 1   
    14    7   36 1   
    15    8   36 1   
    16    9   10 1   
    17    9   25 1   
    18    9   26 1   
    19    9   27 1   
    20   10   11 1   
    21   10   28 1   
    22   11   12 1   
    23   11   29 1   
    24   12   15 1   
    25   13   14 1   
    26   13   35 1   
    27   14   30 1   
    28   16   17 1   
    29   17   31 1   
    30   17   32 1   
    31   17   33 1   
    32   18   34 1   
@<TRIPOS>SUBSTRUCTURE
     1 48S         1 TEMP              0 ****  ****    0 ROOT
