@<TRIPOS>MOLECULE
48S
   36    32     1     0     0
SMALL
bcc


@<TRIPOS>ATOM
      1 C11         0.1690    0.5500   -1.4530 c3        1 48S     -0.205000
      2 C13         6.2040    0.1700   -1.6080 c2        1 48S      0.039000
      3 C14         6.6250   -1.2740   -5.8440 c1        1 48S     -0.246500
      4 C15         7.2320    0.8320   -1.0090 c2        1 48S     -0.232000
      5 C16         8.5450    0.3850   -0.9700 c1        1 48S     -0.110000
      6 O5          1.0410   -0.3710   -5.5560 o         1 48S     -1.129667
      7 O7          3.4850   -1.0300   -6.0010 o         1 48S     -1.129667
      8 O6          2.7430   -0.4270   -3.6540 o         1 48S     -1.129667
      9 C1          4.5220    1.9020   -0.9030 c3        1 48S     -0.208000
     10 C2          4.7670    0.5500   -1.5430 c3        1 48S     -0.037000
     11 C3          4.0220   -0.5160   -0.8250 c2        1 48S     -0.442000
     12 C8          3.1770   -1.3520   -1.4030 c1        1 48S      0.382000
     13 N9          0.4060    0.5970   -0.0120 n3        1 48S     -0.153000
     14 O10         1.4400    1.4060    0.2890 oh        1 48S     -0.308000
     15 O12         2.4260   -2.1920   -1.7770 o         1 48S     -0.155000
     16 C18         9.2700   -0.5710   -1.6860 c2        1 48S     -0.124000
     17 C19         9.8880   -0.4080   -2.8660 c2        1 48S     -0.313000
     18 C17         7.7520   -1.2250   -5.4450 c1        1 48S     -0.246500
     19 H1          1.0770    0.1130   -1.9590 h1        1 48S      0.097667
     20 H2         -0.0380    1.5520   -1.9110 h1        1 48S      0.097667
     21 H3         -0.7070   -0.1240   -1.6300 h1        1 48S      0.097667
     22 H4          5.6020   -1.3060   -6.1730 ha        1 48S      0.243000
     23 H5          6.4000   -0.7670   -2.1640 ha        1 48S      0.139000
     24 H6          7.0280    1.7630   -0.4450 ha        1 48S      0.137000
     25 H9          5.1470    2.6840   -1.3970 hc        1 48S      0.074667
     26 H10         3.4460    2.1830   -1.0200 hc        1 48S      0.074667
     27 H11         4.7660    1.8820    0.1860 hc        1 48S      0.074667
     28 H12         4.3900    0.5940   -2.6170 hc        1 48S      0.184000
     29 H13         4.1870   -0.6100    0.2570 ha        1 48S      0.156000
     30 H14         2.2410    0.8620    0.1410 ho        1 48S      0.230000
     31 H15         9.4390   -1.4970   -1.0960 ha        1 48S      0.139000
     32 H16        10.5710   -1.1630   -3.2670 ha        1 48S      0.105500
     33 H17         9.7650    0.4900   -3.4800 ha        1 48S      0.105500
     34 H18         8.7420   -1.1710   -5.0670 ha        1 48S      0.243000
     35 H91        -0.4040    1.0370    0.4250 hn        1 48S      0.135000
     36 P4          2.4090   -0.6170   -5.0860 p3        1 48S      2.413000
@<TRIPOS>BOND
     1    1   13 1   
     2    1   19 1   
     3    1   20 1   
     4    1   21 1   
     5    2    4 1   
     6    2   10 1   
     7    2   23 1   
     8    3   18 1   
     9    3   22 1   
    10    4    5 1   
    11    4   24 1   
    12    5   16 1   
    13    6   36 1   
    14    7   36 1   
    15    8   36 1   
    16    9   10 1   
    17    9   25 1   
    18    9   26 1   
    19    9   27 1   
    20   10   11 1   
    21   10   28 1   
    22   11   12 1   
    23   11   29 1   
    24   12   15 1   
    25   13   14 1   
    26   13   35 1   
    27   14   30 1   
    28   16   17 1   
    29   16   31 1   
    30   17   32 1   
    31   17   33 1   
    32   18   34 1   
@<TRIPOS>SUBSTRUCTURE
     1 48S         1 TEMP              0 ****  ****    0 ROOT
