@<TRIPOS>MOLECULE
48T
   63    64     1     0     0
SMALL
bcc


@<TRIPOS>ATOM
      1 N1          2.8650   -1.2830   -0.6960 n4        1 48T     -0.830600
      2 CA1         2.6660   -0.5580   -1.9890 c3        1 48T     -0.069500
      3 C1          4.0550    0.1050   -2.4230 c         1 48T      0.956600
      4 O11         3.9870    0.9200   -3.3730 o         1 48T     -0.774300
      5 CB1         1.5310    0.4570   -1.9110 c3        1 48T     -0.079400
      6 CG1         1.3050    1.1420   -3.2480 c3        1 48T     -0.121400
      7 CD1         2.1030    2.4190   -3.3430 c         1 48T      0.610100
      8 OE1         2.3680    3.1860   -2.4260 o         1 48T     -0.466100
      9 O12         5.0610   -0.2820   -1.7930 o         1 48T     -0.774300
     10 N2          2.5640    2.7960   -4.7240 n4        1 48T     -0.658800
     11 CA2         2.6670    4.2680   -4.9580 c3        1 48T      0.059500
     12 C2          1.2650    4.8880   -5.1770 c         1 48T      0.646100
     13 O2          0.2700    4.1550   -5.3380 o         1 48T     -0.596100
     14 CB2         3.5280    4.5840   -6.1840 c3        1 48T     -0.075300
     15 SG2         5.0570    3.7060   -6.1240 ss        1 48T     -0.191200
     16 CZ4         3.7190   -1.9900  -13.2810 ca        1 48T     -0.108000
     17 CE4         3.8910   -2.8200  -14.3870 ca        1 48T     -0.128000
     18 CD4         5.1600   -3.2980  -14.7150 ca        1 48T     -0.108000
     19 CG4         6.2600   -2.9410  -13.9350 ca        1 48T     -0.128000
     20 CB4         6.0950   -2.1070  -12.8310 ca        1 48T     -0.108000
     21 CH4         4.8210   -1.6250  -12.4940 cp        1 48T     -0.073000
     22 CH5         4.6440   -0.7520  -11.3370 cp        1 48T      0.036000
     23 CB5         3.5290   -0.8950  -10.4980 ca        1 48T     -0.138500
     24 CG5         3.3640   -0.0630   -9.3970 ca        1 48T     -0.067000
     25 CD5         4.3100    0.9340   -9.1070 ca        1 48T     -0.202600
     26 CE5         5.4240    1.0800   -9.9470 ca        1 48T     -0.067000
     27 CZ5         5.5890    0.2460  -11.0470 ca        1 48T     -0.138500
     28 O5          3.0850    1.6860   -7.2150 o         1 48T     -0.623100
     29 N3          1.1850    6.2630   -5.1140 n         1 48T     -0.505900
     30 CA3         0.0250    6.9530   -5.6130 c3        1 48T     -0.022000
     31 C3          0.1920    7.4710   -7.0320 c         1 48T      0.598100
     32 C13         5.1430    2.8280   -7.6480 c3        1 48T     -0.152300
     33 O31        -0.8530    8.1050   -7.6260 oh        1 48T     -0.548100
     34 C14         4.0950    1.7900   -7.9350 c         1 48T      0.625700
     35 O32         1.2050    7.3840   -7.7260 o         1 48T     -0.492000
     36 H11N        2.5870   -0.6940    0.0900 hn        1 48T      0.457800
     37 H12N        2.3440   -2.1560   -0.6720 hn        1 48T      0.457800
     38 HA1         2.4370   -1.3320   -2.7760 hx        1 48T      0.100700
     39 HB11        1.7530    1.2290   -1.1240 hc        1 48T      0.072200
     40 HB12        0.5760   -0.0610   -1.6240 hc        1 48T      0.072200
     41 HG11        0.2210    1.4290   -3.3510 hc        1 48T      0.104200
     42 HG12        1.5690    0.4430   -4.0870 hc        1 48T      0.104200
     43 H2          1.9320    2.3860   -5.4270 hn        1 48T      0.504300
     44 HA2         3.1430    4.7170   -4.0300 hx        1 48T      0.145700
     45 HB21        2.9690    4.3510   -7.1260 h1        1 48T      0.112200
     46 HB22        3.7520    5.6820   -6.1820 h1        1 48T      0.112200
     47 H3          2.0370    6.7820   -5.1430 hn        1 48T      0.329500
     48 H131        6.1490    2.3250   -7.5870 h1        1 48T      0.123200
     49 H132        5.1680    3.5440   -8.5100 h1        1 48T      0.123200
     50 HE4         3.0220   -3.0970  -15.0040 ha        1 48T      0.141500
     51 HZ4         2.7170   -1.6110  -13.0320 ha        1 48T      0.135000
     52 HZ5         6.4640    0.3740  -11.7040 ha        1 48T      0.152000
     53 HB5         2.7830   -1.6770  -10.7110 ha        1 48T      0.152000
     54 HE5         6.1790    1.8570   -9.7510 ha        1 48T      0.142000
     55 HG5         2.4870   -0.1800   -8.7390 ha        1 48T      0.142000
     56 HA31       -0.1720    7.8360   -4.9370 h1        1 48T      0.107200
     57 HA32       -0.8690    6.2630   -5.5820 h1        1 48T      0.107200
     58 HB4         6.9650   -1.8330  -12.2160 ha        1 48T      0.135000
     59 HG4         7.2620   -3.3180  -14.1900 ha        1 48T      0.141500
     60 H13         3.8910   -1.4720   -0.6180 hn        1 48T      0.457800
     61 H22         3.5220    2.3770   -4.8740 hn        1 48T      0.504300
     62 H32        -1.6140    8.1350   -7.0270 ho        1 48T      0.435000
     63 HD4         5.2930   -3.9540  -15.5880 ha        1 48T      0.142000
@<TRIPOS>BOND
     1    1    2 1   
     2    1   36 1   
     3    1   37 1   
     4    1   60 1   
     5    2    3 1   
     6    2    5 1   
     7    2   38 1   
     8    3    4 1   
     9    3    9 1   
    10    5    6 1   
    11    5   39 1   
    12    5   40 1   
    13    6    7 1   
    14    6   41 1   
    15    6   42 1   
    16    7    8 2   
    17    7   10 1   
    18   10   11 1   
    19   10   43 1   
    20   10   61 1   
    21   11   12 1   
    22   11   14 1   
    23   11   44 1   
    24   12   13 2   
    25   12   29 1   
    26   14   15 1   
    27   14   45 1   
    28   14   46 1   
    29   15   32 1   
    30   16   17 ar  
    31   16   21 ar  
    32   16   51 1   
    33   17   18 ar  
    34   17   50 1   
    35   18   19 ar  
    36   18   63 1   
    37   19   20 ar  
    38   19   59 1   
    39   20   21 ar  
    40   20   58 1   
    41   21   22 1   
    42   22   23 ar  
    43   22   27 ar  
    44   23   24 ar  
    45   23   53 1   
    46   24   25 ar  
    47   24   55 1   
    48   25   26 ar  
    49   25   34 1   
    50   26   27 ar  
    51   26   54 1   
    52   27   52 1   
    53   28   34 2   
    54   29   30 1   
    55   29   47 1   
    56   30   31 1   
    57   30   56 1   
    58   30   57 1   
    59   31   33 1   
    60   31   35 2   
    61   32   34 1   
    62   32   48 1   
    63   32   49 1   
    64   33   62 1   
@<TRIPOS>SUBSTRUCTURE
     1 48T         1 TEMP              0 ****  ****    0 ROOT
