@<TRIPOS>MOLECULE
48T
   63    64     1     0     0
SMALL
bcc


@<TRIPOS>ATOM
      1 N1          2.9940   -1.2890   -0.6930 nz        1 48T     -0.830600
      2 CA1         2.7590   -0.5830   -1.9900 c3        1 48T     -0.069500
      3 C1          4.1010    0.1810   -2.4080 c         1 48T      0.956600
      4 O11         3.9850    0.9870   -3.3610 o         1 48T     -0.774300
      5 CB1         1.5520    0.3460   -1.9280 c3        1 48T     -0.079400
      6 CG1         1.2930    1.0120   -3.2700 c3        1 48T     -0.121400
      7 CD1         1.9960    2.3440   -3.3570 c         1 48T      0.610100
      8 OE1         2.1920    3.1290   -2.4380 o         1 48T     -0.466100
      9 O12         5.1240   -0.1310   -1.7650 o         1 48T     -0.774300
     10 N2          2.4460    2.7530   -4.7320 ny        1 48T     -0.658800
     11 CA2         2.4440    4.2280   -4.9680 c3        1 48T      0.059500
     12 C2          1.0040    4.7440   -5.2050 c         1 48T      0.646100
     13 O2          0.0670    3.9410   -5.3770 o         1 48T     -0.596100
     14 CB2         3.2950    4.6050   -6.1840 c3        1 48T     -0.075300
     15 SG2         4.8830    3.8410   -6.1030 ss        1 48T     -0.191200
     16 CZ4         4.0510   -1.9380  -13.2710 ca        1 48T     -0.108000
     17 CE4         4.2960   -2.7530  -14.3740 ca        1 48T     -0.128000
     18 CD4         5.6000   -3.1390  -14.6850 ca        1 48T     -0.108000
     19 CG4         6.6610   -2.7040  -13.8900 ca        1 48T     -0.128000
     20 CB4         6.4220   -1.8840  -12.7900 ca        1 48T     -0.108000
     21 CH4         5.1130   -1.4950  -12.4700 cp        1 48T     -0.073000
     22 CH5         4.8600   -0.6370  -11.3150 cp        1 48T      0.036000
     23 CB5         3.7460   -0.8600  -10.4910 ca        1 48T     -0.138500
     24 CG5         3.5080   -0.0420   -9.3920 ca        1 48T     -0.067000
     25 CD5         4.3760    1.0200   -9.0910 ca        1 48T     -0.202600
     26 CE5         5.4880    1.2460   -9.9160 ca        1 48T     -0.067000
     27 CZ5         5.7260    0.4260  -11.0140 ca        1 48T     -0.138500
     28 O5          3.0770    1.6820   -7.2150 o         1 48T     -0.623100
     29 N3          0.8220    6.1090   -5.1460 ns        1 48T     -0.505900
     30 CA3        -0.3780    6.7130   -5.6600 c3        1 48T     -0.022000
     31 C3         -0.2320    7.2410   -7.0780 c         1 48T      0.598100
     32 C13         5.0520    2.9700   -7.6240 c3        1 48T     -0.152300
     33 O31        -1.3120    7.7970   -7.6850 oh        1 48T     -0.548100
     34 C14         4.0850    1.8590   -7.9230 c         1 48T      0.625700
     35 O32         0.7940    7.2280   -7.7590 o         1 48T     -0.492000
     36 H11N        2.5380   -2.1980   -0.6740 hn        1 48T      0.457800
     37 H12N        2.6640   -0.7220    0.0880 hn        1 48T      0.457800
     38 HA1         2.5980   -1.3720   -2.7790 hx        1 48T      0.100700
     39 HB11        1.7060    1.1330   -1.1400 hc        1 48T      0.072200
     40 HB12        0.6330   -0.2400   -1.6520 hc        1 48T      0.072200
     41 HG11        0.1920    1.2180   -3.3870 hc        1 48T      0.104200
     42 HG12        1.6180    0.3330   -4.1040 hc        1 48T      0.104200
     43 H2          1.8530    2.2970   -5.4430 hn        1 48T      0.504300
     44 HA2         2.8740    4.7110   -4.0350 hx        1 48T      0.145700
     45 HB21        2.7660    4.3310   -7.1320 h1        1 48T      0.112200
     46 HB22        3.4380    5.7160   -6.1810 h1        1 48T      0.112200
     47 H3         -2.0810    7.7720   -7.0960 ho        1 48T      0.435000
     48 H131        6.0910    2.5410   -7.5500 h1        1 48T      0.123200
     49 H132        5.0360    3.6860   -8.4870 h1        1 48T      0.123200
     50 HE4         3.4580   -3.0910  -15.0010 ha        1 48T      0.141500
     51 HZ4         3.0210   -1.6310  -13.0340 ha        1 48T      0.135000
     52 HZ5         6.5980    0.6170  -11.6590 ha        1 48T      0.152000
     53 HB5         3.0610   -1.6930  -10.7130 ha        1 48T      0.152000
     54 HE5         6.1830    2.0750   -9.7110 ha        1 48T      0.142000
     55 HG5         2.6330   -0.2210   -8.7460 ha        1 48T      0.142000
     56 HA31       -0.6480    7.5800   -4.9880 h1        1 48T      0.107200
     57 HA32       -1.2200    5.9590   -5.6390 h1        1 48T      0.107200
     58 HB4         7.2630   -1.5490  -12.1630 ha        1 48T      0.135000
     59 HG4         7.6910   -3.0090  -14.1320 ha        1 48T      0.141500
     60 H13         4.0300   -1.4030   -0.6020 hn        1 48T      0.457800
     61 H22         3.4340    2.4050   -4.8700 hn        1 48T      0.504300
     62 H32         1.6340    6.6890   -5.1640 hn        1 48T      0.329500
     63 HD4         5.7910   -3.7840  -15.5560 ha        1 48T      0.142000
@<TRIPOS>BOND
     1    1    2 1   
     2    1   36 1   
     3    1   37 1   
     4    1   60 1   
     5    2    3 1   
     6    2    5 1   
     7    2   38 1   
     8    3    4 1   
     9    3    9 1   
    10    5    6 1   
    11    5   39 1   
    12    5   40 1   
    13    6    7 1   
    14    6   41 1   
    15    6   42 1   
    16    7    8 2   
    17    7   10 1   
    18   10   11 1   
    19   10   43 1   
    20   10   61 1   
    21   11   12 1   
    22   11   14 1   
    23   11   44 1   
    24   12   13 2   
    25   12   29 1   
    26   14   15 1   
    27   14   45 1   
    28   14   46 1   
    29   15   32 1   
    30   16   17 ar  
    31   16   21 ar  
    32   16   51 1   
    33   17   18 ar  
    34   17   50 1   
    35   18   19 ar  
    36   18   63 1   
    37   19   20 ar  
    38   19   59 1   
    39   20   21 ar  
    40   20   58 1   
    41   21   22 1   
    42   22   23 ar  
    43   22   27 ar  
    44   23   24 ar  
    45   23   53 1   
    46   24   25 ar  
    47   24   55 1   
    48   25   26 ar  
    49   25   34 1   
    50   26   27 ar  
    51   26   54 1   
    52   27   52 1   
    53   28   34 2   
    54   29   30 1   
    55   29   62 1   
    56   30   31 1   
    57   30   56 1   
    58   30   57 1   
    59   31   33 1   
    60   31   35 2   
    61   32   34 1   
    62   32   48 1   
    63   32   49 1   
    64   33   47 1   
@<TRIPOS>SUBSTRUCTURE
     1 48T         1 TEMP              0 ****  ****    0 ROOT
