@<TRIPOS>MOLECULE
48T
   60    56     1     0     0
SMALL
bcc


@<TRIPOS>ATOM
      1 N1         -4.8930   -2.7210    7.5170 n3        1 48T     -0.328000
      2 CA1        -3.7160   -3.2340    6.9060 c3        1 48T     -0.128000
      3 C1         -2.7990   -3.7940    7.9690 c2        1 48T      0.308000
      4 O11        -2.5120   -5.0210    7.9700 o         1 48T     -0.580000
      5 CB1        -3.0080   -2.1240    6.1630 c3        1 48T     -0.141000
      6 CG1        -3.2140   -2.3020    4.6710 c3        1 48T     -0.174000
      7 CD1        -2.4560   -1.2220    3.9240 c2        1 48T      0.305000
      8 OE1        -1.7380   -0.4520    4.5320 o         1 48T     -0.401000
      9 O12        -2.3510   -3.0420    8.8730 o         1 48T     -0.580000
     10 N2         -2.5870   -1.1090    2.5110 n         1 48T     -0.365000
     11 CA2        -2.0320    0.0100    1.8340 c3        1 48T      0.009000
     12 C2         -3.0120    1.1610    1.8770 c2        1 48T      0.256000
     13 O2         -4.1970    0.9570    1.7100 o         1 48T     -0.406000
     14 CB2        -1.7510   -0.3600    0.3930 c3        1 48T     -0.297000
     15 SG2        -0.0160   -0.6770    0.1920 ss        1 48T      0.095000
     16 CZ4         5.7050   -0.1710   -6.9320 c1        1 48T     -0.123000
     17 CE4         6.4220    0.0490   -8.0980 c1        1 48T     -0.133250
     18 CD4         6.1450    1.1570   -8.8820 c1        1 48T     -0.133250
     19 CG4         5.1520    2.0460   -8.5020 c1        1 48T     -0.133250
     20 CB4         4.4350    1.8250   -7.3360 c1        1 48T     -0.133250
     21 CH4         4.7120    0.7170   -6.5510 c1        1 48T     -0.014000
     22 CH5         3.9920    0.5260   -5.2310 c2        1 48T     -0.047000
     23 CB5         4.6740    0.7080   -4.0380 c2        1 48T     -0.150000
     24 CG5         4.0100    0.5580   -2.8300 c1        1 48T     -0.096000
     25 CD5         2.6640    0.2270   -2.8160 c1        1 48T     -0.149000
     26 CE5         1.9830    0.0450   -4.0080 c1        1 48T     -0.083000
     27 CZ5         2.6470    0.1950   -5.2160 c1        1 48T     -0.120000
     28 O5          2.5100    0.3330   -0.4530 o         1 48T     -0.309000
     29 N3         -2.5470    2.4800    2.1280 n         1 48T     -0.326000
     30 CA3        -3.4720    3.5630    2.1790 c3        1 48T     -0.118000
     31 C3         -2.8190    4.7530    2.8520 c2        1 48T      0.314000
     32 C13         0.4670   -0.2940   -1.4750 c3        1 48T     -0.359000
     33 O31        -2.9810    4.9470    4.0860 o         1 48T     -0.585000
     34 C14         1.9230    0.1250   -1.4960 c2        1 48T      0.289000
     35 O32        -2.1210    5.5550    2.1760 o         1 48T     -0.585000
     36 H11N       -5.6310   -3.0480    7.0830 hn        1 48T      0.126500
     37 H12N       -4.9180   -2.9770    8.3950 hn        1 48T      0.126500
     38 HA1        -3.9580   -3.9440    6.2780 h1        1 48T      0.080000
     39 HB11       -2.0520   -2.1540    6.3660 hc        1 48T      0.095000
     40 HB12       -3.3740   -1.2610    6.4410 hc        1 48T      0.095000
     41 HG11       -4.1670   -2.2350    4.4630 hc        1 48T      0.104500
     42 HG12       -2.8820   -3.1810    4.4000 hc        1 48T      0.104500
     43 H2         -3.0620   -1.7330    2.0460 hn        1 48T      0.240000
     44 HA2        -1.1980    0.2750    2.2710 h1        1 48T      0.153000
     45 HB21       -2.0170    0.3770   -0.1910 h1        1 48T      0.125500
     46 HB22       -2.2580   -1.1620    0.1580 h1        1 48T      0.125500
     47 H3         -1.6560    2.6350    2.2420 hn        1 48T      0.237000
     48 H131       -0.0870    0.4360   -1.8160 h1        1 48T      0.173000
     49 H132        0.3470   -1.0840   -2.0390 h1        1 48T      0.173000
     50 HB4         3.7350    2.4510   -7.0680 ha        1 48T      0.126250
     51 HG4         4.9670    2.8340   -9.0470 ha        1 48T      0.126250
     52 HD4         6.6500    1.3120   -9.7030 ha        1 48T      0.126250
     53 HE4         7.1230   -0.5760   -8.3660 ha        1 48T      0.126250
     54 HZ4         5.9000   -0.9510   -6.3800 ha        1 48T      0.135000
     55 HZ5         2.1700    0.0530   -6.0560 ha        1 48T      0.156000
     56 HB5         5.6220    0.9410   -4.0480 ha        1 48T      0.119000
     57 HE5         1.0350   -0.1880   -3.9980 ha        1 48T      0.224000
     58 HG5         4.4950    0.6660   -1.9900 ha        1 48T      0.138000
     59 HA31       -4.2630    3.2930    2.6900 h1        1 48T      0.091500
     60 HA32       -3.7390    3.8090    1.2690 h1        1 48T      0.091500
@<TRIPOS>BOND
     1    1    2 1   
     2    1   36 1   
     3    1   37 1   
     4    2    3 1   
     5    2    5 1   
     6    2   38 1   
     7    3    4 1   
     8    3    9 1   
     9    5    6 1   
    10    5   39 1   
    11    5   40 1   
    12    6    7 1   
    13    6   41 1   
    14    6   42 1   
    15    7    8 1   
    16    7   10 1   
    17   10   11 1   
    18   10   43 1   
    19   11   12 1   
    20   11   14 1   
    21   11   44 1   
    22   12   13 1   
    23   12   29 1   
    24   14   15 1   
    25   14   45 1   
    26   14   46 1   
    27   15   32 1   
    28   16   21 1   
    29   16   54 1   
    30   17   18 1   
    31   17   53 1   
    32   18   52 1   
    33   19   20 1   
    34   19   51 1   
    35   20   50 1   
    36   21   22 1   
    37   22   23 1   
    38   22   27 1   
    39   23   24 1   
    40   23   56 1   
    41   24   58 1   
    42   25   26 1   
    43   25   34 1   
    44   26   57 1   
    45   27   55 1   
    46   28   34 1   
    47   29   30 1   
    48   29   47 1   
    49   30   31 1   
    50   30   59 1   
    51   30   60 1   
    52   31   33 1   
    53   31   35 1   
    54   32   34 1   
    55   32   48 1   
    56   32   49 1   
@<TRIPOS>SUBSTRUCTURE
     1 48T         1 TEMP              0 ****  ****    0 ROOT
