@<TRIPOS>MOLECULE
48T
   60    61     1     0     0
SMALL
bcc


@<TRIPOS>ATOM
      1 N1         -6.8930    3.1110    1.7650 n3        1 48T     -0.895800
      2 CA1        -5.4760    3.2510    2.0780 c3        1 48T      0.019500
      3 C1         -4.9860    4.7340    2.1870 c         1 48T      0.888600
      4 O11        -3.7700    4.9300    2.4590 o         1 48T     -0.845800
      5 CB1        -4.5590    2.5020    1.1070 c3        1 48T     -0.062400
      6 CG1        -4.7800    1.0060    1.1750 c3        1 48T     -0.146400
      7 CD1        -3.9240    0.2410    0.1820 c         1 48T      0.661100
      8 OE1        -4.4300   -0.3290   -0.8080 o         1 48T     -0.637100
      9 O12        -5.8380    5.6550    2.0280 o         1 48T     -0.845800
     10 N2         -2.5560    0.2060    0.4050 n         1 48T     -0.548900
     11 CA2        -1.6780   -0.6690   -0.3270 c3        1 48T      0.029700
     12 C2         -1.1140   -1.8080    0.5730 c         1 48T      0.611100
     13 O2         -0.9800   -1.6410    1.8050 o         1 48T     -0.636100
     14 CB2        -0.4590    0.0570   -0.9250 c3        1 48T     -0.032300
     15 SG2        -0.4820    0.0320   -2.6950 ss        1 48T     -0.275200
     16 CZ4         6.9250    1.1490    0.5470 ca        1 48T     -0.117500
     17 CE4         7.8240    1.3770    1.5870 ca        1 48T     -0.136500
     18 CD4         7.5730    0.8580    2.8570 ca        1 48T     -0.143000
     19 CG4         6.4190    0.1080    3.0830 ca        1 48T     -0.136500
     20 CB4         5.5190   -0.1250    2.0460 ca        1 48T     -0.117500
     21 CH4         5.7630    0.3950    0.7660 cp        1 48T     -0.019000
     22 CH5         4.8170    0.1530   -0.3220 cp        1 48T     -0.043000
     23 CB5         4.5220    1.1680   -1.2450 ca        1 48T     -0.132000
     24 CG5         3.6180    0.9370   -2.2760 ca        1 48T     -0.094000
     25 CD5         2.9830   -0.3060   -2.3950 ca        1 48T     -0.164600
     26 CE5         3.2750   -1.3240   -1.4810 ca        1 48T     -0.094000
     27 CZ5         4.1890   -1.0920   -0.4540 ca        1 48T     -0.132000
     28 O5          2.3170   -0.1990   -4.6700 o         1 48T     -0.558100
     29 N3         -0.8250   -3.0000   -0.0540 n         1 48T     -0.509900
     30 CA3         0.0710   -3.9660    0.5350 c3        1 48T     -0.058000
     31 C3          1.3130   -4.2840   -0.3340 c         1 48T      0.897600
     32 C13         0.7200   -1.1680   -3.1740 c3        1 48T     -0.150300
     33 O31         1.3620   -3.8400   -1.5250 o         1 48T     -0.848800
     34 C14         2.0320   -0.5280   -3.5100 c         1 48T      0.604700
     35 O32         2.2230   -4.9780    0.1910 o         1 48T     -0.848800
     36 H11N       -7.3760    3.8660    2.2260 hn        1 48T      0.331300
     37 H12N       -7.0200    3.2560    0.7780 hn        1 48T      0.331300
     38 HA1        -5.3370    2.8020    3.1060 h1        1 48T      0.040700
     39 HB11       -4.7280    2.8640    0.0600 hc        1 48T      0.056700
     40 HB12       -3.5020    2.7580    1.3870 hc        1 48T      0.056700
     41 HG11       -4.5690    0.6380    2.2130 hc        1 48T      0.066200
     42 HG12       -5.8500    0.7650    0.9380 hc        1 48T      0.066200
     43 H2         -2.2120    0.5380    1.2780 hn        1 48T      0.323500
     44 HA2        -2.2810   -1.1200   -1.1770 h1        1 48T      0.115700
     45 HB21       -0.4630    1.1420   -0.6450 h1        1 48T      0.090700
     46 HB22        0.4910   -0.3860   -0.5400 h1        1 48T      0.090700
     47 H3         -0.7690   -2.9750   -1.0540 hn        1 48T      0.309500
     48 H131        0.8620   -1.9750   -2.4010 h1        1 48T      0.128700
     49 H132        0.3010   -1.6550   -4.0930 h1        1 48T      0.128700
     50 HD4         8.2810    1.0410    3.6770 ha        1 48T      0.117000
     51 HE4         8.7320    1.9680    1.4040 ha        1 48T      0.122500
     52 HZ4         7.1280    1.5560   -0.4550 ha        1 48T      0.142000
     53 HZ5         4.4120   -1.9050    0.2570 ha        1 48T      0.138000
     54 HB5         5.0000    2.1530   -1.1470 ha        1 48T      0.138000
     55 HE5         2.7910   -2.3240   -1.5610 ha        1 48T      0.178000
     56 HG5         3.3930    1.7300   -3.0060 ha        1 48T      0.178000
     57 HA31        0.4180   -3.6120    1.5440 h1        1 48T      0.052700
     58 HA32       -0.5020   -4.9240    0.6780 h1        1 48T      0.052700
     59 HB4         4.6060   -0.7140    2.2290 ha        1 48T      0.142000
     60 HG4         6.2160   -0.3010    4.0830 ha        1 48T      0.122500
@<TRIPOS>BOND
     1    1    2 1   
     2    1   36 1   
     3    1   37 1   
     4    2    3 1   
     5    2    5 1   
     6    2   38 1   
     7    3    4 1   
     8    3    9 1   
     9    5    6 1   
    10    5   39 1   
    11    5   40 1   
    12    6    7 1   
    13    6   41 1   
    14    6   42 1   
    15    7    8 2   
    16    7   10 1   
    17   10   11 1   
    18   10   43 1   
    19   11   12 1   
    20   11   14 1   
    21   11   44 1   
    22   12   13 2   
    23   12   29 1   
    24   14   15 1   
    25   14   45 1   
    26   14   46 1   
    27   15   32 1   
    28   16   17 ar  
    29   16   21 ar  
    30   16   52 1   
    31   17   18 ar  
    32   17   51 1   
    33   18   19 ar  
    34   18   50 1   
    35   19   20 ar  
    36   19   60 1   
    37   20   21 ar  
    38   20   59 1   
    39   21   22 1   
    40   22   23 ar  
    41   22   27 ar  
    42   23   24 ar  
    43   23   54 1   
    44   24   25 ar  
    45   24   56 1   
    46   25   26 ar  
    47   25   34 1   
    48   26   27 ar  
    49   26   55 1   
    50   27   53 1   
    51   28   34 2   
    52   29   30 1   
    53   29   47 1   
    54   30   31 1   
    55   30   57 1   
    56   30   58 1   
    57   31   33 1   
    58   31   35 1   
    59   32   34 1   
    60   32   48 1   
    61   32   49 1   
@<TRIPOS>SUBSTRUCTURE
     1 48T         1 TEMP              0 ****  ****    0 ROOT
