@<TRIPOS>MOLECULE
48U
   51    51     1     0     0
SMALL
bcc


@<TRIPOS>ATOM
      1 C8          0.6280   -1.4300   -5.9790 c2        1 48U      0.113000
      2 C5         11.0430    1.3990    3.8010 c2        1 48U      0.266000
      3 C6          9.9080    1.8190    3.1330 c2        1 48U     -1.271000
      4 N1          7.7560   -0.2890    3.2240 n8        1 48U     -0.110000
      5 C2         12.8560    2.0240    6.9200 c2        1 48U     -0.175000
      6 N3          1.5410   -1.0150   -5.1590 ns        1 48U     -0.159000
      7 C4         11.4640    1.8520    5.0500 c2        1 48U     -0.521000
      8 C7          5.1940   -2.5440    3.4200 c3        1 48U     -0.289000
      9 C28         1.7870   -1.6050   -3.8260 c2        1 48U      0.366000
     10 O4          1.0790   -2.5470   -3.4800 o         1 48U     -0.235000
     11 C27         2.8730   -0.9590   -3.0910 c2        1 48U     -0.283000
     12 C26         3.2400   -1.4210   -1.8290 c2        1 48U      0.113000
     13 C22         4.2750   -0.7850   -1.1040 c2        1 48U     -0.104000
     14 F1          4.5730   -1.3250    0.1110 f         1 48U     -0.111000
     15 C15         4.9680    0.3450   -1.6110 c2        1 48U      0.165000
     16 C21         4.6060    0.7860   -3.0100 c3        1 48U     -0.184000
     17 C24         3.5340    0.1100   -3.6920 c1        1 48U     -0.158000
     18 N2          5.9230    1.0560   -0.9150 n         1 48U     -0.275000
     19 C50         6.7370    2.0710   -1.5200 c2        1 48U      0.258000
     20 O3          6.6530    2.3610   -2.7110 o         1 48U     -0.261000
     21 C12         8.0050    0.1880    2.0470 c2        1 48U     -0.343000
     22 C13         7.2520   -0.1980    0.8180 c3        1 48U     -0.213000
     23 C14         6.1670    0.8530    0.5040 c3        1 48U     -0.039000
     24 O2          8.7190    2.4240    1.0210 o         1 48U     -0.899000
     25 O1         10.3300    0.6620    0.9670 o         1 48U     -0.899000
     26 S2         10.7230    3.0480    5.9840 ss        1 48U      0.729000
     27 C1         11.8530    2.9760    7.1920 c2        1 48U     -0.306000
     28 Cl1        11.8200    3.9120    8.5590 cl        1 48U      0.157000
     29 C3         12.6390    1.3830    5.6970 c2        1 48U     -0.013000
     30 H1          2.1780   -0.2340   -5.3670 hn        1 48U      0.327000
     31 H2          0.4890   -0.9470   -6.9710 h4        1 48U      0.208500
     32 H3         -0.0370   -2.2830   -5.7030 h4        1 48U      0.208500
     33 H4          9.3050    2.5780    3.6820 h4        1 48U      0.213000
     34 H5         11.6960    0.6420    3.3050 ha        1 48U      0.165000
     35 H6          7.0280   -0.9640    3.4070 hn        1 48U      0.269000
     36 H8          4.3630   -3.2810    3.4910 hc        1 48U      0.074000
     37 H9          5.1550   -2.0490    2.4240 hc        1 48U      0.074000
     38 H10         5.0730   -1.7880    4.2270 hc        1 48U      0.074000
     39 H11         2.7380   -2.2960   -1.3690 ha        1 48U      0.188000
     40 H12         5.5260    0.6970   -3.6830 hc        1 48U      0.217000
     41 H13         4.3730    1.9000   -3.0180 hc        1 48U      0.217000
     42 H14         7.4420    2.5590   -0.7990 h5        1 48U      0.213000
     43 H15         6.4740    1.8510    0.9420 h1        1 48U      0.137000
     44 H16         8.0100   -0.2700   -0.0150 hc        1 48U      0.151500
     45 H17         6.7660   -1.2100    0.9050 hc        1 48U      0.151500
     46 H18         5.2080    0.5500    1.0130 h1        1 48U      0.137000
     47 H19        13.2990    0.6120    5.2810 ha        1 48U      0.186000
     48 H121        8.3040    0.0030    4.0170 hn        1 48U      0.269000
     49 H31         6.1600   -3.0820    3.5410 hc        1 48U      0.074000
     50 S1          9.4950    1.4880    1.6830 s6        1 48U      2.925000
     51 H7         13.7030    1.8200    7.5860 ha        1 48U      0.206000
@<TRIPOS>BOND
     1    1    6 1   
     2    1   31 1   
     3    1   32 1   
     4    2    3 1   
     5    2    7 1   
     6    2   34 1   
     7    3   33 1   
     8    3   50 1   
     9    4   21 1   
    10    4   35 1   
    11    4   48 1   
    12    5   27 1   
    13    5   29 1   
    14    5   51 1   
    15    6    9 1   
    16    6   30 1   
    17    7   26 1   
    18    7   29 1   
    19    8   36 1   
    20    8   37 1   
    21    8   38 1   
    22    8   49 1   
    23    9   10 1   
    24    9   11 1   
    25   11   12 1   
    26   11   17 1   
    27   12   13 1   
    28   12   39 1   
    29   13   14 1   
    30   13   15 1   
    31   15   16 1   
    32   15   18 1   
    33   16   17 1   
    34   16   40 1   
    35   16   41 1   
    36   18   19 1   
    37   18   23 1   
    38   19   20 1   
    39   19   42 1   
    40   21   22 1   
    41   21   50 1   
    42   22   23 1   
    43   22   44 1   
    44   22   45 1   
    45   23   43 1   
    46   23   46 1   
    47   24   50 1   
    48   25   50 1   
    49   26   27 1   
    50   27   28 1   
    51   29   47 1   
@<TRIPOS>SUBSTRUCTURE
     1 48U         1 TEMP              0 ****  ****    0 ROOT
