@<TRIPOS>MOLECULE
48W
   62    64     1     0     0
SMALL
bcc


@<TRIPOS>ATOM
      1 C1         -0.4440   -0.0510   -0.1990 c3        1 48W     -0.105100
      2 C2          1.0820   -0.0400   -0.1390 c3        1 48W      0.048700
      3 N3          1.6900   -1.1670   -0.8200 n         1 48W     -0.416800
      4 C4          3.0940   -1.0560   -1.2080 c3        1 48W      0.069000
      5 C5          3.6180   -2.4780   -1.4800 c3        1 48W     -0.113400
      6 C6          2.5330   -3.4300   -0.9340 c3        1 48W      0.051500
      7 N7          2.1270   -4.5200   -1.8110 n3        1 48W     -0.987800
      8 S8          0.8330   -6.3060   -0.9680 s4        1 48W      1.672300
      9 O9         -0.2810   -5.8960   -1.6300 o         1 48W     -0.440400
     10 O10         1.7040   -7.1930   -1.5290 o         1 48W     -0.440400
     11 C11         0.9030   -6.1130    0.5730 ca        1 48W     -0.619500
     12 C12         1.9160   -6.8070    1.3260 ca        1 48W     -0.050000
     13 C13         1.9850   -6.7210    2.6830 ca        1 48W     -0.115000
     14 C14         1.0500   -5.9260    3.4150 ca        1 48W      0.070000
     15 C15         1.1010   -5.8250    4.8220 ca        1 48W     -0.155000
     16 C16         0.1780   -5.0390    5.4920 ca        1 48W      0.092400
     17 CL1         0.2310   -4.9130    7.1730 cl        1 48W     -0.020400
     18 C18        -0.8260   -4.3280    4.7790 ca        1 48W     -0.130000
     19 C19        -0.8900   -4.4170    3.4110 ca        1 48W     -0.051000
     20 C20         0.0440   -5.2200    2.6940 ca        1 48W     -0.108000
     21 C21        -0.0070   -5.3220    1.2930 ca        1 48W      0.150000
     22 C22         1.3420   -2.4920   -0.5770 c         1 48W      0.708500
     23 O23         0.2460   -2.9340   -0.2020 o         1 48W     -0.636500
     24 C24         1.5080    0.0520    1.3530 c         1 48W      0.623100
     25 O25         1.8800   -0.9820    1.9510 o         1 48W     -0.625100
     26 N26         1.4030    1.2570    2.0270 n         1 48W     -0.448800
     27 C27         1.8760    1.3430    3.3950 c3        1 48W      0.054000
     28 C28         3.2590    2.0150    3.5540 c3        1 48W      0.079000
     29 N29         3.2650    3.4480    3.4370 n         1 48W     -0.482800
     30 C30         3.6810    4.2000    4.5910 c3        1 48W      0.074300
     31 C31         2.9750    4.0980    2.2460 c         1 48W      0.693500
     32 O32         3.0940    5.3350    2.1500 o         1 48W     -0.621500
     33 C33         2.4950    3.2940    1.0530 c3        1 48W     -0.180400
     34 C34         1.2110    2.5230    1.3590 c3        1 48W      0.083000
     35 H1         -0.8410    0.8750    0.2820 hc        1 48W      0.066700
     36 H2         -0.8580   -0.9400    0.3380 hc        1 48W      0.066700
     37 H3         -0.7910   -0.0820   -1.2600 hc        1 48W      0.066700
     38 H4          1.4700    0.8730   -0.6880 h1        1 48W      0.083700
     39 H5          3.1580   -0.4200   -2.1330 h1        1 48W      0.071700
     40 H6          3.6950   -0.5670   -0.3920 h1        1 48W      0.071700
     41 H7          4.5870   -2.6440   -0.9490 hc        1 48W      0.078700
     42 H8          3.7930   -2.6200   -2.5750 hc        1 48W      0.078700
     43 H9          2.8890   -3.8860    0.0370 h1        1 48W      0.108700
     44 H10         1.5630   -4.1630   -2.5680 hn        1 48W      0.408300
     45 H11         2.6390   -7.4330    0.7700 ha        1 48W      0.166000
     46 H12         2.7630   -7.2670    3.2440 ha        1 48W      0.170000
     47 H13         1.8810   -6.3760    5.3730 ha        1 48W      0.172000
     48 H14        -1.5470   -3.7080    5.3380 ha        1 48W      0.174000
     49 H15        -1.6610   -3.8640    2.8480 ha        1 48W      0.163000
     50 H16        -0.7860   -4.7510    0.7430 ha        1 48W      0.190000
     51 H17         1.9570    0.3010    3.8210 h1        1 48W      0.080200
     52 H18         1.1030    1.9090    3.9890 h1        1 48W      0.080200
     53 H19         3.6330    1.7400    4.5830 h1        1 48W      0.057200
     54 H20         3.9750    1.5720    2.8020 h1        1 48W      0.057200
     55 H21         3.6250    5.3010    4.3770 h1        1 48W      0.052700
     56 H22         3.0110    3.9620    5.4600 h1        1 48W      0.052700
     57 H23         4.7380    3.9360    4.8640 h1        1 48W      0.052700
     58 H24         2.2790    4.0280    0.2290 hc        1 48W      0.081200
     59 H25         3.3160    2.6170    0.7040 hc        1 48W      0.081200
     60 H26         0.6460    2.3700    0.3970 h1        1 48W      0.070200
     61 H27         0.5570    3.1600    2.0250 h1        1 48W      0.070200
     62 H72         2.9470   -4.9580   -2.2040 hn        1 48W      0.408300
@<TRIPOS>BOND
     1    1    2 1   
     2    1   35 1   
     3    1   36 1   
     4    1   37 1   
     5    2    3 1   
     6    2   24 1   
     7    2   38 1   
     8    3    4 1   
     9    3   22 1   
    10    4    5 1   
    11    4   39 1   
    12    4   40 1   
    13    5    6 1   
    14    5   41 1   
    15    5   42 1   
    16    6    7 1   
    17    6   22 1   
    18    6   43 1   
    19    7   44 1   
    20    7   62 1   
    21    8    9 1   
    22    8   10 1   
    23    8   11 1   
    24   11   12 ar  
    25   11   21 ar  
    26   12   13 ar  
    27   12   45 1   
    28   13   14 ar  
    29   13   46 1   
    30   14   15 ar  
    31   14   20 ar  
    32   15   16 ar  
    33   15   47 1   
    34   16   17 1   
    35   16   18 ar  
    36   18   19 ar  
    37   18   48 1   
    38   19   20 ar  
    39   19   49 1   
    40   20   21 ar  
    41   21   50 1   
    42   22   23 2   
    43   24   25 2   
    44   24   26 1   
    45   26   27 1   
    46   26   34 1   
    47   27   28 1   
    48   27   51 1   
    49   27   52 1   
    50   28   29 1   
    51   28   53 1   
    52   28   54 1   
    53   29   30 1   
    54   29   31 1   
    55   30   55 1   
    56   30   56 1   
    57   30   57 1   
    58   31   32 2   
    59   31   33 1   
    60   33   34 1   
    61   33   58 1   
    62   33   59 1   
    63   34   60 1   
    64   34   61 1   
@<TRIPOS>SUBSTRUCTURE
     1 48W         1 TEMP              0 ****  ****    0 ROOT
