@<TRIPOS>MOLECULE
48W
   62    65     1     0     0
SMALL
bcc


@<TRIPOS>ATOM
      1 C1         -0.2410    1.1090    0.8810 c3        1 48W     -0.107100
      2 C2          1.1790    0.8150    0.3990 c3        1 48W      0.038700
      3 N3          1.3400   -0.5430   -0.0960 n         1 48W     -0.400800
      4 C4          2.5540   -0.8370   -0.8600 c3        1 48W      0.061000
      5 C5          2.7980   -2.3590   -0.7960 c3        1 48W     -0.099400
      6 C6          1.9450   -2.8380    0.3900 c3        1 48W      0.006500
      7 N7          1.2200   -4.1100    0.2060 ny        1 48W     -0.684900
      8 S8          2.2010   -5.6900    0.7250 sy        1 48W      1.491200
      9 O9          2.3240   -6.2970   -0.5120 o         1 48W     -0.576300
     10 O10         3.2990   -5.1590    1.3650 o         1 48W     -0.576300
     11 C11         1.0770   -6.3180    1.6660 ca        1 48W     -0.559500
     12 C12         0.9820   -5.8960    3.0310 ca        1 48W     -0.050000
     13 C13         0.0690   -6.4450    3.8870 ca        1 48W     -0.105000
     14 C14        -0.8200   -7.4670    3.4440 ca        1 48W      0.060000
     15 C15        -1.7720   -8.0520    4.3130 ca        1 48W     -0.148000
     16 C16        -2.6100   -9.0480    3.8480 ca        1 48W      0.081400
     17 Cl1        -3.7470   -9.7540    4.8750 cl        1 48W     -0.019400
     18 C18        -2.5290   -9.4970    2.5000 ca        1 48W     -0.118000
     19 C19        -1.6150   -8.9400    1.6440 ca        1 48W     -0.076000
     20 C20        -0.7370   -7.9090    2.0920 ca        1 48W     -0.097000
     21 C21         0.2090   -7.3240    1.2320 ca        1 48W      0.090000
     22 C22         0.9680   -1.6510    0.6680 c         1 48W      0.692500
     23 O23        -0.0220   -1.8020    1.3930 o         1 48W     -0.586500
     24 C24         2.1670    1.1410    1.5540 c         1 48W      0.623100
     25 O25         2.6650    0.2000    2.2110 o         1 48W     -0.628100
     26 N26         2.4300    2.4560    1.8880 n         1 48W     -0.446800
     27 C27         3.3620    2.7380    2.9630 c3        1 48W      0.053000
     28 C28         4.7640    3.1930    2.4950 c3        1 48W      0.079000
     29 N29         4.8480    4.5530    2.0370 n         1 48W     -0.481800
     30 C30         5.6980    5.4460    2.7800 c3        1 48W      0.074300
     31 C31         4.2060    4.9920    0.8890 c         1 48W      0.693500
     32 O32         4.3750    6.1520    0.4670 o         1 48W     -0.623500
     33 C33         3.2770    4.0500    0.1470 c3        1 48W     -0.180400
     34 C34         2.1200    3.5720    1.0250 c3        1 48W      0.084000
     35 H1         -0.3160    2.1820    1.1830 hc        1 48W      0.069367
     36 H2         -0.5060    0.4700    1.7600 hc        1 48W      0.069367
     37 H3         -0.9770    0.9140    0.0640 hc        1 48W      0.069367
     38 H4          1.4190    1.4750   -0.4900 h1        1 48W      0.085700
     39 H5          2.3900   -0.5030   -1.9200 h1        1 48W      0.078700
     40 H6          3.4390   -0.2870   -0.4350 h1        1 48W      0.078700
     41 H7          3.8800   -2.5740   -0.6160 hc        1 48W      0.085700
     42 H8          2.5000   -2.8370   -1.7630 hc        1 48W      0.085700
     43 H9          2.5970   -2.9350    1.3150 hx        1 48W      0.153700
     44 H10         0.3550   -4.0460    0.7550 hn        1 48W      0.454300
     45 H11         1.6840   -5.1210    3.3910 ha        1 48W      0.163000
     46 H12         0.0100   -6.1100    4.9370 ha        1 48W      0.171000
     47 H13        -1.8290   -7.7030    5.3580 ha        1 48W      0.173000
     48 H14        -3.2090  -10.2960    2.1570 ha        1 48W      0.175000
     49 H15        -1.5440   -9.2830    0.5990 ha        1 48W      0.157000
     50 H16         0.2710   -7.6850    0.1860 ha        1 48W      0.165000
     51 H17         2.9000    3.5310    3.6170 h1        1 48W      0.083200
     52 H18         3.5000    1.8050    3.5830 h1        1 48W      0.083200
     53 H19         5.1280    2.4980    1.6840 h1        1 48W      0.058700
     54 H20         5.4520    3.0710    3.3810 h1        1 48W      0.058700
     55 H21         5.3510    5.5000    3.8470 h1        1 48W      0.053033
     56 H22         5.6650    6.4750    2.3320 h1        1 48W      0.053033
     57 H23         6.7580    5.0750    2.7610 h1        1 48W      0.053033
     58 H24         2.8490    4.6260   -0.7180 hc        1 48W      0.081200
     59 H25         3.8680    3.1930   -0.2690 hc        1 48W      0.081200
     60 H26         1.7890    4.4280    1.6850 h1        1 48W      0.069200
     61 H27         1.2500    3.3160    0.3590 h1        1 48W      0.069200
     62 H72         0.9510   -4.2000   -0.7740 hn        1 48W      0.454300
@<TRIPOS>BOND
     1    1    2 1   
     2    1   35 1   
     3    1   36 1   
     4    1   37 1   
     5    2    3 1   
     6    2   24 1   
     7    2   38 1   
     8    3    4 1   
     9    3   22 1   
    10    4    5 1   
    11    4   39 1   
    12    4   40 1   
    13    5    6 1   
    14    5   41 1   
    15    5   42 1   
    16    6    7 1   
    17    6   22 1   
    18    6   43 1   
    19    7    8 1   
    20    7   44 1   
    21    7   62 1   
    22    8    9 2   
    23    8   10 2   
    24    8   11 1   
    25   11   12 ar  
    26   11   21 ar  
    27   12   13 ar  
    28   12   45 1   
    29   13   14 ar  
    30   13   46 1   
    31   14   15 ar  
    32   14   20 ar  
    33   15   16 ar  
    34   15   47 1   
    35   16   17 1   
    36   16   18 ar  
    37   18   19 ar  
    38   18   48 1   
    39   19   20 ar  
    40   19   49 1   
    41   20   21 ar  
    42   21   50 1   
    43   22   23 2   
    44   24   25 2   
    45   24   26 1   
    46   26   27 1   
    47   26   34 1   
    48   27   28 1   
    49   27   51 1   
    50   27   52 1   
    51   28   29 1   
    52   28   53 1   
    53   28   54 1   
    54   29   30 1   
    55   29   31 1   
    56   30   55 1   
    57   30   56 1   
    58   30   57 1   
    59   31   32 2   
    60   31   33 1   
    61   33   34 1   
    62   33   58 1   
    63   33   59 1   
    64   34   60 1   
    65   34   61 1   
@<TRIPOS>SUBSTRUCTURE
     1 48W         1 TEMP              0 ****  ****    0 ROOT
