@<TRIPOS>MOLECULE
48X
   14    13     1     0     0
SMALL
bcc


@<TRIPOS>ATOM
      1 P           0.1390   -0.1190    0.0040 p5        1 48X      1.328900
      2 O1         -3.4940   -3.2980   -3.2890 o         1 48X     -0.913300
      3 O2         -4.7680   -3.1600   -1.4960 o         1 48X     -0.913300
      4 O4P         1.6260   -0.1470   -0.2710 o         1 48X     -0.953167
      5 O2P        -0.2350   -0.4540    1.4290 o         1 48X     -0.953167
      6 O3P        -0.5870    1.0720   -0.5770 o         1 48X     -0.953167
      7 O1P        -0.4150   -1.4550   -0.9190 os        1 48X     -0.596200
      8 C3         -1.7150   -1.4310   -1.3870 c3        1 48X      0.239400
      9 C2         -2.3940   -2.7910   -1.1750 c3        1 48X     -0.188400
     10 C1         -3.6160   -3.0690   -2.0410 c         1 48X      0.900600
     11 H4         -1.7200   -1.2220   -2.4990 h1        1 48X     -0.012800
     12 H5         -2.3000   -0.6170   -0.8750 h1        1 48X     -0.012800
     13 H6         -2.6860   -2.8810   -0.0980 hc        1 48X      0.013200
     14 H7         -1.6380   -3.5900   -1.3900 hc        1 48X      0.013200
@<TRIPOS>BOND
     1    1    4 1   
     2    1    5 1   
     3    1    6 1   
     4    1    7 1   
     5    2   10 1   
     6    3   10 1   
     7    7    8 1   
     8    8    9 1   
     9    8   11 1   
    10    8   12 1   
    11    9   10 1   
    12    9   13 1   
    13    9   14 1   
@<TRIPOS>SUBSTRUCTURE
     1 48X         1 TEMP              0 ****  ****    0 ROOT
