@<TRIPOS>MOLECULE
48Z
   23    23     1     0     0
SMALL
bcc


@<TRIPOS>ATOM
      1 O1          4.0090   -1.6300    0.6390 oh        1 48Z     -0.620800
      2 P          -2.1300    0.9460    0.4980 p5        1 48Z      1.295800
      3 C1          3.2110   -1.0480   -0.3600 c3        1 48Z      0.307900
      4 C2          3.1730    0.5030   -0.2470 c3        1 48Z      0.102600
      5 F2          3.5270    1.1000   -1.4410 f         1 48Z     -0.236300
      6 C3          1.7120    0.8300    0.1650 c3        1 48Z      0.114100
      7 O3          1.7730    1.5380    1.3840 oh        1 48Z     -0.629800
      8 C4          1.0250   -0.5390    0.3580 c3        1 48Z      0.077100
      9 O4          1.9100   -1.5600   -0.1450 os        1 48Z     -0.441600
     10 C5         -0.3070   -0.6760   -0.3980 c3        1 48Z      0.185400
     11 O5         -1.3950   -0.5210    0.4650 os        1 48Z     -0.556200
     12 OP1        -1.0140    1.8860    0.6950 o         1 48Z     -0.773500
     13 OP2        -3.3600    0.8310    1.2830 o         1 48Z     -0.773500
     14 SP3        -2.8170    1.1310   -1.6180 sh        1 48Z     -0.713200
     15 H2          3.8870    0.8460    0.5530 h1        1 48Z      0.085700
     16 H3          1.1960    1.4420   -0.6220 h1        1 48Z      0.094700
     17 HO3         0.9170    1.9900    1.4850 ho        1 48Z      0.469000
     18 H4          0.8690   -0.7470    1.4520 h1        1 48Z      0.076700
     19 H5         -0.3740    0.0750   -1.2340 h1        1 48Z      0.053700
     20 H5A        -0.3680   -1.7170   -0.8250 h1        1 48Z      0.053700
     21 HSP3       -4.0830    0.7910   -1.4310 hs        1 48Z      0.313800
     22 HO1         3.5310   -1.5650    1.4760 ho        1 48Z      0.417000
     23 H10         3.5970   -1.4210   -1.3440 h2        1 48Z      0.100700
@<TRIPOS>BOND
     1    1    3 1   
     2    1   22 1   
     3    2   11 1   
     4    2   12 1   
     5    2   13 1   
     6    2   14 1   
     7    3    4 1   
     8    3    9 1   
     9    3   23 1   
    10    4    5 1   
    11    4    6 1   
    12    4   15 1   
    13    6    7 1   
    14    6    8 1   
    15    6   16 1   
    16    7   17 1   
    17    8    9 1   
    18    8   10 1   
    19    8   18 1   
    20   10   11 1   
    21   10   19 1   
    22   10   20 1   
    23   14   21 1   
@<TRIPOS>SUBSTRUCTURE
     1 48Z         1 TEMP              0 ****  ****    0 ROOT
