@<TRIPOS>MOLECULE
48Z
   23    22     1     0     0
SMALL
bcc


@<TRIPOS>ATOM
      1 O1         -2.7700   -2.2740   -1.2050 oh        1 48Z     -0.346000
      2 P           2.7400    1.8430   -0.7130 p3        1 48Z      2.517000
      3 C1         -1.5560   -1.6430   -0.7950 c3        1 48Z      0.126000
      4 C2         -1.3910   -1.7460    0.7440 c3        1 48Z     -0.002000
      5 F2         -0.4630   -2.5360    1.0300 f         1 48Z     -0.165000
      6 C3         -1.0340   -0.2770    1.2360 c3        1 48Z     -0.003000
      7 O3         -2.2080    0.3360    1.9270 oh        1 48Z     -0.363000
      8 C4         -0.7610    0.3680    0.1750 c3        1 48Z     -0.038000
      9 O4         -1.6030   -0.3730   -1.0460 os        1 48Z     -0.300000
     10 C5          0.7270    0.3080   -0.1060 c3        1 48Z      0.020000
     11 O5          1.2530    1.6410   -0.1820 os        1 48Z     -0.720000
     12 OP1         3.6820    0.9370    0.0600 o         1 48Z     -1.074000
     13 OP2         2.8020    1.4970   -2.1880 o         1 48Z     -1.074000
     14 SP3         3.3090    3.8310   -0.4420 s         1 48Z     -0.914000
     15 H2         -2.2400   -2.0500    1.1590 h1        1 48Z      0.127000
     16 H3         -0.2620   -0.2960    1.8280 h1        1 48Z      0.138000
     17 HO3        -2.1540    0.1740    2.8060 ho        1 48Z      0.267000
     18 H4         -1.0510    1.3070    0.2650 h1        1 48Z      0.112000
     19 H5          1.1770   -0.1810    0.6190 h1        1 48Z      0.096500
     20 H5A         0.8810   -0.1560   -0.9600 h1        1 48Z      0.096500
     21 HSP3        4.3510    4.0200   -0.9730 hs        1 48Z      0.143000
     22 HO1        -2.6470   -2.6750   -1.9890 ho        1 48Z      0.217000
     23 H10        -0.7820   -2.0550   -1.2510 h2        1 48Z      0.139000
@<TRIPOS>BOND
     1    1    3 1   
     2    1   22 1   
     3    2   11 1   
     4    2   12 1   
     5    2   13 1   
     6    3    4 1   
     7    3    9 1   
     8    3   23 1   
     9    4    5 1   
    10    4    6 1   
    11    4   15 1   
    12    6    7 1   
    13    6    8 1   
    14    6   16 1   
    15    7   17 1   
    16    8    9 1   
    17    8   10 1   
    18    8   18 1   
    19   10   11 1   
    20   10   19 1   
    21   10   20 1   
    22   14   21 1   
@<TRIPOS>SUBSTRUCTURE
     1 48Z         1 TEMP              0 ****  ****    0 ROOT
