@<TRIPOS>MOLECULE
490
   55    55     1     0     0
SMALL
bcc


@<TRIPOS>ATOM
      1 C4          0.0920   -0.2390   -0.4430 c2        1 490     -0.120000
      2 C7         -1.1270   -1.7550    1.1510 c3        1 490     -0.067000
      3 C8          1.7970    1.3980   -1.4480 c3        1 490     -0.084000
      4 C10         3.0370    1.2140   -4.0830 c2        1 490      0.299000
      5 C17         7.4450    3.2260    1.2610 c1        1 490     -0.194000
      6 C20         7.6200    2.4060    2.1190 c1        1 490     -0.144000
      7 C21         5.5100    0.6190    3.1890 c1        1 490     -0.058000
      8 C22         9.2160    1.2540    3.5770 c2        1 490     -0.165000
      9 C24        11.5520    0.6960    2.6070 c1        1 490     -0.047000
     10 C26        10.8900    1.1800    5.5230 c2        1 490     -0.252000
     11 C25        10.1590    0.9500    2.4690 c3        1 490     -0.206000
     12 C19         6.8120    0.7060    3.6460 c2        1 490     -0.139000
     13 C23        12.0690    0.8700    4.9740 c1        1 490      0.049000
     14 C29         9.3420    1.7200    7.1670 c1        1 490      0.077000
     15 C18         7.8290    1.4620    3.1410 c2        1 490     -0.008000
     16 C3          1.2480    0.5510   -0.3740 c2        1 490     -0.091000
     17 C27         9.5520    1.3620    4.8820 c2        1 490      0.062000
     18 C16         4.3820    1.5010    3.2510 c3        1 490     -0.013000
     19 C2          1.7390    0.3800    0.9870 c2        1 490     -0.210000
     20 C12         3.2690    1.2300   -1.6200 c2        1 490     -0.085000
     21 C11         3.8250    1.1570   -2.8350 c2        1 490     -0.242000
     22 C9          1.0000    1.2070   -2.6990 c1        1 490     -0.029000
     23 C1          2.9410    1.0370    1.4750 c1        1 490      0.029000
     24 N28         8.6750    1.6780    5.9600 n3        1 490     -0.300000
     25 N6          0.8990   -0.4740    1.6630 n2        1 490     -0.020000
     26 N5         -0.0640   -0.8320    0.8220 na        1 490     -0.100000
     27 N30        10.6590    1.4200    6.9310 n3        1 490     -0.220000
     28 N13         1.5860    1.1370   -3.9210 n         1 490     -0.205000
     29 O32         3.5540    1.3310   -5.1950 o         1 490     -0.236000
     30 O15         3.1770    0.8470    2.7660 os        1 490     -0.164000
     31 H1         -0.6060   -0.3980   -1.2660 h4        1 490      0.198000
     32 H2         -1.5830   -1.4840    2.1400 h1        1 490      0.105333
     33 H3         -1.9080   -1.7000    0.3480 h1        1 490      0.105333
     34 H4         -0.7200   -2.8000    1.2090 h1        1 490      0.105333
     35 H5          4.1070    1.7710    4.3130 h1        1 490      0.152000
     36 H6          7.2890    3.9510    0.5020 ha        1 490      0.230000
     37 H7          4.5730    2.4350    2.6420 h1        1 490      0.152000
     38 H8         10.0950    1.8000    1.7080 hc        1 490      0.182500
     39 H9          9.7610    0.0420    1.9020 hc        1 490      0.182500
     40 H10         7.0450   -0.0630    4.4180 ha        1 490      0.188000
     41 H11        12.1930    0.6730    3.5640 ha        1 490      0.176000
     42 H12         7.7340    1.9360    5.8170 hn        1 490      0.257000
     43 H13         3.8660    1.1870   -0.6880 ha        1 490      0.184000
     44 H14         4.9100    1.0520   -2.9890 ha        1 490      0.166000
     45 H15         1.6110    2.4860   -1.1550 hc        1 490      0.167000
     46 H16        12.1120    0.2690    7.9150 h1        1 490      0.092667
     47 H17        12.5280    2.0280    7.6590 h1        1 490      0.092667
     48 H18        11.2750    1.5590    8.9130 h1        1 490      0.092667
     49 H19         4.3760    3.0180    0.5240 ha        1 490      0.004000
     50 H20         4.9220    3.4210    0.5230 ha        1 490      0.004000
     51 H21        -0.2670    0.9200   -4.8240 ha        1 490      0.045000
     52 H22         5.3220    0.5640    0.8180 ha        1 490      0.004000
     53 H23         5.8320    1.0150    0.8240 ha        1 490      0.004000
     54 C14         0.8280    0.9550   -5.0380 c1        1 490      0.049000
     55 C31        11.6960    1.3130    7.9030 c3        1 490     -0.056000
@<TRIPOS>BOND
     1    1   16 1   
     2    1   26 1   
     3    1   31 1   
     4    2   26 1   
     5    2   32 1   
     6    2   33 1   
     7    2   34 1   
     8    3   16 1   
     9    3   20 1   
    10    3   22 1   
    11    3   45 1   
    12    4   21 1   
    13    4   28 1   
    14    4   29 1   
    15    5    6 1   
    16    5   36 1   
    17    6   15 1   
    18    7   12 1   
    19    7   18 1   
    20    8   11 1   
    21    8   15 1   
    22    8   17 1   
    23    9   11 1   
    24    9   41 1   
    25   10   13 1   
    26   10   17 1   
    27   10   27 1   
    28   11   38 1   
    29   11   39 1   
    30   12   15 1   
    31   12   40 1   
    32   14   24 1   
    33   14   27 1   
    34   16   19 1   
    35   17   24 1   
    36   18   30 1   
    37   18   35 1   
    38   18   37 1   
    39   19   23 1   
    40   19   25 1   
    41   20   21 1   
    42   20   43 1   
    43   21   44 1   
    44   22   28 1   
    45   23   30 1   
    46   24   42 1   
    47   25   26 1   
    48   27   55 1   
    49   28   54 1   
    50   46   55 1   
    51   47   55 1   
    52   48   55 1   
    53   49   50 1   
    54   51   54 1   
    55   52   53 1   
@<TRIPOS>SUBSTRUCTURE
     1 490         1 TEMP              0 ****  ****    0 ROOT
