@<TRIPOS>MOLECULE
491
   42    42     1     0     0
SMALL
bcc


@<TRIPOS>ATOM
      1 C01         0.2190    0.0700    0.1400 c3        1 491     -0.115100
      2 C02         1.7300    0.0900    0.0220 c3        1 491      0.011100
      3 C03         2.2370   -1.1840   -0.7220 c         1 491      0.931600
      4 O04         3.1110   -1.0020   -1.6170 o         1 491     -0.839800
      5 O05         1.7160   -2.2970   -0.4480 o         1 491     -0.839800
      6 O06         2.3330    0.1050    1.3210 os        1 491     -0.404600
      7 C07         2.3260    1.3840    1.9450 c3        1 491      0.078100
      8 C08         3.7540    1.9860    2.0260 c3        1 491      0.054700
      9 C09         3.6210    3.3690    2.7470 c3        1 491      0.375900
     10 O10         3.0920    3.1540    4.0560 os        1 491     -0.460600
     11 C11         1.7980    2.5520    4.0890 c3        1 491      0.112100
     12 C12         1.8310    1.1850    3.3890 c3        1 491      0.117100
     13 O13         0.5200    0.6420    3.4190 oh        1 491     -0.628800
     14 C14         1.4520    2.3990    5.5700 c3        1 491      0.141400
     15 O15         1.3430    3.6480    6.2280 oh        1 491     -0.630800
     16 O16         2.7330    4.2100    2.1110 os        1 491     -0.593200
     17 P17         3.2980    5.6250    1.4550 p5        1 491      1.437800
     18 O18         2.1360    6.5130    1.2540 o         1 491     -0.836000
     19 O19         3.5730    5.0070   -0.0330 oh        1 491     -0.780400
     20 O20         4.5650    5.9670    2.1280 o         1 491     -0.836000
     21 N21         4.4040    2.0940    0.7510 ns        1 491     -0.533900
     22 C22         5.4360    1.2440    0.3860 c         1 491      0.681100
     23 O23         6.1700    0.6980    1.2390 o         1 491     -0.655100
     24 C24         5.6540    1.0230   -1.0900 c3        1 491     -0.198100
     25 H1         -0.1490    0.9140    0.7730 hc        1 491      0.028367
     26 H2         -0.1030   -0.8980    0.5960 hc        1 491      0.028367
     27 H3         -0.2340    0.1520   -0.8760 hc        1 491      0.028367
     28 H4          2.0620    0.9950   -0.5570 h1        1 491      0.027700
     29 H6          1.6470    2.1060    1.4140 h1        1 491      0.074700
     30 H7          4.3870    1.3270    2.6910 h1        1 491      0.089700
     31 H8          4.6230    3.8630    2.9210 h2        1 491      0.111700
     32 H9          1.0610    3.2280    3.5760 h1        1 491      0.083700
     33 H10         2.5220    0.4810    3.9330 h1        1 491      0.044700
     34 H11         0.4920   -0.0270    2.7160 ho        1 491      0.428000
     35 H12         0.4480    1.9100    5.6700 h1        1 491      0.040700
     36 H13         2.2340    1.7810    6.0870 h1        1 491      0.040700
     37 H14         2.0360    4.2180    5.8660 ho        1 491      0.422000
     38 H17         3.8730    2.5240    0.0270 hn        1 491      0.320500
     39 H18         5.5830    1.9730   -1.6690 hc        1 491      0.073033
     40 H19         6.6600    0.5690   -1.2480 hc        1 491      0.073033
     41 H20         4.8620    0.3050   -1.4500 hc        1 491      0.073033
     42 H212        2.8040    5.0720   -0.5880 ho        1 491      0.425000
@<TRIPOS>BOND
     1    1    2 1   
     2    1   25 1   
     3    1   26 1   
     4    1   27 1   
     5    2    3 1   
     6    2    6 1   
     7    2   28 1   
     8    3    4 1   
     9    3    5 1   
    10    6    7 1   
    11    7    8 1   
    12    7   12 1   
    13    7   29 1   
    14    8    9 1   
    15    8   21 1   
    16    8   30 1   
    17    9   10 1   
    18    9   16 1   
    19    9   31 1   
    20   10   11 1   
    21   11   12 1   
    22   11   14 1   
    23   11   32 1   
    24   12   13 1   
    25   12   33 1   
    26   13   34 1   
    27   14   15 1   
    28   14   35 1   
    29   14   36 1   
    30   15   37 1   
    31   16   17 1   
    32   17   18 1   
    33   17   19 1   
    34   17   20 1   
    35   19   42 1   
    36   21   22 1   
    37   21   38 1   
    38   22   23 2   
    39   22   24 1   
    40   24   39 1   
    41   24   40 1   
    42   24   41 1   
@<TRIPOS>SUBSTRUCTURE
     1 491         1 TEMP              0 ****  ****    0 ROOT
