@<TRIPOS>MOLECULE
491
   42    42     1     0     0
SMALL
bcc


@<TRIPOS>ATOM
      1 C01         0.2100    0.0900    0.1320 c3        1 491     -0.115100
      2 C02         1.7200    0.1070    0.0090 c3        1 491      0.011100
      3 C03         2.2230   -1.1610   -0.7480 c         1 491      0.931600
      4 O04         3.0940   -0.9730   -1.6440 o         1 491     -0.839800
      5 O05         1.7000   -2.2760   -0.4820 o         1 491     -0.839800
      6 O06         2.3280    0.1090    1.3060 os        1 491     -0.404600
      7 C07         2.3260    1.3830    1.9420 c3        1 491      0.078100
      8 C08         3.7550    1.9810    2.0230 c3        1 491      0.054700
      9 C09         3.6270    3.3580    2.7580 c3        1 491      0.375900
     10 O10         3.1030    3.1310    4.0660 os        1 491     -0.460600
     11 C11         1.8070    2.5320    4.0980 c3        1 491      0.112100
     12 C12         1.8350    1.1710    3.3860 c3        1 491      0.117100
     13 O13         0.5220    0.6310    3.4140 oh        1 491     -0.628800
     14 C14         1.4650    2.3670    5.5780 c3        1 491      0.141400
     15 O15         1.3610    3.6100    6.2480 oh        1 491     -0.630800
     16 O16         2.7390    4.2050    2.1320 os        1 491     -0.593200
     17 P17         3.3050    5.6260    1.4870 p5        1 491      1.437800
     18 O18         2.1450    6.5180    1.2980 o         1 491     -0.836000
     19 O19         3.5740    5.0200   -0.0070 oh        1 491     -0.780400
     20 O20         4.5750    5.9590    2.1590 o         1 491     -0.836000
     21 N21         4.4020    2.0990    0.7470 n         1 491     -0.533900
     22 C22         5.4300    1.2510    0.3710 c         1 491      0.681100
     23 O23         6.1660    0.6950    1.2170 o         1 491     -0.655100
     24 C24         5.6430    1.0420   -1.1070 c3        1 491     -0.198100
     25 H1         -0.1540    0.9280    0.7730 hc        1 491      0.028367
     26 H2         -0.1130   -0.8820    0.5800 hc        1 491      0.028367
     27 H3         -0.2460    0.1810   -0.8820 hc        1 491      0.028367
     28 H4          2.0530    1.0170   -0.5630 h1        1 491      0.027700
     29 H6          1.6460    2.1100    1.4190 h1        1 491      0.074700
     30 H7          4.3890    1.3140    2.6800 h1        1 491      0.089700
     31 H8          4.6310    3.8470    2.9330 h2        1 491      0.111700
     32 H9          1.0700    3.2150    3.5930 h1        1 491      0.083700
     33 H10         2.5260    0.4620    3.9210 h1        1 491      0.044700
     34 H11         0.4910   -0.0310    2.7060 ho        1 491      0.428000
     35 H12         0.4600    1.8790    5.6770 h1        1 491      0.040700
     36 H13         2.2480    1.7420    6.0870 h1        1 491      0.040700
     37 H14         2.0540    4.1810    5.8890 ho        1 491      0.422000
     38 H17         2.8040    5.0920   -0.5590 ho        1 491      0.425000
     39 H18         6.6480    0.5880   -1.2720 hc        1 491      0.073033
     40 H19         4.8480    0.3290   -1.4700 hc        1 491      0.073033
     41 H20         5.5720    1.9970   -1.6780 hc        1 491      0.073033
     42 H212        3.8680    2.5370    0.0290 hn        1 491      0.320500
@<TRIPOS>BOND
     1    1    2 1   
     2    1   25 1   
     3    1   26 1   
     4    1   27 1   
     5    2    3 1   
     6    2    6 1   
     7    2   28 1   
     8    3    4 1   
     9    3    5 1   
    10    6    7 1   
    11    7    8 1   
    12    7   12 1   
    13    7   29 1   
    14    8    9 1   
    15    8   21 1   
    16    8   30 1   
    17    9   10 1   
    18    9   16 1   
    19    9   31 1   
    20   10   11 1   
    21   11   12 1   
    22   11   14 1   
    23   11   32 1   
    24   12   13 1   
    25   12   33 1   
    26   13   34 1   
    27   14   15 1   
    28   14   35 1   
    29   14   36 1   
    30   15   37 1   
    31   16   17 1   
    32   17   18 1   
    33   17   19 1   
    34   17   20 1   
    35   19   38 1   
    36   21   22 1   
    37   21   42 1   
    38   22   23 2   
    39   22   24 1   
    40   24   39 1   
    41   24   40 1   
    42   24   41 1   
@<TRIPOS>SUBSTRUCTURE
     1 491         1 TEMP              0 ****  ****    0 ROOT
