@<TRIPOS>MOLECULE
492
   22    23     1     0     0
SMALL
bcc


@<TRIPOS>ATOM
      1 N18         0.0360   -0.0450   -0.0160 nz        1 492     -0.851600
      2 C17         1.5320    0.1330    0.1070 c3        1 492      0.234100
      3 C8          1.9540    0.0440    1.5030 cc        1 492     -0.323400
      4 S7          2.3720    1.3560    2.4540 ss        1 492      0.125200
      5 C6          2.7780    0.4220    3.7820 cc        1 492      0.071900
      6 C10         2.6090   -0.9390    3.5060 cd        1 492     -0.192000
      7 C9          2.1430   -1.1560    2.1930 cd        1 492     -0.075000
      8 C1          3.2370    0.9800    5.0040 cc        1 492     -0.132100
      9 S2          3.7530    0.0560    6.3120 ss        1 492      0.127200
     10 C3          4.0990    1.3680    7.2550 cc        1 492     -0.152100
     11 C4          3.8350    2.5630    6.6060 cd        1 492     -0.151000
     12 C5          3.3350    2.3420    5.2970 cd        1 492     -0.119000
     13 HN18       -0.2370   -0.9360    0.4120 hn        1 492      0.454133
     14 HN1A       -0.2450   -0.0400   -0.9990 hn        1 492      0.454133
     15 H17         2.0050   -0.6840   -0.5140 hx        1 492      0.109200
     16 H17A        1.7840    1.1340   -0.3490 hx        1 492      0.109200
     17 H10         2.8180   -1.7440    4.2180 ha        1 492      0.180000
     18 H9          1.9700   -2.1520    1.7750 ha        1 492      0.158000
     19 H3          4.4910    1.2870    8.2710 h4        1 492      0.192000
     20 H4          3.9890    3.5580    7.0340 ha        1 492      0.173000
     21 H5          3.0640    3.1500    4.6120 ha        1 492      0.155000
     22 H183       -0.4490    0.7080    0.4790 hn        1 492      0.454133
@<TRIPOS>BOND
     1    1    2 1   
     2    1   13 1   
     3    1   14 1   
     4    1   22 1   
     5    2    3 1   
     6    2   15 1   
     7    2   16 1   
     8    3    4 1   
     9    3    7 2   
    10    4    5 1   
    11    5    6 2   
    12    5    8 1   
    13    6    7 1   
    14    6   17 1   
    15    7   18 1   
    16    8    9 1   
    17    8   12 2   
    18    9   10 1   
    19   10   11 2   
    20   10   19 1   
    21   11   12 1   
    22   11   20 1   
    23   12   21 1   
@<TRIPOS>SUBSTRUCTURE
     1 492         1 TEMP              0 ****  ****    0 ROOT
