@<TRIPOS>MOLECULE
492
   21    17     1     0     0
SMALL
bcc


@<TRIPOS>ATOM
      1 N18        -1.1680    1.0160   -3.6960 n3        1 492     -0.329000
      2 C17        -0.2100   -0.0130   -3.4600 c3        1 492     -0.016000
      3 C8          0.2650    0.0590   -2.0260 c2        1 492     -0.423000
      4 S7         -0.5800   -0.2730   -0.7670 ss        1 492      0.565000
      5 C6          0.3510   -0.1470    0.4680 c2        1 492     -0.302000
      6 C10         1.6690    0.2350   -0.0030 c1        1 492     -0.138000
      7 C9          1.6140    0.3660   -1.5890 c1        1 492     -0.158000
      8 C1          0.0040   -0.4250    1.7810 c2        1 492     -0.306000
      9 S2         -0.1400   -1.8380    2.4060 ss        1 492      0.554000
     10 C3         -0.6260   -1.6560    3.8690 c1        1 492     -0.435000
     11 C4         -0.7680   -0.2340    4.1180 c1        1 492     -0.155000
     12 C5         -0.3670    0.5490    2.7900 c1        1 492     -0.140000
     13 HN18       -1.8050    0.9970   -3.0390 hn        1 492      0.144500
     14 HN1A       -0.7480    1.8310   -3.6910 hn        1 492      0.144500
     15 H17         0.5530    0.1050   -4.0630 h1        1 492      0.101000
     16 H17A       -0.6230   -0.8870   -3.6240 h1        1 492      0.101000
     17 H10         2.4540    0.3850    0.5560 DU        1 492      0.158600
     18 H9          2.3610    0.6100   -2.1680 DU        1 492      0.158600
     19 H3         -0.8050   -2.3710    4.5080 DU        1 492      0.158600
     20 H4         -1.0590    0.1740    4.9550 DU        1 492      0.158600
     21 H5         -0.3710    1.5180    2.6750 DU        1 492      0.158600
@<TRIPOS>BOND
     1    1    2 1   
     2    1   13 1   
     3    1   14 1   
     4    2    3 1   
     5    2   15 1   
     6    2   16 1   
     7    3    4 1   
     8    3    7 1   
     9    4    5 1   
    10    5    6 1   
    11    5    8 1   
    12    6    7 1   
    13    8    9 1   
    14    8   12 1   
    15    9   10 1   
    16   10   11 1   
    17   11   12 1   
@<TRIPOS>SUBSTRUCTURE
     1 492         1 TEMP              0 ****  ****    0 ROOT
