@<TRIPOS>MOLECULE
492
   22    23     1     0     0
SMALL
bcc


@<TRIPOS>ATOM
      1 N18         0.0390   -0.0500   -0.0170 n4        1 492     -0.851600
      2 C17         1.5340    0.1270    0.1070 c3        1 492      0.234100
      3 C8          1.9540    0.0410    1.5040 cc        1 492     -0.323400
      4 S7          2.3720    1.3540    2.4530 ss        1 492      0.125200
      5 C6          2.7760    0.4240    3.7830 cc        1 492      0.071900
      6 C10         2.6060   -0.9390    3.5100 cd        1 492     -0.192000
      7 C9          2.1410   -1.1580    2.1970 cd        1 492     -0.075000
      8 C1          3.2350    0.9830    5.0040 cc        1 492     -0.132100
      9 S2          3.7370    0.0610    6.3190 ss        1 492      0.127200
     10 C3          4.0890    1.3760    7.2570 cc        1 492     -0.152100
     11 C4          3.8380    2.5700    6.6010 cd        1 492     -0.151000
     12 C5          3.3420    2.3460    5.2910 cd        1 492     -0.119000
     13 HN18       -0.4470    0.7050    0.4750 hn        1 492      0.454133
     14 HN1A       -0.2410   -0.0480   -1.0000 hn        1 492      0.454133
     15 H17         1.7880    1.1270   -0.3500 hx        1 492      0.109200
     16 H17A        2.0080   -0.6930   -0.5110 hx        1 492      0.109200
     17 H10         2.8140   -1.7420    4.2240 ha        1 492      0.180000
     18 H9          1.9680   -2.1550    1.7810 ha        1 492      0.158000
     19 H3          4.4760    1.2960    8.2750 h4        1 492      0.192000
     20 H4          3.9980    3.5650    7.0250 ha        1 492      0.173000
     21 H5          3.0810    3.1520    4.6010 ha        1 492      0.155000
     22 H183       -0.2350   -0.9390    0.4130 hn        1 492      0.454133
@<TRIPOS>BOND
     1    1    2 1   
     2    1   13 1   
     3    1   14 1   
     4    1   22 1   
     5    2    3 1   
     6    2   15 1   
     7    2   16 1   
     8    3    4 1   
     9    3    7 2   
    10    4    5 1   
    11    5    6 2   
    12    5    8 1   
    13    6    7 1   
    14    6   17 1   
    15    7   18 1   
    16    8    9 1   
    17    8   12 2   
    18    9   10 1   
    19   10   11 2   
    20   10   19 1   
    21   11   12 1   
    22   11   20 1   
    23   12   21 1   
@<TRIPOS>SUBSTRUCTURE
     1 492         1 TEMP              0 ****  ****    0 ROOT
