@<TRIPOS>MOLECULE
492
   21    22     1     0     0
SMALL
bcc


@<TRIPOS>ATOM
      1 N18        -4.2840   -0.7750   -0.8980 n3        1 492     -0.922800
      2 C17        -3.8870    0.1190    0.1670 c3        1 492      0.234100
      3 C8         -2.4260    0.3830    0.1960 cc        1 492     -0.136400
      4 S7         -1.2610   -0.7410   -0.2170 ss        1 492      0.104200
      5 C6          0.0220    0.2880    0.1280 cc        1 492     -0.054100
      6 C10        -0.4360    1.5240    0.5680 cd        1 492     -0.158000
      7 C9         -1.8570    1.5780    0.6030 cd        1 492     -0.157000
      8 C1          1.3840   -0.0980   -0.0320 cc        1 492     -0.028100
      9 S2          2.6230    1.0180   -0.2950 ss        1 492      0.033200
     10 C3          3.8110   -0.1460   -0.3740 cc        1 492     -0.176100
     11 C4          3.2990   -1.4150   -0.2060 cd        1 492     -0.150000
     12 C5          1.8870   -1.3910   -0.0060 cd        1 492     -0.160000
     13 HN18       -5.2690   -0.9420   -0.8600 hn        1 492      0.355300
     14 HN1A       -4.0460   -0.3990   -1.7940 hn        1 492      0.355300
     15 H17        -4.4220    1.1160    0.1210 h1        1 492      0.038700
     16 H17A       -4.1840   -0.3660    1.1450 h1        1 492      0.038700
     17 H10         0.2040    2.3600    0.8600 ha        1 492      0.153000
     18 H9         -2.4160    2.4610    0.9190 ha        1 492      0.151000
     19 H3          4.8600    0.0930   -0.5380 h4        1 492      0.171000
     20 H4          3.8830   -2.3380   -0.2180 ha        1 492      0.153000
     21 H5          1.2880   -2.2900    0.1550 ha        1 492      0.156000
@<TRIPOS>BOND
     1    1    2 1   
     2    1   13 1   
     3    1   14 1   
     4    2    3 1   
     5    2   15 1   
     6    2   16 1   
     7    3    4 1   
     8    3    7 2   
     9    4    5 1   
    10    5    6 2   
    11    5    8 1   
    12    6    7 1   
    13    6   17 1   
    14    7   18 1   
    15    8    9 1   
    16    8   12 2   
    17    9   10 1   
    18   10   11 2   
    19   10   19 1   
    20   11   12 1   
    21   11   20 1   
    22   12   21 1   
@<TRIPOS>SUBSTRUCTURE
     1 492         1 TEMP              0 ****  ****    0 ROOT
