@<TRIPOS>MOLECULE
493
   78    72     1     0     0
SMALL
bcc


@<TRIPOS>ATOM
      1 C1          1.2250    2.0160    4.2130 c1        1 493     -0.143000
      2 C2          1.2600    1.0000    5.2100 c1        1 493     -0.220000
      3 C3          1.3430   -0.3470    4.8340 c1        1 493      0.135000
      4 C4          1.3910   -0.6950    3.4800 c1        1 493     -0.574000
      5 C5          1.3570    0.3090    2.4960 c1        1 493     -0.106000
      6 C6          1.2730    1.6740    2.8770 c1        1 493     -0.183000
      7 C7          0.3010   -1.4190    6.6370 c3        1 493     -0.072000
      8 C8          0.3600   -2.7310    7.4740 c2        1 493      0.311000
      9 C9          0.7090    3.0500    2.3720 c3        1 493     -0.084000
     10 C10         1.0760    3.2440    0.8940 c3        1 493     -0.009000
     11 C11        -0.1900    3.5700    0.0860 c2        1 493      0.269000
     12 N12        -1.0410    2.4720   -0.4380 n         1 493     -0.336000
     13 N13         2.0010    4.3090    0.7710 n         1 493     -0.319000
     14 C14         3.0400    4.2300   -0.1660 c2        1 493      0.290000
     15 C15         4.1800    5.2620   -0.1360 c3        1 493     -0.248000
     16 O16         3.0280    3.3440   -1.0330 o         1 493     -0.362000
     17 O17        -0.5400    4.7340   -0.0550 o         1 493     -0.469000
     18 C18        -2.4090    2.8100   -1.1820 c3        1 493      0.005000
     19 C19        -2.1760    2.8500   -2.7110 c3        1 493     -0.223000
     20 C20        -3.6320    2.4570   -3.5620 c3        1 493     -0.145000
     21 C21        -4.0970    0.7400   -3.3100 c3        1 493     -0.202000
     22 C22        -3.6110    0.2340   -1.9650 c3        1 493     -0.044000
     23 N23        -2.7360    0.8790   -1.5870 n         1 493     -0.299000
     24 C24        -3.1730    1.9480   -1.0110 c2        1 493      0.304000
     25 C25        -1.4020    0.4470   -1.5400 c3        1 493     -0.093000
     26 C26        -1.1380   -0.5430   -2.6970 c2        1 493     -0.057000
     27 O27        -4.3550    2.1710   -0.8900 o         1 493     -0.355000
     28 O28         1.4240   -1.3430    5.8140 os        1 493     -0.198000
     29 C49        -1.8570   -1.7040   -2.4820 c2        1 493     -0.108000
     30 C50        -1.2270   -2.9430   -2.5930 c1        1 493     -0.104000
     31 C51         0.1150   -3.0110   -2.9180 c1        1 493     -0.039000
     32 C52         0.8360   -1.8420   -3.1340 c1        1 493     -0.141000
     33 C53         0.2100   -0.6100   -3.0240 c1        1 493     -0.152000
     34 C58         0.7890   -4.2630   -2.8860 c1        1 493     -0.039000
     35 C59         1.0160   -4.9650   -4.0820 c1        1 493     -0.146500
     36 C60         1.5080   -6.2560   -4.0440 c1        1 493     -0.146500
     37 C61         1.7820   -6.8730   -2.8010 c1        1 493     -0.146500
     38 C62         1.5610   -6.1890   -1.6320 c1        1 493     -0.146500
     39 C63         1.0580   -4.8670   -1.6700 c1        1 493     -0.141000
     40 P71         1.6640   -2.3900    3.0060 p5        1 493      1.663500
     41 O72         1.9250   -2.4600    1.5180 o         1 493     -0.931500
     42 O73         0.4400   -3.2100    3.3430 o         1 493     -0.931500
     43 O74         2.8420   -2.9280    3.7430 o         1 493     -0.931500
     44 O79        -0.6430   -3.4950    7.5190 o         1 493     -0.605000
     45 O80         1.3950   -2.9980    8.1690 o         1 493     -0.605000
     46 H1          1.1700    2.9320    4.4680 ha        1 493      0.078000
     47 H2          1.2300    1.2390    6.1430 ha        1 493      0.175000
     48 H5          1.4760    0.0690    1.5440 ha        1 493      0.142000
     49 H71        -0.5050   -1.4190    6.0880 h1        1 493      0.069000
     50 H72A        0.2850   -0.6510    7.2380 h1        1 493      0.069000
     51 H91         1.1090    3.7950    2.9160 hc        1 493      0.069000
     52 H92        -0.2850    3.0600    2.4730 hc        1 493      0.069000
     53 H10         1.4820    2.4160    0.5460 h1        1 493      0.175000
     54 H12        -0.8080    1.6010   -0.2850 hn        1 493      0.328000
     55 H13         1.8700    5.0820    1.2410 hn        1 493      0.200000
     56 H151        5.0300    4.8020   -0.1200 hc        1 493      0.087667
     57 H152        4.1300    5.8300   -0.9400 hc        1 493      0.087667
     58 H153        4.0940    5.8290    0.6770 hc        1 493      0.087667
     59 H18        -2.6380    3.6590   -0.7720 h1        1 493      0.109000
     60 H191       -1.4850    2.2080   -2.9460 hc        1 493      0.149500
     61 H192       -1.8810    3.7550   -2.9720 hc        1 493      0.149500
     62 H201       -3.4970    2.6120   -4.5090 hc        1 493      0.056000
     63 H202       -4.3630    3.0410   -3.2400 hc        1 493      0.056000
     64 H211       -5.0860    0.6630   -3.3490 hc        1 493      0.094500
     65 H212       -3.6980    0.1840   -4.0310 hc        1 493      0.094500
     66 H221       -3.3160   -0.6760   -2.0570 h1        1 493      0.079000
     67 H222       -4.3510    0.2730   -1.3140 h1        1 493      0.079000
     68 H251       -0.8110    1.2130   -1.6280 h1        1 493      0.159000
     69 H252       -1.2350    0.0060   -0.6920 h1        1 493      0.159000
     70 H49        -2.8020   -1.6520   -2.1470 ha        1 493      0.289000
     71 H50        -1.7420   -3.7780   -2.4390 ha        1 493      0.150000
     72 H52         1.8200   -1.8900   -3.3730 ha        1 493      0.123500
     73 H53         0.7180    0.2220   -3.2080 ha        1 493      0.120000
     74 H59         0.8250   -4.5360   -4.9510 ha        1 493      0.112500
     75 H60         1.6650   -6.7420   -4.8770 ha        1 493      0.112500
     76 H61         2.0570   -7.8080   -2.7730 ha        1 493      0.112500
     77 H62         1.7520   -6.6180   -0.7690 ha        1 493      0.112500
     78 H63         0.9020   -4.3870   -0.8490 ha        1 493      0.123500
@<TRIPOS>BOND
     1    1    6 1   
     2    1   46 1   
     3    2    3 1   
     4    2   47 1   
     5    3   28 1   
     6    4    5 1   
     7    4   40 1   
     8    5   48 1   
     9    6    9 1   
    10    7    8 1   
    11    7   28 1   
    12    7   49 1   
    13    7   50 1   
    14    8   44 1   
    15    8   45 1   
    16    9   10 1   
    17    9   51 1   
    18    9   52 1   
    19   10   11 1   
    20   10   13 1   
    21   10   53 1   
    22   11   12 1   
    23   11   17 1   
    24   12   18 1   
    25   12   54 1   
    26   13   14 1   
    27   13   55 1   
    28   14   15 1   
    29   14   16 1   
    30   15   56 1   
    31   15   57 1   
    32   15   58 1   
    33   18   19 1   
    34   18   24 1   
    35   18   59 1   
    36   19   20 1   
    37   19   60 1   
    38   19   61 1   
    39   20   21 1   
    40   20   62 1   
    41   20   63 1   
    42   21   22 1   
    43   21   64 1   
    44   21   65 1   
    45   22   23 1   
    46   22   66 1   
    47   22   67 1   
    48   23   24 1   
    49   23   25 1   
    50   24   27 1   
    51   25   26 1   
    52   25   68 1   
    53   25   69 1   
    54   26   29 1   
    55   26   33 1   
    56   29   30 1   
    57   29   70 1   
    58   30   71 1   
    59   31   32 1   
    60   32   72 1   
    61   33   73 1   
    62   34   39 1   
    63   35   36 1   
    64   35   74 1   
    65   36   75 1   
    66   37   38 1   
    67   37   76 1   
    68   38   77 1   
    69   39   78 1   
    70   40   41 1   
    71   40   42 1   
    72   40   43 1   
@<TRIPOS>SUBSTRUCTURE
     1 493         1 TEMP              0 ****  ****    0 ROOT
