@<TRIPOS>MOLECULE
493
   78    81     1     0     0
SMALL
bcc


@<TRIPOS>ATOM
      1 C1          0.0060   -1.0470   -1.2690 ca        1 493     -0.124000
      2 C2          1.1610   -0.4940   -0.7100 ca        1 493     -0.274000
      3 C3          1.1330    0.1290    0.5540 ca        1 493      0.195100
      4 C4         -0.0970    0.2480    1.2620 ca        1 493     -0.173500
      5 C5         -1.2320   -0.1400    0.5690 ca        1 493     -0.101000
      6 C6         -1.2110   -0.8880   -0.6220 ca        1 493     -0.197300
      7 C7          3.4610    0.5130    0.3410 c3        1 493      0.013400
      8 C8          4.6890    1.1760    1.0030 c         1 493      0.925600
      9 C9         -2.4530   -1.6170   -0.9940 c3        1 493      0.000900
     10 C10        -2.7490   -2.6510    0.1230 c3        1 493      0.027700
     11 C11        -4.1870   -2.4560    0.6820 c         1 493      0.630100
     12 N12        -4.3310   -1.5250    1.6810 n         1 493     -0.550900
     13 N13        -2.4980   -4.0320   -0.2180 n         1 493     -0.518900
     14 C14        -2.8930   -4.7040   -1.3520 c         1 493      0.665100
     15 C15        -2.7490   -6.2190   -1.3040 c3        1 493     -0.184100
     16 O16        -3.2860   -4.1700   -2.4100 o         1 493     -0.624100
     17 O17        -5.1510   -3.1410    0.2570 o         1 493     -0.691100
     18 C18        -5.5910   -1.3440    2.3470 c3        1 493      0.056700
     19 C19        -5.6150   -1.7790    3.8210 c3        1 493     -0.075400
     20 C20        -4.5210   -1.2210    4.6980 c3        1 493     -0.114400
     21 C21        -4.6640    0.2600    4.9560 c3        1 493     -0.072400
     22 C22        -4.4100    1.0790    3.6930 c3        1 493      0.027000
     23 N23        -5.5490    1.1770    2.8010 n         1 493     -0.434800
     24 C24        -6.1580    0.0920    2.2160 c         1 493      0.693500
     25 C25        -6.0990    2.4960    2.5920 c3        1 493      0.145300
     26 C26        -5.3670    3.4040    1.6400 ca        1 493     -0.095300
     27 O27        -7.2420    0.2250    1.5910 o         1 493     -0.727500
     28 O28         2.2770    0.6460    1.1340 os        1 493     -0.268900
     29 C49        -6.1230    4.3900    0.9860 ca        1 493     -0.123500
     30 C50        -5.5140    5.3050    0.1370 ca        1 493     -0.121500
     31 C51        -4.1290    5.2490   -0.0890 cp        1 493     -0.088000
     32 C52        -3.3820    4.2550    0.5550 ca        1 493     -0.121500
     33 C53        -3.9890    3.3420    1.4220 ca        1 493     -0.123500
     34 C58        -3.4860    6.2170   -0.9730 cp        1 493      0.010000
     35 C59        -2.1720    6.6490   -0.7200 ca        1 493     -0.126500
     36 C60        -1.5600    7.5780   -1.5570 ca        1 493     -0.139000
     37 C61        -2.2450    8.0950   -2.6570 ca        1 493     -0.160000
     38 C62        -3.5460    7.6680   -2.9210 ca        1 493     -0.139000
     39 C63        -4.1610    6.7360   -2.0890 ca        1 493     -0.126500
     40 P71        -0.8820    0.5550    3.0200 p5        1 493      1.268000
     41 O72        -1.6980    1.8090    2.8140 o         1 493     -0.928500
     42 O73         0.1410    0.5410    4.0980 o         1 493     -0.928500
     43 O74        -1.8630   -0.6210    3.0610 o         1 493     -0.928500
     44 O79         5.5600    0.4130    1.5160 o         1 493     -0.858300
     45 O80         4.8560    2.4220    0.8740 o         1 493     -0.858300
     46 H1          0.0730   -1.6150   -2.2070 ha        1 493      0.079000
     47 H2          2.0970   -0.5990   -1.2740 ha        1 493      0.102000
     48 H5         -2.2190    0.0950    1.0090 ha        1 493      0.141000
     49 H71         3.3000    1.0090   -0.6530 h1        1 493      0.003700
     50 H72A        3.6790   -0.5780    0.1910 h1        1 493      0.003700
     51 H91        -2.3510   -2.1160   -1.9900 hc        1 493      0.050700
     52 H92        -3.3180   -0.9060   -1.0580 hc        1 493      0.050700
     53 H10        -2.0280   -2.4280    0.9860 h1        1 493      0.141700
     54 H12        -3.4980   -1.1110    2.1100 hn        1 493      0.417500
     55 H13        -2.2950   -4.6010    0.5730 hn        1 493      0.293500
     56 H151       -1.7010   -6.5100   -1.0550 hc        1 493      0.045033
     57 H152       -3.4400   -6.6440   -0.5380 hc        1 493      0.045033
     58 H153       -3.0140   -6.6360   -2.3040 hc        1 493      0.045033
     59 H18        -6.3640   -1.9850    1.8090 h1        1 493      0.084700
     60 H191       -6.6190   -1.4940    4.2350 hc        1 493      0.018200
     61 H192       -5.5500   -2.9010    3.8420 hc        1 493      0.018200
     62 H201       -3.4960   -1.3980    4.2430 hc        1 493      0.078200
     63 H202       -4.5510   -1.7660    5.6800 hc        1 493      0.078200
     64 H211       -5.6670    0.4870    5.4040 hc        1 493      0.020200
     65 H212       -3.8800    0.5660    5.7000 hc        1 493      0.020200
     66 H221       -3.4770    0.6680    3.1560 h1        1 493      0.129200
     67 H222       -4.1140    2.1260    3.9970 h1        1 493      0.129200
     68 H251       -6.1310    3.0260    3.5910 h1        1 493      0.041700
     69 H252       -7.1640    2.3880    2.2280 h1        1 493      0.041700
     70 H49        -7.2100    4.4380    1.1440 ha        1 493      0.188500
     71 H50        -6.1200    6.0800   -0.3530 ha        1 493      0.131500
     72 H52        -2.2950    4.1660    0.3900 ha        1 493      0.131500
     73 H53        -3.3240    2.5920    1.9340 ha        1 493      0.188500
     74 H59        -1.6220    6.2380    0.1430 ha        1 493      0.144500
     75 H60        -0.5280    7.8970   -1.3520 ha        1 493      0.115000
     76 H61        -1.7580    8.8250   -3.3170 ha        1 493      0.106000
     77 H62        -4.0850    8.0610   -3.7940 ha        1 493      0.115000
     78 H63        -5.1790    6.3880   -2.3160 ha        1 493      0.144500
@<TRIPOS>BOND
     1    1    2 ar  
     2    1    6 ar  
     3    1   46 1   
     4    2    3 ar  
     5    2   47 1   
     6    3    4 ar  
     7    3   28 1   
     8    4    5 ar  
     9    4   40 1   
    10    5    6 ar  
    11    5   48 1   
    12    6    9 1   
    13    7    8 1   
    14    7   28 1   
    15    7   49 1   
    16    7   50 1   
    17    8   44 1   
    18    8   45 1   
    19    9   10 1   
    20    9   51 1   
    21    9   52 1   
    22   10   11 1   
    23   10   13 1   
    24   10   53 1   
    25   11   12 1   
    26   11   17 2   
    27   12   18 1   
    28   12   54 1   
    29   13   14 1   
    30   13   55 1   
    31   14   15 1   
    32   14   16 2   
    33   15   56 1   
    34   15   57 1   
    35   15   58 1   
    36   18   19 1   
    37   18   24 1   
    38   18   59 1   
    39   19   20 1   
    40   19   60 1   
    41   19   61 1   
    42   20   21 1   
    43   20   62 1   
    44   20   63 1   
    45   21   22 1   
    46   21   64 1   
    47   21   65 1   
    48   22   23 1   
    49   22   66 1   
    50   22   67 1   
    51   23   24 1   
    52   23   25 1   
    53   24   27 2   
    54   25   26 1   
    55   25   68 1   
    56   25   69 1   
    57   26   29 ar  
    58   26   33 ar  
    59   29   30 ar  
    60   29   70 1   
    61   30   31 ar  
    62   30   71 1   
    63   31   32 ar  
    64   31   34 1   
    65   32   33 ar  
    66   32   72 1   
    67   33   73 1   
    68   34   35 ar  
    69   34   39 ar  
    70   35   36 ar  
    71   35   74 1   
    72   36   37 ar  
    73   36   75 1   
    74   37   38 ar  
    75   37   76 1   
    76   38   39 ar  
    77   38   77 1   
    78   39   78 1   
    79   40   41 1   
    80   40   42 1   
    81   40   43 1   
@<TRIPOS>SUBSTRUCTURE
     1 493         1 TEMP              0 ****  ****    0 ROOT
