@<TRIPOS>MOLECULE
493
   78    81     1     0     0
SMALL
bcc


@<TRIPOS>ATOM
      1 C1         -0.7220   -1.1650   -2.7070 ca        1 493     -0.131000
      2 C2         -0.1650   -0.6650   -3.8880 ca        1 493     -0.273000
      3 C3          1.0750    0.0040   -3.8830 ca        1 493      0.190100
      4 C4          1.7630    0.2210   -2.6560 ca        1 493     -0.152500
      5 C5          1.0760   -0.1340   -1.5080 ca        1 493     -0.106000
      6 C6         -0.0950   -0.9130   -1.4950 ca        1 493     -0.198300
      7 C7          0.8790    0.2430   -6.2310 c3        1 493      0.014400
      8 C8          1.5320    0.8510   -7.4910 c         1 493      0.925600
      9 C9         -0.4820   -1.5560   -0.2100 c3        1 493      0.000900
     10 C10         0.7040   -2.4290    0.2750 c3        1 493      0.030700
     11 C11         1.1970   -1.9270    1.6630 c         1 493      0.619100
     12 N12         2.3500   -1.1900    1.6770 n         1 493     -0.557900
     13 N13         0.4740   -3.8550    0.3030 n         1 493     -0.524900
     14 C14        -0.6350   -4.5300    0.7530 c         1 493      0.665100
     15 C15        -0.4750   -6.0370    0.8980 c3        1 493     -0.184100
     16 O16        -1.7490   -4.0180    0.9900 o         1 493     -0.627100
     17 O17         0.5810   -2.2280    2.7170 o         1 493     -0.692100
     18 C18         2.9520   -0.7570    2.9050 c3        1 493      0.074700
     19 C19         4.3470   -0.1350    2.7440 c3        1 493     -0.061400
     20 C20         4.4660    0.9730    1.7290 c3        1 493     -0.126400
     21 C21         3.6470    2.2130    1.9900 c3        1 493     -0.081400
     22 C22         2.1420    1.9640    2.0070 c3        1 493      0.092000
     23 N23         1.6240    1.3910    3.2380 n         1 493     -0.463800
     24 C24         2.1040    0.2090    3.7660 c         1 493      0.689500
     25 C25         0.7000    2.1750    4.0190 c3        1 493      0.141300
     26 C26        -0.7610    1.8650    3.8170 ca        1 493     -0.068300
     27 O27         1.8830   -0.0880    4.9660 o         1 493     -0.714500
     28 O28         1.6530    0.4720   -5.0500 os        1 493     -0.269900
     29 C49        -1.6940    2.8940    3.9950 ca        1 493     -0.120500
     30 C50        -3.0570    2.6440    3.8730 ca        1 493     -0.117000
     31 C51        -3.5150    1.3570    3.5570 cp        1 493     -0.081000
     32 C52        -2.5790    0.3300    3.3710 ca        1 493     -0.117000
     33 C53        -1.2140    0.5780    3.5070 ca        1 493     -0.120500
     34 C58        -4.9440    1.0940    3.4090 cp        1 493      0.001000
     35 C59        -5.4060    0.2280    2.4040 ca        1 493     -0.123500
     36 C60        -6.7690   -0.0230    2.2640 ca        1 493     -0.138500
     37 C61        -7.6890    0.5830    3.1200 ca        1 493     -0.155000
     38 C62        -7.2390    1.4440    4.1200 ca        1 493     -0.138500
     39 C63        -5.8770    1.6990    4.2650 ca        1 493     -0.123500
     40 P71         3.5210    0.6320   -1.8160 p5        1 493      1.250000
     41 O72         3.2120    1.8420   -0.9760 o         1 493     -0.920167
     42 O73         4.6110    0.7210   -2.8220 o         1 493     -0.920167
     43 O74         3.6020   -0.5760   -0.8810 o         1 493     -0.920167
     44 O79         2.1100    0.0590   -8.2940 o         1 493     -0.860800
     45 O80         1.3330    2.0710   -7.7550 o         1 493     -0.860800
     46 H1         -1.6420   -1.7640   -2.7490 ha        1 493      0.075000
     47 H2         -0.7140   -0.8470   -4.8210 ha        1 493      0.099000
     48 H5          1.5030    0.1580   -0.5310 ha        1 493      0.137000
     49 H71         0.7650   -0.8630   -6.3850 h1        1 493      0.002200
     50 H72A       -0.1330    0.7150   -6.1090 h1        1 493      0.002200
     51 H91        -0.6940   -0.7790    0.5710 hc        1 493      0.045700
     52 H92        -1.4100   -2.1700   -0.3320 hc        1 493      0.045700
     53 H10         1.5610   -2.2840   -0.4720 h1        1 493      0.147700
     54 H12         2.8040   -0.9150    0.7870 hn        1 493      0.432500
     55 H13         1.3080   -4.3900    0.2180 hn        1 493      0.295500
     56 H151       -1.4570   -6.4740    1.1940 hc        1 493      0.045033
     57 H152       -0.1480   -6.4950   -0.0650 hc        1 493      0.045033
     58 H153        0.2780   -6.2690    1.6880 hc        1 493      0.045033
     59 H18         3.0570   -1.6710    3.5750 h1        1 493      0.048700
     60 H191        5.0530   -0.9550    2.4440 hc        1 493      0.022200
     61 H192        4.6590    0.2300    3.7590 hc        1 493      0.022200
     62 H201        4.1890    0.6000    0.6800 hc        1 493      0.097700
     63 H202        5.5480    1.2730    1.6810 hc        1 493      0.097700
     64 H211        3.8190    2.8920    1.1030 hc        1 493      0.046200
     65 H212        3.9800    2.7270    2.9290 hc        1 493      0.046200
     66 H221        1.8850    1.3130    1.1190 h1        1 493      0.081700
     67 H222        1.6200    2.9500    1.8390 h1        1 493      0.081700
     68 H251        0.8680    3.2690    3.7970 h1        1 493      0.048200
     69 H252        0.9140    2.0090    5.1190 h1        1 493      0.048200
     70 H49        -1.3470    3.9130    4.2210 ha        1 493      0.154500
     71 H50        -3.7780    3.4640    4.0020 ha        1 493      0.127000
     72 H52        -2.9160   -0.6870    3.1140 ha        1 493      0.127000
     73 H53        -0.4960   -0.2550    3.3610 ha        1 493      0.154500
     74 H59        -4.6820   -0.2470    1.7210 ha        1 493      0.144500
     75 H60        -7.1180   -0.7000    1.4710 ha        1 493      0.117000
     76 H61        -8.7630    0.3840    3.0050 ha        1 493      0.109000
     77 H62        -7.9590    1.9230    4.7970 ha        1 493      0.117000
     78 H63        -5.5250    2.3750    5.0570 ha        1 493      0.144500
@<TRIPOS>BOND
     1    1    2 ar  
     2    1    6 ar  
     3    1   46 1   
     4    2    3 ar  
     5    2   47 1   
     6    3    4 ar  
     7    3   28 1   
     8    4    5 ar  
     9    4   40 1   
    10    5    6 ar  
    11    5   48 1   
    12    6    9 1   
    13    7    8 1   
    14    7   28 1   
    15    7   49 1   
    16    7   50 1   
    17    8   44 1   
    18    8   45 1   
    19    9   10 1   
    20    9   51 1   
    21    9   52 1   
    22   10   11 1   
    23   10   13 1   
    24   10   53 1   
    25   11   12 1   
    26   11   17 2   
    27   12   18 1   
    28   12   54 1   
    29   13   14 1   
    30   13   55 1   
    31   14   15 1   
    32   14   16 2   
    33   15   56 1   
    34   15   57 1   
    35   15   58 1   
    36   18   19 1   
    37   18   24 1   
    38   18   59 1   
    39   19   20 1   
    40   19   60 1   
    41   19   61 1   
    42   20   21 1   
    43   20   62 1   
    44   20   63 1   
    45   21   22 1   
    46   21   64 1   
    47   21   65 1   
    48   22   23 1   
    49   22   66 1   
    50   22   67 1   
    51   23   24 1   
    52   23   25 1   
    53   24   27 2   
    54   25   26 1   
    55   25   68 1   
    56   25   69 1   
    57   26   29 ar  
    58   26   33 ar  
    59   29   30 ar  
    60   29   70 1   
    61   30   31 ar  
    62   30   71 1   
    63   31   32 ar  
    64   31   34 1   
    65   32   33 ar  
    66   32   72 1   
    67   33   73 1   
    68   34   35 ar  
    69   34   39 ar  
    70   35   36 ar  
    71   35   74 1   
    72   36   37 ar  
    73   36   75 1   
    74   37   38 ar  
    75   37   76 1   
    76   38   39 ar  
    77   38   77 1   
    78   39   78 1   
    79   40   41 1   
    80   40   42 1   
    81   40   43 1   
@<TRIPOS>SUBSTRUCTURE
     1 493         1 TEMP              0 ****  ****    0 ROOT
