@<TRIPOS>MOLECULE
494
   45    47     1     0     0
SMALL
bcc


@<TRIPOS>ATOM
      1 C00         0.0000    0.0000    0.0000 ca        1 494     -0.185000
      2 C01         1.3830    0.0000    0.0000 ca        1 494     -0.026600
      3 C02         2.0780    0.0000    1.1960 ca        1 494     -0.095000
      4 C03         1.3920    0.0010    2.3970 ca        1 494     -0.157000
      5 C04         0.0060    0.0010    2.4040 ca        1 494      0.116100
      6 C05        -0.6930    0.0010    1.2000 ca        1 494      0.126100
      7 Cl7         2.2500   -0.0010   -1.5040 cl        1 494     -0.026400
      8 O0A        -0.6690    0.0010    3.5840 os        1 494     -0.194200
      9 O0B        -2.0520    0.0060    1.2020 os        1 494     -0.262900
     10 C0C         0.0550    0.0080    4.7340 ca        1 494      0.111100
     11 C0D         0.4190    1.2150    5.3170 ca        1 494     -0.111000
     12 C0E         1.1570    1.2290    6.4890 ca        1 494     -0.029600
     13 C0F         1.5360    0.0430    7.0850 ca        1 494     -0.081000
     14 C0G         1.1740   -1.1760    6.5050 ca        1 494     -0.007800
     15 C0H         0.4250   -1.1880    5.3250 ca        1 494     -0.107000
     16 Cl0         1.6060    2.7440    7.2090 cl        1 494     -0.010400
     17 C0M         1.5770   -2.4430    7.1380 ce        1 494     -0.180200
     18 C0O        -2.7030    0.0120   -0.0700 c3        1 494      0.168400
     19 C0P        -4.2190    0.0170    0.1320 c3        1 494      0.047000
     20 N0S        -4.6210    1.2690    0.7780 n         1 494      0.047000
     21 C0V        -4.6600    1.3440    2.1200 c         1 494      0.574500
     22 N0W        -5.0250    2.4820    2.7390 ns        1 494     -0.129500
     23 C0X        -5.3600    3.5710    2.0170 c         1 494      0.610700
     24 C0Y        -5.3230    3.5060    0.6040 cc        1 494     -0.287200
     25 C0Z        -4.9470    2.3540    0.0100 cd        1 494     -0.092400
     26 O10        -4.3620    0.3710    2.7840 o         1 494     -0.670500
     27 O12        -5.6920    4.6020    2.5780 o         1 494     -0.657500
     28 C15         2.2950   -2.4290    8.2780 cf        1 494     -0.091700
     29 C17         2.6860   -3.6610    8.8940 ch        1 494      0.477500
     30 N19         2.9920   -4.6320    9.4000 n1        1 494     -0.375800
     31 H1         -0.5420    0.0000   -0.9380 ha        1 494      0.130000
     32 H2          3.1610    0.0000    1.1940 ha        1 494      0.118000
     33 H3          1.9380    0.0010    3.3330 ha        1 494      0.130000
     34 H4          0.1250    2.1500    4.8560 ha        1 494      0.129000
     35 H5          2.1130    0.0580    8.0020 ha        1 494      0.139000
     36 H6          0.1370   -2.1290    4.8720 ha        1 494      0.123000
     37 H7          1.6010   -3.3560    6.5550 ha        1 494      0.118000
     38 H8         -2.1600   -0.6260   -0.7570 h1        1 494      0.010200
     39 H9         -2.7270    1.0230   -0.4590 h1        1 494      0.010200
     40 H10        -4.5800   -1.0030    0.1820 h1        1 494      0.040200
     41 H11        -4.6930    0.5270   -0.6990 h1        1 494      0.040200
     42 H12        -5.0500    2.5260    3.7390 hn        1 494      0.207500
     43 H13        -5.5910    4.3770    0.0180 ha        1 494      0.150000
     44 H14        -4.9050    2.2750   -1.0700 h4        1 494      0.133000
     45 H15         2.5920   -3.3610    8.7440 ha        1 494      0.023000
@<TRIPOS>BOND
     1    1    2 ar  
     2    1    6 ar  
     3    1   31 1   
     4    2    3 ar  
     5    2    7 1   
     6    3    4 ar  
     7    3   32 1   
     8    4    5 ar  
     9    4   33 1   
    10    5    6 ar  
    11    5    8 1   
    12    6    9 1   
    13    8   10 1   
    14    9   18 1   
    15   10   11 ar  
    16   10   15 ar  
    17   11   12 ar  
    18   11   34 1   
    19   12   13 ar  
    20   12   16 1   
    21   13   14 ar  
    22   13   35 1   
    23   14   15 ar  
    24   14   17 1   
    25   15   36 1   
    26   17   28 2   
    27   17   37 1   
    28   18   19 1   
    29   18   38 1   
    30   18   39 1   
    31   19   20 1   
    32   19   40 1   
    33   19   41 1   
    34   20   21 1   
    35   20   25 1   
    36   21   22 1   
    37   21   26 2   
    38   22   23 1   
    39   22   42 1   
    40   23   24 1   
    41   23   27 2   
    42   24   25 2   
    43   24   43 1   
    44   25   44 1   
    45   28   29 1   
    46   28   45 1   
    47   29   30 3   
@<TRIPOS>SUBSTRUCTURE
     1 494         1 TEMP              0 ****  ****    0 ROOT
