@<TRIPOS>MOLECULE
494
   45    46     1     0     0
SMALL
bcc


@<TRIPOS>ATOM
      1 C00         0.0930   -0.3650   -0.0980 ca        1 494     -0.200000
      2 C01         1.4420   -0.2380   -0.4470 ca        1 494     -0.027000
      3 C02         2.3510    0.4090    0.3940 ca        1 494     -0.148000
      4 C03         1.9100    0.9400    1.6050 ca        1 494     -0.096000
      5 C04         0.5670    0.8270    1.9700 ca        1 494      0.010000
      6 C05        -0.3500    0.1660    1.1190 ca        1 494      0.090000
      7 CL7         1.9760   -0.8860   -1.9230 cl        1 494     -0.001000
      8 O0A         0.0910    1.4900    3.0970 os        1 494     -0.138000
      9 O0B        -1.6440    0.0790    1.5820 os        1 494     -0.184000
     10 C0C         0.2740    0.8460    4.3170 ca        1 494      0.094000
     11 C0D        -0.1780    1.5790    5.4280 ca        1 494     -0.139000
     12 C0E        -0.0340    1.0110    6.6930 ca        1 494     -0.025000
     13 C0F         0.5410   -0.2530    6.8610 ca        1 494     -0.157000
     14 C0G         0.9830   -0.9690    5.7410 ca        1 494      0.042000
     15 C0H         0.8500   -0.4180    4.4580 ca        1 494     -0.186000
     16 CL0        -0.5670    1.8710    8.0570 cl        1 494      0.001000
     17 C0M         1.5790   -2.2820    5.8980 c2        1 494     -0.414000
     18 C0O        -2.6200   -0.3520    0.6280 c3        1 494     -0.050000
     19 C0P        -3.9850   -0.2250    1.3190 c3        1 494     -0.025000
     20 N0S        -4.4620    1.1250    1.5040 n         1 494     -0.267000
     21 C0V        -4.5990    1.6430    2.8250 c2        1 494      0.404000
     22 N0W        -4.9340    2.9970    2.9770 n         1 494     -0.363000
     23 C0X        -5.1310    3.8670    1.8890 c2        1 494      0.353000
     24 C0Y        -4.9860    3.2720    0.5540 c2        1 494     -0.292000
     25 C0Z        -4.6510    1.9640    0.4160 c2        1 494      0.042000
     26 O10        -4.4600    0.9070    3.8240 o         1 494     -0.354000
     27 O12        -5.4110    5.0550    2.1110 o         1 494     -0.330000
     28 C15         1.7980   -2.9510    7.0100 c1        1 494      0.180000
     29 C17         2.5030   -4.8860    9.6150 c1        1 494     -0.200000
     30 N19         2.7800   -5.6030   10.4850 n1        1 494     -0.073000
     31 H1         -0.6020   -0.8810   -0.7750 ha        1 494      0.154000
     32 H2          3.4080    0.5050    0.1040 ha        1 494      0.158000
     33 H3          2.6110    1.4600    2.2760 ha        1 494      0.160000
     34 H4         -0.6360    2.5680    5.2840 ha        1 494      0.170000
     35 H5          0.6440   -0.6840    7.8690 ha        1 494      0.151000
     36 H6          1.1910   -0.9750    3.5740 ha        1 494      0.147000
     37 H7          1.8850   -2.7850    4.9520 ha        1 494      0.201000
     38 H8         -2.4440   -1.4310    0.3760 h1        1 494      0.090500
     39 H9         -2.5530    0.2740   -0.3000 h1        1 494      0.090500
     40 H10        -3.9220   -0.7220    2.3330 h1        1 494      0.131000
     41 H11        -4.7320   -0.7790    0.6820 h1        1 494      0.131000
     42 H12        -5.0170    3.3400    3.9100 hn        1 494      0.268000
     43 H13        -5.1600    3.9340   -0.3030 ha        1 494      0.180000
     44 H14        -4.5270    1.4910   -0.5770 h4        1 494      0.158000
     45 H15         2.2460   -4.2220    8.8060 ha        1 494      0.264000
@<TRIPOS>BOND
     1    1    2 1   
     2    1    6 1   
     3    1   31 1   
     4    2    3 1   
     5    2    7 1   
     6    3    4 1   
     7    3   32 1   
     8    4    5 1   
     9    4   33 1   
    10    5    6 1   
    11    5    8 1   
    12    6    9 1   
    13    8   10 1   
    14    9   18 1   
    15   10   11 1   
    16   10   15 1   
    17   11   12 1   
    18   11   34 1   
    19   12   13 1   
    20   12   16 1   
    21   13   14 1   
    22   13   35 1   
    23   14   15 1   
    24   14   17 1   
    25   15   36 1   
    26   17   28 1   
    27   17   37 1   
    28   18   19 1   
    29   18   38 1   
    30   18   39 1   
    31   19   20 1   
    32   19   40 1   
    33   19   41 1   
    34   20   21 1   
    35   20   25 1   
    36   21   22 1   
    37   21   26 1   
    38   22   23 1   
    39   22   42 1   
    40   23   24 1   
    41   23   27 1   
    42   24   25 1   
    43   24   43 1   
    44   25   44 1   
    45   29   30 1   
    46   29   45 1   
@<TRIPOS>SUBSTRUCTURE
     1 494         1 TEMP              0 ****  ****    0 ROOT
