@<TRIPOS>MOLECULE
494
   45    47     1     0     0
SMALL
bcc


@<TRIPOS>ATOM
      1 C00         1.2210    3.3000    0.2970 ca        1 494     -0.190000
      2 C01         0.7660    4.2820   -0.5880 ca        1 494      0.047400
      3 C02         0.0180    3.9460   -1.7200 ca        1 494     -0.142000
      4 C03        -0.2730    2.6090   -1.9820 ca        1 494     -0.094000
      5 C04         0.1860    1.6100   -1.1170 ca        1 494      0.063100
      6 C05         0.9230    1.9570    0.0370 ca        1 494      0.120100
      7 CL7         1.1280    5.9110   -0.2720 cl        1 494     -0.078400
      8 O0A         0.0350    0.2740   -1.4790 os        1 494     -0.237200
      9 O0B         1.2620    0.9210    0.8830 os        1 494     -0.310900
     10 C0C        -1.1580   -0.3270   -1.0760 ca        1 494      0.116100
     11 C0D        -1.6570   -1.3070   -1.9480 ca        1 494     -0.129000
     12 C0E        -2.8040   -2.0040   -1.5650 ca        1 494      0.034400
     13 C0F        -3.4490   -1.7300   -0.3550 ca        1 494     -0.126000
     14 C0G        -2.9380   -0.7460    0.5020 ca        1 494     -0.040800
     15 C0H        -1.7780   -0.0450    0.1430 ca        1 494     -0.143000
     16 CL0        -3.4300   -3.2040   -2.5920 cl        1 494     -0.082400
     17 C0M        -3.5710   -0.4410    1.7760 ce        1 494     -0.048200
     18 C0O         2.4060    1.1570    1.7120 c3        1 494      0.101400
     19 C0P         2.7840   -0.1950    2.3330 c3        1 494      0.090000
     20 N0S         3.3260   -1.1700    1.4170 n         1 494     -0.372000
     21 C0V         2.5790   -2.3510    1.1320 c         1 494      0.814500
     22 N0W         3.0550   -3.2140    0.1350 n         1 494     -0.582500
     23 C0X         4.2220   -2.9600   -0.6090 c         1 494      0.715700
     24 C0Y         4.9500   -1.7320   -0.2660 cc        1 494     -0.310200
     25 C0Z         4.4790   -0.8980    0.6940 cd        1 494      0.044600
     26 O10         1.5470   -2.6310    1.7770 o         1 494     -0.632500
     27 O12         4.5640   -3.7680   -1.4870 o         1 494     -0.606500
     28 C15        -4.8630   -0.6790    2.0550 cf        1 494     -0.061700
     29 C17        -5.4410   -0.3630    3.3100 ch        1 494      0.183500
     30 N19        -5.9340   -0.1090    4.3340 n1        1 494     -0.362800
     31 H1          1.8010    3.5830    1.1870 ha        1 494      0.154000
     32 H2         -0.3370    4.7290   -2.4060 ha        1 494      0.158000
     33 H3         -0.8530    2.3260   -2.8740 ha        1 494      0.159000
     34 H4         -1.1400   -1.5180   -2.8960 ha        1 494      0.167000
     35 H5         -4.3480   -2.2980   -0.0710 ha        1 494      0.152000
     36 H6         -1.3440    0.7120    0.8140 ha        1 494      0.156000
     37 H7         -2.9080    0.0250    2.5280 ha        1 494      0.143000
     38 H8          3.2410    1.5950    1.1070 h1        1 494      0.051700
     39 H9          2.1230    1.8620    2.5390 h1        1 494      0.051700
     40 H10         3.5570    0.0100    3.1280 h1        1 494      0.090200
     41 H11         1.8640   -0.6380    2.8180 h1        1 494      0.090200
     42 H12         2.5100   -4.0270   -0.0570 hn        1 494      0.354500
     43 H13         5.8750   -1.5350   -0.8220 ha        1 494      0.179000
     44 H14         5.0000    0.0400    0.9670 h4        1 494      0.158000
     45 H15        -5.5580   -1.1300    1.3240 ha        1 494      0.156000
@<TRIPOS>BOND
     1    1    2 ar  
     2    1    6 ar  
     3    1   31 1   
     4    2    3 ar  
     5    2    7 1   
     6    3    4 ar  
     7    3   32 1   
     8    4    5 ar  
     9    4   33 1   
    10    5    6 ar  
    11    5    8 1   
    12    6    9 1   
    13    8   10 1   
    14    9   18 1   
    15   10   11 ar  
    16   10   15 ar  
    17   11   12 ar  
    18   11   34 1   
    19   12   13 ar  
    20   12   16 1   
    21   13   14 ar  
    22   13   35 1   
    23   14   15 ar  
    24   14   17 1   
    25   15   36 1   
    26   17   28 2   
    27   17   37 1   
    28   18   19 1   
    29   18   38 1   
    30   18   39 1   
    31   19   20 1   
    32   19   40 1   
    33   19   41 1   
    34   20   21 1   
    35   20   25 1   
    36   21   22 1   
    37   21   26 2   
    38   22   23 1   
    39   22   42 1   
    40   23   24 1   
    41   23   27 2   
    42   24   25 2   
    43   24   43 1   
    44   25   44 1   
    45   28   29 1   
    46   28   45 1   
    47   29   30 3   
@<TRIPOS>SUBSTRUCTURE
     1 494         1 TEMP              0 ****  ****    0 ROOT
