@<TRIPOS>MOLECULE
494
   45    39     1     0     0
SMALL
bcc


@<TRIPOS>ATOM
      1 C00         1.0750   -1.0990   -3.1990 c1        1 494     -0.135000
      2 C01         2.4430   -1.2530   -3.2580 c1        1 494     -0.049000
      3 C02         3.1900   -1.2700   -2.0900 c1        1 494     -0.130000
      4 C03         2.5630   -1.1330   -0.8660 c1        1 494     -0.126000
      5 C04         1.1780   -0.9760   -0.8070 c1        1 494     -0.005000
      6 C05         0.4400   -0.9600   -1.9630 c1        1 494      0.078000
      7 CL7         3.2470   -1.3650   -4.8220 cl        1 494      0.004000
      8 O0A         0.5250   -0.9730    0.4390 os        1 494     -0.165000
      9 O0B        -0.9960   -0.8670   -1.8980 os        1 494     -0.211000
     10 C0C         1.4560   -0.8490    1.4460 c2        1 494      0.062000
     11 C0D         1.9580    0.4050    1.7740 c2        1 494     -0.129000
     12 C0E         2.8030    0.5520    2.8720 c1        1 494     -0.042000
     13 C0F         3.1430   -0.5560    3.6410 c2        1 494     -0.119000
     14 C0G         2.6380   -1.8140    3.3110 c1        1 494     -0.032000
     15 C0H         1.7960   -1.9580    2.2150 c1        1 494     -0.153000
     16 CL0         3.3760    2.1350    3.3220 cl        1 494      0.004000
     17 C0M         3.1510   -3.0440    4.0270 c2        1 494     -0.069000
     18 C0O        -1.5140    0.4170   -2.2910 c3        1 494     -0.039000
     19 C0P        -3.0490    0.3160   -2.4960 c3        1 494     -0.034000
     20 N0S        -3.6760    1.5830   -2.1310 n3        1 494     -0.270000
     21 C0V        -4.5480    1.6540   -0.9720 c1        1 494      0.398000
     22 N0W        -5.0710    2.9540   -0.5200 n2        1 494     -0.364000
     23 C0X        -4.7910    4.1340   -1.2680 c2        1 494      0.353000
     24 C0Y        -3.9100    4.0660   -2.4400 c2        1 494     -0.296000
     25 C0Z        -3.3920    2.7690   -2.8900 c2        1 494      0.044000
     26 O10        -4.8660    0.6450   -0.3980 o         1 494     -0.358000
     27 O12        -5.2170    5.1970   -0.8960 o         1 494     -0.329000
     28 C15         2.7580   -3.3020    5.3210 c1        1 494     -0.084000
     29 C17         1.8280   -2.3690    6.0180 c1        1 494     -0.113000
     30 N19         1.1290   -1.6670    6.5420 n1        1 494     -0.028000
     31 H1          0.5520   -1.0870   -4.0190 ha        1 494      0.169000
     32 H2          4.1650   -1.3810   -2.1320 ha        1 494      0.156000
     33 H3          3.0940   -1.1450   -0.0360 ha        1 494      0.156000
     34 H4          1.7230    1.1690    1.2430 ha        1 494      0.167000
     35 H5          3.7130   -0.4570    4.3820 ha        1 494      0.161000
     36 H6          1.4440   -2.8320    1.9860 ha        1 494      0.155000
     37 H7          3.7530   -3.6480    3.5770 ha        1 494      0.142000
     38 H8         -1.0870    0.7000   -3.1380 h1        1 494      0.104500
     39 H9         -1.3200    1.0770   -1.5920 h1        1 494      0.104500
     40 H10        -3.4090   -0.4030   -1.9300 h1        1 494      0.127500
     41 H11        -3.2390    0.1180   -3.4370 h1        1 494      0.127500
     42 H12        -5.6180    2.9960    0.2090 hn        1 494      0.268000
     43 H13        -3.7110    4.9010   -2.9700 ha        1 494      0.180000
     44 H14        -2.8180    2.7220   -3.6530 h4        1 494      0.164000
     45 H15         3.0910   -4.1010    5.7850 ha        1 494      0.157000
@<TRIPOS>BOND
     1    1    6 1   
     2    1   31 1   
     3    2    3 1   
     4    3   32 1   
     5    4    5 1   
     6    4   33 1   
     7    5    8 1   
     8    6    9 1   
     9    8   10 1   
    10    9   18 1   
    11   10   11 1   
    12   10   15 1   
    13   11   12 1   
    14   11   34 1   
    15   12   13 1   
    16   13   14 1   
    17   13   35 1   
    18   14   17 1   
    19   15   36 1   
    20   17   28 1   
    21   17   37 1   
    22   18   19 1   
    23   18   38 1   
    24   18   39 1   
    25   19   20 1   
    26   19   40 1   
    27   19   41 1   
    28   20   21 1   
    29   20   25 1   
    30   21   26 1   
    31   22   23 1   
    32   22   42 1   
    33   23   24 1   
    34   23   27 1   
    35   24   25 1   
    36   24   43 1   
    37   25   44 1   
    38   28   45 1   
    39   29   30 1   
@<TRIPOS>SUBSTRUCTURE
     1 494         1 TEMP              0 ****  ****    0 ROOT
