@<TRIPOS>MOLECULE
495
   17    18     1     0     0
SMALL
bcc


@<TRIPOS>ATOM
      1 CL          0.0660   -0.0030    0.0470 cl        1 495     -0.075300
      2 C8          1.7750   -0.0020    0.0220 cc        1 495      0.392900
      3 N2          2.4150   -0.0010    1.1850 nd        1 495     -0.414300
      4 N1          3.7330   -0.0010    1.1960 n         1 495     -0.296900
      5 C7          4.5680   -0.0010    0.0530 c         1 495      0.688100
      6 O           5.8000   -0.0000    0.2130 o         1 495     -0.607500
      7 C6          3.8680   -0.0020   -1.2460 ca        1 495     -0.138600
      8 C5          2.4550   -0.0020   -1.2720 ca        1 495     -0.102900
      9 C1          4.6000   -0.0020   -2.4400 ca        1 495     -0.069000
     10 C2          3.9290   -0.0030   -3.6580 ca        1 495     -0.132000
     11 C3          2.5300   -0.0030   -3.6880 ca        1 495     -0.098000
     12 C4          1.7940   -0.0030   -2.5080 ca        1 495     -0.115000
     13 H1          4.1440   -0.0000    2.1120 hn        1 495      0.364500
     14 H2          5.7020   -0.0020   -2.3940 ha        1 495      0.164000
     15 H3          4.4980   -0.0030   -4.5990 ha        1 495      0.144000
     16 H4          2.0060   -0.0040   -4.6570 ha        1 495      0.142000
     17 H5          0.6940   -0.0040   -2.5450 ha        1 495      0.153000
@<TRIPOS>BOND
     1    1    2 1   
     2    2    3 2   
     3    2    8 1   
     4    3    4 1   
     5    4    5 1   
     6    4   13 1   
     7    5    6 2   
     8    5    7 1   
     9    7    8 ar  
    10    7    9 ar  
    11    8   12 ar  
    12    9   10 ar  
    13    9   14 1   
    14   10   11 ar  
    15   10   15 1   
    16   11   12 ar  
    17   11   16 1   
    18   12   17 1   
@<TRIPOS>SUBSTRUCTURE
     1 495         1 TEMP              0 ****  ****    0 ROOT
