@<TRIPOS>MOLECULE
495
   17    18     1     0     0
SMALL
bcc


@<TRIPOS>ATOM
      1 CL          2.8500    0.2240    0.0020 cl        1 495     -0.075300
      2 C8          1.2630   -0.4120    0.0010 cc        1 495      0.392900
      3 N2          1.1210   -1.7320    0.0010 nd        1 495     -0.414300
      4 N1         -0.0910   -2.2500    0.0000 n         1 495     -0.296900
      5 C7         -1.3020   -1.5180   -0.0000 c         1 495      0.688100
      6 O          -2.3770   -2.1390   -0.0010 o         1 495     -0.607500
      7 C6         -1.1570   -0.0490   -0.0000 ca        1 495     -0.138600
      8 C5          0.1360    0.5200    0.0010 ca        1 495     -0.102900
      9 C1         -2.2930    0.7710   -0.0010 ca        1 495     -0.069000
     10 C2         -2.1430    2.1530   -0.0010 ca        1 495     -0.132000
     11 C3         -0.8640    2.7210    0.0000 ca        1 495     -0.098000
     12 C4          0.2700    1.9150    0.0010 ca        1 495     -0.115000
     13 H1         -0.1170   -3.2540    0.0000 hn        1 495      0.364500
     14 H2         -3.2910    0.3040   -0.0010 ha        1 495      0.164000
     15 H3         -3.0310    2.8030   -0.0010 ha        1 495      0.144000
     16 H4         -0.7540    3.8160    0.0000 ha        1 495      0.142000
     17 H5          1.2710    2.3740    0.0010 ha        1 495      0.153000
@<TRIPOS>BOND
     1    1    2 1   
     2    2    3 2   
     3    2    8 1   
     4    3    4 1   
     5    4    5 1   
     6    4   13 1   
     7    5    6 2   
     8    5    7 1   
     9    7    8 ar  
    10    7    9 ar  
    11    8   12 ar  
    12    9   10 ar  
    13    9   14 1   
    14   10   11 ar  
    15   10   15 1   
    16   11   12 ar  
    17   11   16 1   
    18   12   17 1   
@<TRIPOS>SUBSTRUCTURE
     1 495         1 TEMP              0 ****  ****    0 ROOT
