@<TRIPOS>MOLECULE
495
   17    12     1     0     0
SMALL
bcc


@<TRIPOS>ATOM
      1 CL         -3.2150   -0.0000    1.4580 cl        1 495     -0.052900
      2 C8         -1.4710   -0.0000    1.4580 c1        1 495      0.323700
      3 N2         -0.7520   -0.0000    2.7040 n1        1 495     -0.319800
      4 N1          0.6680   -0.0000    2.7070 n2        1 495     -0.740800
      5 C7          1.3910   -0.0000    1.4640 c1        1 495      0.777900
      6 O           2.6060    0.0000    1.4680 o         1 495     -0.565500
      7 C6          0.6390   -0.0000    0.1500 c1        1 495     -0.068500
      8 C5         -0.7150   -0.0000    0.1470 c1        1 495     -0.068500
      9 C1          1.3460   -0.0000   -1.0690 c1        1 495     -0.046000
     10 C2          0.6570   -0.0000   -2.2680 c1        1 495     -0.046000
     11 C3         -0.7230   -0.0000   -2.2710 c1        1 495     -0.046000
     12 C4         -1.4170   -0.0000   -1.0740 c1        1 495     -0.046000
     13 H1          1.1210   -0.0000    3.4980 hn        1 495      0.522400
     14 H2          2.3220   -0.0000   -1.0680 ha        1 495      0.093500
     15 H3          1.1460   -0.0000   -3.1130 ha        1 495      0.093500
     16 H4         -1.2100   -0.0000   -3.1170 ha        1 495      0.093500
     17 H5         -2.3930   -0.0000   -1.0760 ha        1 495      0.093500
@<TRIPOS>BOND
     1    1    2 1   
     2    2    3 3   
     3    4    5 2   
     4    4   13 1   
     5    5    6 2   
     6    7    8 1   
     7    9   10 3   
     8    9   14 1   
     9   10   15 1   
    10   11   12 3   
    11   11   16 1   
    12   12   17 1   
@<TRIPOS>SUBSTRUCTURE
     1 495         1 TEMP              0 ****  ****    0 ROOT
