@<TRIPOS>MOLECULE
496
   44    46     1     0     0
SMALL
bcc


@<TRIPOS>ATOM
      1 O1         -1.9480   -1.4670   -2.1180 o         1 496     -0.634100
      2 C2         -2.9910   -1.3720   -1.4310 c         1 496      0.698700
      3 N3         -4.0920   -2.1130   -1.7780 n         1 496     -0.667000
      4 C4         -3.0540   -0.5270   -0.2210 cc        1 496     -0.214600
      5 C5         -4.1110    0.3530    0.1640 cc        1 496     -0.059300
      6 C6         -5.3290    0.6560   -0.6200 c3        1 496     -0.015100
      7 C10        -6.3510    1.4460    0.1800 c3        1 496     -0.075400
      8 C9         -5.7120    2.5370    1.0120 c3        1 496     -0.072400
      9 C8         -4.7320    1.9530    2.0150 c3        1 496      0.000900
     10 C7         -3.8230    0.9930    1.3620 cd        1 496     -0.149400
     11 S11        -2.3380    0.5600    1.9760 ss        1 496      0.115200
     12 C12        -1.9860   -0.4830    0.6920 cd        1 496      0.063500
     13 N13        -0.7730   -1.1380    0.5140 n         1 496     -0.427100
     14 C14        -0.1060   -1.8200    1.5130 c         1 496      0.637100
     15 O15        -0.4620   -1.8270    2.7040 o         1 496     -0.580100
     16 C16         1.1570   -2.6000    1.1010 c3        1 496     -0.018700
     17 N17         2.2150   -1.7630    0.5830 na        1 496      0.091400
     18 C24         3.3290   -1.3430    1.3310 cc        1 496     -0.099300
     19 C25         4.0900   -0.5230    0.4860 cd        1 496     -0.208600
     20 C26         5.3610    0.1590    0.7820 c3        1 496      0.204700
     21 O29         5.7490   -0.1700    2.1110 oh        1 496     -0.603800
     22 C19         3.3470   -0.4940   -0.7580 cd        1 496      0.222600
     23 N18         2.2170   -1.2500   -0.6540 nc        1 496     -0.451800
     24 C20         3.7070    0.2400   -2.0320 c3        1 496      0.632600
     25 F21         4.8850    0.9440   -1.9590 f         1 496     -0.230300
     26 F22         3.8660   -0.5740   -3.1250 f         1 496     -0.230300
     27 F23         2.7800    1.1730   -2.4250 f         1 496     -0.230300
     28 H1         -4.0560   -2.6890   -2.5810 hn        1 496      0.315000
     29 H2         -4.9080   -2.1080   -1.2240 hn        1 496      0.315000
     30 H3         -5.0240    1.2460   -1.5280 hc        1 496      0.052200
     31 H4         -5.8240   -0.2820   -0.9830 hc        1 496      0.052200
     32 H5         -7.0950    1.8990   -0.5260 hc        1 496      0.043700
     33 H6         -6.9120    0.7490    0.8580 hc        1 496      0.043700
     34 H7         -5.1750    3.2560    0.3390 hc        1 496      0.047200
     35 H8         -6.5040    3.1100    1.5590 hc        1 496      0.047200
     36 H9         -4.1490    2.7830    2.4950 hc        1 496      0.051200
     37 H10        -5.3030    1.4290    2.8310 hc        1 496      0.051200
     38 H11        -0.5060   -1.2850   -0.4450 hn        1 496      0.371500
     39 H12         1.5450   -3.1160    2.0260 h1        1 496      0.102200
     40 H13         0.8720   -3.3770    0.3340 h1        1 496      0.102200
     41 H14         3.5030   -1.6440    2.3650 h4        1 496      0.203000
     42 H15         6.1550   -0.1750    0.0570 h1        1 496      0.045700
     43 H16         5.2310    1.2730    0.6830 h1        1 496      0.045700
     44 H17         6.5710    0.3080    2.2750 ho        1 496      0.409000
@<TRIPOS>BOND
     1    1    2 2   
     2    2    3 1   
     3    2    4 1   
     4    3   28 1   
     5    3   29 1   
     6    4    5 1   
     7    4   12 2   
     8    5    6 1   
     9    5   10 2   
    10    6    7 1   
    11    6   30 1   
    12    6   31 1   
    13    7    8 1   
    14    7   32 1   
    15    7   33 1   
    16    8    9 1   
    17    8   34 1   
    18    8   35 1   
    19    9   10 1   
    20    9   36 1   
    21    9   37 1   
    22   10   11 1   
    23   11   12 1   
    24   12   13 1   
    25   13   14 1   
    26   13   38 1   
    27   14   15 2   
    28   14   16 1   
    29   16   17 1   
    30   16   39 1   
    31   16   40 1   
    32   17   18 1   
    33   17   23 1   
    34   18   19 2   
    35   18   41 1   
    36   19   20 1   
    37   19   22 1   
    38   20   21 1   
    39   20   42 1   
    40   20   43 1   
    41   21   44 1   
    42   22   23 2   
    43   22   24 1   
    44   24   25 1   
    45   24   26 1   
    46   24   27 1   
@<TRIPOS>SUBSTRUCTURE
     1 496         1 TEMP              0 ****  ****    0 ROOT
