@<TRIPOS>MOLECULE
496
   44    39     1     0     0
SMALL
bcc


@<TRIPOS>ATOM
      1 O1          1.8920    0.8630    4.2340 o         1 496     -0.400000
      2 C2          2.5410    1.0660    3.2380 c1        1 496      0.373000
      3 N3          3.3730    2.2150    3.1520 n2        1 496     -0.422000
      4 C4          2.3890    0.1490    2.0260 c2        1 496     -0.209000
      5 C5          3.4320   -0.9570    1.5660 c1        1 496     -0.043000
      6 C6          4.9210   -1.3190    2.0250 c2        1 496     -0.101000
      7 C10         5.6590   -2.1680    1.1730 c3        1 496     -0.154000
      8 C9          4.9010   -3.2600    0.4760 c3        1 496     -0.151000
      9 C8          3.7150   -2.8590   -0.2820 c3        1 496     -0.083000
     10 C7          2.8700   -1.6690    0.3250 c2        1 496     -0.431000
     11 S11         1.4890   -1.0290   -0.0030 ss        1 496      0.673000
     12 C12         1.2150    0.1140    1.0880 c1        1 496     -0.198000
     13 N13         0.1740    1.0310    1.0590 n2        1 496     -0.269000
     14 C14        -1.0770    0.7160    0.2980 c1        1 496      0.279000
     15 O15        -1.1740   -0.2970   -0.2660 o         1 496     -0.345000
     16 C16        -2.2310    1.6860    0.3070 c2        1 496     -0.027000
     17 N17        -3.1780    1.3190   -0.6940 n3        1 496     -0.118000
     18 C24        -4.5410    1.3050   -0.5450 c1        1 496     -0.084000
     19 C25        -5.0860    0.9600   -1.7240 c1        1 496     -0.168000
     20 C26        -6.5790    0.9590   -2.0540 c2        1 496      0.045000
     21 O29        -6.8910    2.1020   -2.8560 oh        1 496     -0.317000
     22 C19        -4.0600    0.7540   -2.6220 c1        1 496     -0.198000
     23 N18        -2.8910    0.9780   -1.9790 n2        1 496     -0.020000
     24 C20        -4.2120    0.4410   -4.0650 c2        1 496      0.512000
     25 F21        -4.8590    1.5090   -4.7130 f         1 496     -0.158333
     26 F22        -4.9770   -0.7310   -4.2150 f         1 496     -0.158333
     27 F23        -3.0110    0.2550   -4.5970 f         1 496     -0.158333
     28 H1          3.4350    2.8150    3.8910 hn        1 496      0.228500
     29 H2          3.8810    2.3220    2.4710 hn        1 496      0.228500
     30 H3          5.3740   -0.5600    2.1160 ha        1 496      0.091500
     31 H4          4.8700   -1.7320    2.8700 ha        1 496      0.091500
     32 H5          6.3370   -2.5690    1.6840 hc        1 496      0.082500
     33 H6          6.0780   -1.6220    0.5020 hc        1 496      0.082500
     34 H7          5.5390   -3.6880   -0.1820 hc        1 496      0.085500
     35 H8          4.5880   -3.8860    1.1870 hc        1 496      0.085500
     36 H9          4.0280   -2.5640   -1.1700 hc        1 496      0.089500
     37 H10         3.1190   -3.6470   -0.3210 hc        1 496      0.089500
     38 H11         0.2570    1.8440    1.5080 hn        1 496      0.284000
     39 H12        -2.6780    1.6670    1.2110 h4        1 496      0.144000
     40 H13        -1.8930    2.6070    0.1200 h4        1 496      0.144000
     41 H14        -5.0410    1.4680    0.3070 DU        1 496      0.194000
     42 H15        -7.1080    0.9920   -1.2060 h4        1 496      0.100000
     43 H16        -6.8040    0.1360   -2.5510 h4        1 496      0.100000
     44 H17        -7.7870    2.2870   -2.7910 ho        1 496      0.209000
@<TRIPOS>BOND
     1    1    2 1   
     2    2    4 1   
     3    3   28 1   
     4    3   29 1   
     5    4    5 1   
     6    4   12 1   
     7    5   10 1   
     8    6    7 1   
     9    6   30 1   
    10    6   31 1   
    11    7    8 1   
    12    7   32 1   
    13    7   33 1   
    14    8    9 1   
    15    8   34 1   
    16    8   35 1   
    17    9   10 1   
    18    9   36 1   
    19    9   37 1   
    20   10   11 1   
    21   11   12 1   
    22   13   14 1   
    23   13   38 1   
    24   14   15 1   
    25   16   17 1   
    26   16   39 1   
    27   16   40 1   
    28   17   18 1   
    29   17   23 1   
    30   18   19 1   
    31   19   22 1   
    32   20   21 1   
    33   20   42 1   
    34   20   43 1   
    35   21   44 1   
    36   22   23 1   
    37   24   25 1   
    38   24   26 1   
    39   24   27 1   
@<TRIPOS>SUBSTRUCTURE
     1 496         1 TEMP              0 ****  ****    0 ROOT
