@<TRIPOS>MOLECULE
496
   46    48     1     0     0
SMALL
bcc


@<TRIPOS>ATOM
      1 O1          0.4470   -1.1500    0.7340 o         1 496     -0.463100
      2 C2          1.1490   -0.3520    0.1130 c         1 496      0.598700
      3 N3          1.2860    0.9820    0.7920 n4        1 496     -0.744400
      4 C4          1.8150   -0.5740   -1.1530 cc        1 496     -0.202600
      5 C5          2.4350    0.3810   -2.0040 cc        1 496     -0.027300
      6 C6          2.5980    1.8340   -1.7700 c3        1 496     -0.043100
      7 C10         3.4590    2.5200   -2.8230 c3        1 496     -0.081400
      8 C9          3.2000    1.9920   -4.2140 c3        1 496     -0.080400
      9 C8          3.5280    0.5120   -4.2920 c3        1 496     -0.034100
     10 C7          2.8760   -0.2320   -3.1920 cd        1 496     -0.132400
     11 S11         2.5800   -1.8330   -3.2330 ss        1 496      0.495200
     12 C12         1.8550   -1.8770   -1.7470 cd        1 496     -0.155500
     13 N13         1.3330   -3.0780   -1.1450 n4        1 496     -0.511200
     14 C14         2.3570   -3.7910   -0.2610 c         1 496      0.546100
     15 O15         2.8060   -3.1540    0.6730 o         1 496     -0.385100
     16 C16         2.6400   -5.2530   -0.5900 c3        1 496      0.000300
     17 N17         3.1790   -5.4590   -1.9080 na        1 496      0.043400
     18 C24         4.1090   -6.4780   -2.2160 cc        1 496     -0.054300
     19 C25         4.1170   -6.6020   -3.6100 cd        1 496     -0.170600
     20 C26         4.9480   -7.5170   -4.4190 c3        1 496      0.193700
     21 O29         5.8210   -8.1930   -3.5260 oh        1 496     -0.607800
     22 C19         3.1380   -5.6360   -4.0730 cd        1 496      0.295600
     23 N18         2.5770   -4.9820   -3.0210 nc        1 496     -0.603800
     24 C20         2.7450   -5.3290   -5.5150 c3        1 496      0.626600
     25 F21         3.3300   -6.1470   -6.4380 f         1 496     -0.213633
     26 F22         1.3960   -5.4120   -5.7410 f         1 496     -0.213633
     27 F23         3.0820   -4.0510   -5.8940 f         1 496     -0.213633
     28 H1          0.9470    1.7330    0.1760 hn        1 496      0.485467
     29 H2          0.7320    0.9820    1.6640 hn        1 496      0.485467
     30 H3          1.5800    2.3170   -1.7720 hc        1 496      0.053200
     31 H4          3.0910    2.0180   -0.7770 hc        1 496      0.053200
     32 H5          3.2500    3.6230   -2.7930 hc        1 496      0.079200
     33 H6          4.5430    2.3780   -2.5650 hc        1 496      0.079200
     34 H7          2.1300    2.1640   -4.5030 hc        1 496      0.081700
     35 H8          3.8400    2.5470   -4.9520 hc        1 496      0.081700
     36 H9          4.6440    0.3730   -4.2190 hc        1 496      0.094200
     37 H10         3.2050    0.1070   -5.2910 hc        1 496      0.094200
     38 H11         0.5180   -2.8300   -0.5530 hn        1 496      0.488800
     39 H12         1.6750   -5.8290   -0.4400 h1        1 496      0.138200
     40 H13         3.4040   -5.6180    0.1670 h1        1 496      0.138200
     41 H14         4.6980   -7.0100   -1.4600 h4        1 496      0.231000
     42 H15         5.5420   -6.9330   -5.1770 h1        1 496      0.068700
     43 H16         4.2890   -8.2520   -4.9620 h1        1 496      0.068700
     44 H17         6.3100   -8.8400   -4.0520 ho        1 496      0.439000
     45 H33         2.2720    1.1600    1.0200 hn        1 496      0.485467
     46 H132        1.0000   -3.7130   -1.8900 hn        1 496      0.488800
@<TRIPOS>BOND
     1    1    2 2   
     2    2    3 1   
     3    2    4 1   
     4    3   28 1   
     5    3   29 1   
     6    3   45 1   
     7    4    5 1   
     8    4   12 2   
     9    5    6 1   
    10    5   10 2   
    11    6    7 1   
    12    6   30 1   
    13    6   31 1   
    14    7    8 1   
    15    7   32 1   
    16    7   33 1   
    17    8    9 1   
    18    8   34 1   
    19    8   35 1   
    20    9   10 1   
    21    9   36 1   
    22    9   37 1   
    23   10   11 1   
    24   11   12 1   
    25   12   13 1   
    26   13   14 1   
    27   13   38 1   
    28   13   46 1   
    29   14   15 2   
    30   14   16 1   
    31   16   17 1   
    32   16   39 1   
    33   16   40 1   
    34   17   18 1   
    35   17   23 1   
    36   18   19 2   
    37   18   41 1   
    38   19   20 1   
    39   19   22 1   
    40   20   21 1   
    41   20   42 1   
    42   20   43 1   
    43   21   44 1   
    44   22   23 2   
    45   22   24 1   
    46   24   25 1   
    47   24   26 1   
    48   24   27 1   
@<TRIPOS>SUBSTRUCTURE
     1 496         1 TEMP              0 ****  ****    0 ROOT
