@<TRIPOS>MOLECULE
496
   45    47     1     0     0
SMALL
bcc


@<TRIPOS>ATOM
      1 O1          1.1410   -2.4290   -0.4890 o         1 496     -0.449100
      2 C2          1.4500   -1.5940   -1.3320 c         1 496      0.612700
      3 N3          0.4110   -1.4250   -2.4300 nz        1 496     -0.755400
      4 C4          2.6480   -0.8200   -1.4800 cc        1 496     -0.323600
      5 C5          2.7620    0.5330   -1.9390 cc        1 496     -0.054300
      6 C6          1.6460    1.4180   -2.3380 c3        1 496     -0.027100
      7 C10         2.0790    2.8750   -2.3970 c3        1 496     -0.075400
      8 C9          3.4130    3.0330   -3.0940 c3        1 496     -0.076400
      9 C8          4.5160    2.2990   -2.3520 c3        1 496     -0.013100
     10 C7          4.0820    0.9470   -1.9440 cd        1 496     -0.138400
     11 S11         5.1300   -0.2380   -1.4150 ss        1 496      0.259200
     12 C12         3.9210   -1.3620   -1.1370 cd        1 496      0.101500
     13 N13         4.1000   -2.6440   -0.6600 ns        1 496     -0.434100
     14 C14         5.1990   -3.4450   -0.9970 c         1 496      0.649100
     15 O15         6.2790   -2.9600   -1.3530 o         1 496     -0.522100
     16 C16         4.9980   -4.9630   -0.8750 c3        1 496     -0.015700
     17 N17         4.0520   -5.4760   -1.8460 na        1 496      0.095400
     18 C24         4.3020   -6.5580   -2.7070 cc        1 496     -0.079300
     19 C25         3.1550   -6.7110   -3.5020 cd        1 496     -0.186600
     20 C26         2.9200   -7.7220   -4.5510 c3        1 496      0.199700
     21 O29         4.1300   -8.4430   -4.7380 oh        1 496     -0.601800
     22 C19         2.2640   -5.6640   -3.0580 cd        1 496      0.225600
     23 N18         2.8430   -4.9420   -2.0530 nc        1 496     -0.515800
     24 C20         0.8710   -5.3490   -3.5560 c3        1 496      0.641600
     25 F21         0.5630   -5.8800   -4.7790 f         1 496     -0.239633
     26 F22        -0.1370   -5.7560   -2.7220 f         1 496     -0.239633
     27 F23         0.6230   -3.9980   -3.7130 f         1 496     -0.239633
     28 H1          0.8670   -1.5520   -3.3400 hn        1 496      0.467133
     29 H2         -0.3200   -2.1410   -2.3260 hn        1 496      0.467133
     30 H3          0.7960    1.3270   -1.6090 hc        1 496      0.038700
     31 H4          1.2770    1.1100   -3.3560 hc        1 496      0.038700
     32 H5          1.2960    3.4670   -2.9400 hc        1 496      0.062700
     33 H6          2.1500    3.2840   -1.3550 hc        1 496      0.062700
     34 H7          3.6770    4.1220   -3.1570 hc        1 496      0.060700
     35 H8          3.3400    2.6430   -4.1430 hc        1 496      0.060700
     36 H9          4.8000    2.8850   -1.4330 hc        1 496      0.071700
     37 H10         5.4280    2.2360   -3.0050 hc        1 496      0.071700
     38 H11         3.2860   -3.1000   -0.2930 hn        1 496      0.355500
     39 H12         5.9960   -5.4560   -1.0620 h1        1 496      0.115200
     40 H13         4.6480   -5.2170    0.1690 h1        1 496      0.115200
     41 H14         5.2340   -7.1300   -2.7030 h4        1 496      0.218000
     42 H15         2.6160   -7.2190   -5.5110 h1        1 496      0.052700
     43 H16         2.0980   -8.4220   -4.2310 h1        1 496      0.052700
     44 H17         3.9450   -9.1180   -5.4030 ho        1 496      0.423000
     45 H33        -0.0060   -0.4920   -2.3880 hn        1 496      0.467133
@<TRIPOS>BOND
     1    1    2 2   
     2    2    3 1   
     3    2    4 1   
     4    3   28 1   
     5    3   29 1   
     6    3   45 1   
     7    4    5 1   
     8    4   12 2   
     9    5    6 1   
    10    5   10 2   
    11    6    7 1   
    12    6   30 1   
    13    6   31 1   
    14    7    8 1   
    15    7   32 1   
    16    7   33 1   
    17    8    9 1   
    18    8   34 1   
    19    8   35 1   
    20    9   10 1   
    21    9   36 1   
    22    9   37 1   
    23   10   11 1   
    24   11   12 1   
    25   12   13 1   
    26   13   14 1   
    27   13   38 1   
    28   14   15 2   
    29   14   16 1   
    30   16   17 1   
    31   16   39 1   
    32   16   40 1   
    33   17   18 1   
    34   17   23 1   
    35   18   19 2   
    36   18   41 1   
    37   19   20 1   
    38   19   22 1   
    39   20   21 1   
    40   20   42 1   
    41   20   43 1   
    42   21   44 1   
    43   22   23 2   
    44   22   24 1   
    45   24   25 1   
    46   24   26 1   
    47   24   27 1   
@<TRIPOS>SUBSTRUCTURE
     1 496         1 TEMP              0 ****  ****    0 ROOT
