@<TRIPOS>MOLECULE
496
   45    47     1     0     0
SMALL
bcc


@<TRIPOS>ATOM
      1 O1          1.2060   -2.3920   -0.4320 o         1 496     -0.449100
      2 C2          1.4970   -1.5680   -1.2920 c         1 496      0.612700
      3 N3          0.4250   -1.3950   -2.3560 n4        1 496     -0.755400
      4 C4          2.6990   -0.8090   -1.4860 cc        1 496     -0.323600
      5 C5          2.8140    0.5380   -1.9600 cc        1 496     -0.054300
      6 C6          1.6960    1.4340   -2.3290 c3        1 496     -0.027100
      7 C10         2.1430    2.8850   -2.4150 c3        1 496     -0.075400
      8 C9          3.4550    3.0210   -3.1570 c3        1 496     -0.076400
      9 C8          4.5730    2.2790   -2.4450 c3        1 496     -0.013100
     10 C7          4.1370    0.9360   -2.0120 cd        1 496     -0.138400
     11 S11         5.1890   -0.2570   -1.5080 ss        1 496      0.259200
     12 C12         3.9750   -1.3640   -1.1810 cd        1 496      0.101500
     13 N13         4.1550   -2.6430   -0.6990 n         1 496     -0.434100
     14 C14         5.2330   -3.4610   -1.0650 c         1 496      0.649100
     15 O15         6.3060   -2.9920   -1.4610 o         1 496     -0.522100
     16 C16         5.0180   -4.9760   -0.9230 c3        1 496     -0.015700
     17 N17         4.0340   -5.4850   -1.8580 na        1 496      0.095400
     18 C24         4.2430   -6.5770   -2.7170 cc        1 496     -0.079300
     19 C25         3.0680   -6.7230   -3.4730 cd        1 496     -0.186600
     20 C26         2.7860   -7.7390   -4.5040 c3        1 496      0.199700
     21 O29         3.9810   -8.4770   -4.7250 oh        1 496     -0.601800
     22 C19         2.2040   -5.6610   -3.0080 cd        1 496      0.225600
     23 N18         2.8260   -4.9370   -2.0290 nc        1 496     -0.515800
     24 C20         0.8000   -5.3330   -3.4630 c3        1 496      0.641600
     25 F21         0.4450   -5.8700   -4.6700 f         1 496     -0.239633
     26 F22        -0.1850   -5.7210   -2.5930 f         1 496     -0.239633
     27 F23         0.5640   -3.9800   -3.6230 f         1 496     -0.239633
     28 H1         -0.3110   -2.1010   -2.2230 hn        1 496      0.467133
     29 H2          0.8480   -1.5350   -3.2800 hn        1 496      0.467133
     30 H3          0.8690    1.3590   -1.5710 hc        1 496      0.038700
     31 H4          1.2900    1.1220   -3.3320 hc        1 496      0.038700
     32 H5          1.3490    3.4810   -2.9370 hc        1 496      0.062700
     33 H6          2.2540    3.3010   -1.3790 hc        1 496      0.062700
     34 H7          3.3430    2.6230   -4.2000 hc        1 496      0.060700
     35 H8          3.7290    4.1060   -3.2380 hc        1 496      0.060700
     36 H9          4.8950    2.8690   -1.5420 hc        1 496      0.071700
     37 H10         5.4620    2.2000   -3.1270 hc        1 496      0.071700
     38 H11         3.3480   -3.0870   -0.3010 hn        1 496      0.355500
     39 H12         6.0030   -5.4820   -1.1390 h1        1 496      0.115200
     40 H13         4.7000   -5.2160    0.1340 h1        1 496      0.115200
     41 H14         5.1670   -7.1600   -2.7390 h4        1 496      0.218000
     42 H15         1.9670   -8.4270   -4.1510 h1        1 496      0.052700
     43 H16         2.4570   -7.2410   -5.4580 h1        1 496      0.052700
     44 H17         3.7660   -9.1550   -5.3770 ho        1 496      0.423000
     45 H33         0.0200   -0.4570   -2.3080 hn        1 496      0.467133
@<TRIPOS>BOND
     1    1    2 2   
     2    2    3 1   
     3    2    4 1   
     4    3   28 1   
     5    3   29 1   
     6    3   45 1   
     7    4    5 1   
     8    4   12 2   
     9    5    6 1   
    10    5   10 2   
    11    6    7 1   
    12    6   30 1   
    13    6   31 1   
    14    7    8 1   
    15    7   32 1   
    16    7   33 1   
    17    8    9 1   
    18    8   34 1   
    19    8   35 1   
    20    9   10 1   
    21    9   36 1   
    22    9   37 1   
    23   10   11 1   
    24   11   12 1   
    25   12   13 1   
    26   13   14 1   
    27   13   38 1   
    28   14   15 2   
    29   14   16 1   
    30   16   17 1   
    31   16   39 1   
    32   16   40 1   
    33   17   18 1   
    34   17   23 1   
    35   18   19 2   
    36   18   41 1   
    37   19   20 1   
    38   19   22 1   
    39   20   21 1   
    40   20   42 1   
    41   20   43 1   
    42   21   44 1   
    43   22   23 2   
    44   22   24 1   
    45   24   25 1   
    46   24   26 1   
    47   24   27 1   
@<TRIPOS>SUBSTRUCTURE
     1 496         1 TEMP              0 ****  ****    0 ROOT
