@<TRIPOS>MOLECULE
497
   53    56     1     0     0
SMALL
bcc


@<TRIPOS>ATOM
      1 C47         0.1510    0.2010   -0.3140 c3        1 497     -0.097100
      2 C45         1.6410    0.0180   -0.1760 c3        1 497     -0.075400
      3 C39         2.0970    0.0330    1.2790 c3        1 497     -0.021400
      4 C38         1.3550   -1.0750    2.0460 c3        1 497      0.164800
      5 N37         1.9250   -1.3500    3.3470 n7        1 497     -0.816200
      6 C36         3.3100   -1.7700    3.2890 c3        1 497      0.205100
      7 C26         4.1530   -0.9430    2.3670 ca        1 497     -0.082300
      8 C27         3.5850   -0.0890    1.4090 ca        1 497     -0.030300
      9 C28         4.4220    0.6920    0.6090 ca        1 497     -0.172000
     10 C22         5.8280    0.6090    0.7270 ca        1 497      0.042600
     11 N21         6.6160    1.4450   -0.0930 ns        1 497     -0.455100
     12 C20         7.9620    1.3000   -0.3580 c         1 497      0.667700
     13 O23         8.6820    0.4050    0.1200 o         1 497     -0.570100
     14 C11         8.5620    2.3110   -1.2950 ca        1 497     -0.105600
     15 C12         8.2760    3.6920   -1.1640 ca        1 497     -0.087000
     16 C13         8.8770    4.6050   -1.9990 ca        1 497     -0.115000
     17 C4          9.7900    4.1750   -2.9990 ca        1 497     -0.041000
     18 C5         10.4300    5.1000   -3.8660 ca        1 497     -0.044000
     19 C6         11.3220    4.6500   -4.8170 ca        1 497     -0.263900
     20 C1         11.6050    3.2640   -4.9570 ca        1 497     -0.146000
     21 C2         10.9910    2.3570   -4.1310 ca        1 497     -0.067000
     22 C3         10.0760    2.7890   -3.1290 ca        1 497     -0.020000
     23 C10         9.4480    1.8660   -2.2540 ca        1 497     -0.069000
     24 C17        11.9730    5.6090   -5.7310 ce        1 497      0.594800
     25 N18        13.4640    5.6620   -5.4990 nz        1 497     -0.825600
     26 N19        11.5120    6.3700   -6.6460 n2        1 497     -0.714100
     27 C24         6.3840   -0.2740    1.6730 ca        1 497     -0.142000
     28 C25         5.5430   -1.0300    2.4810 ca        1 497     -0.106000
     29 H471       -0.1190    0.3500   -1.3880 hc        1 497      0.037700
     30 H472       -0.4000   -0.6950    0.0620 hc        1 497      0.037700
     31 H473       -0.1950    1.0930    0.2640 hc        1 497      0.037700
     32 H451        2.1550    0.8420   -0.7360 hc        1 497      0.040700
     33 H452        1.9490   -0.9500   -0.6530 hc        1 497      0.040700
     34 H39         1.8080    1.0250    1.7340 hc        1 497      0.071700
     35 H381        1.3230   -1.9970    1.3930 h1        1 497      0.035700
     36 H382        0.2920   -0.7370    2.2100 h1        1 497      0.035700
     37 H37         1.3770   -2.0420    3.8250 hn        1 497      0.371800
     38 H361        3.4190   -2.8520    2.9700 h1        1 497      0.044200
     39 H362        3.7210   -1.6870    4.3380 h1        1 497      0.044200
     40 H28         3.9730    1.3900   -0.1150 ha        1 497      0.129000
     41 H21         6.1170    2.1390   -0.6050 hn        1 497      0.317500
     42 H12         7.5840    4.0350   -0.3770 ha        1 497      0.162000
     43 H13         8.6620    5.6810   -1.9000 ha        1 497      0.150000
     44 H5         10.1970    6.1720   -3.7580 ha        1 497      0.150000
     45 H1         12.2890    2.9210   -5.7470 ha        1 497      0.136000
     46 H2         11.1940    1.2780   -4.2310 ha        1 497      0.166000
     47 H10         9.6850    0.7900   -2.3350 ha        1 497      0.174000
     48 H181       13.6290    6.0490   -4.5640 hn        1 497      0.470467
     49 H182       13.9470    6.2380   -6.1990 hn        1 497      0.470467
     50 H19        10.5300    6.3510   -6.8340 hn        1 497      0.490400
     51 H24         7.4760   -0.3720    1.7850 ha        1 497      0.168000
     52 H25         5.9840   -1.7080    3.2290 ha        1 497      0.141000
     53 H183       13.8230    4.7010   -5.5330 hn        1 497      0.470467
@<TRIPOS>BOND
     1    1    2 1   
     2    1   29 1   
     3    1   30 1   
     4    1   31 1   
     5    2    3 1   
     6    2   32 1   
     7    2   33 1   
     8    3    4 1   
     9    3    8 1   
    10    3   34 1   
    11    4    5 1   
    12    4   35 1   
    13    4   36 1   
    14    5    6 1   
    15    5   37 1   
    16    6    7 1   
    17    6   38 1   
    18    6   39 1   
    19    7    8 ar  
    20    7   28 ar  
    21    8    9 ar  
    22    9   10 ar  
    23    9   40 1   
    24   10   11 1   
    25   10   27 ar  
    26   11   12 1   
    27   11   41 1   
    28   12   13 2   
    29   12   14 1   
    30   14   15 ar  
    31   14   23 ar  
    32   15   16 ar  
    33   15   42 1   
    34   16   17 ar  
    35   16   43 1   
    36   17   18 ar  
    37   17   22 ar  
    38   18   19 ar  
    39   18   44 1   
    40   19   20 ar  
    41   19   24 1   
    42   20   21 ar  
    43   20   45 1   
    44   21   22 ar  
    45   21   46 1   
    46   22   23 ar  
    47   23   47 1   
    48   24   25 1   
    49   24   26 2   
    50   25   48 1   
    51   25   49 1   
    52   25   53 1   
    53   26   50 1   
    54   27   28 ar  
    55   27   51 1   
    56   28   52 1   
@<TRIPOS>SUBSTRUCTURE
     1 497         1 TEMP              0 ****  ****    0 ROOT
