@<TRIPOS>MOLECULE
497
   52    55     1     0     0
SMALL
bcc


@<TRIPOS>ATOM
      1 C47         3.4030    1.2020    6.1080 c3        1 497     -0.095100
      2 C45         2.2380    1.0590    5.1620 c3        1 497     -0.076400
      3 C39         1.2340    0.0080    5.6240 c3        1 497     -0.018400
      4 C38         0.7580    0.3610    7.0440 c3        1 497      0.165800
      5 N37        -0.3830   -0.4150    7.4760 n3        1 497     -0.816200
      6 C36        -1.5410   -0.2740    6.6160 c3        1 497      0.209100
      7 C26        -1.2230   -0.2830    5.1520 ca        1 497     -0.101300
      8 C27         0.0880   -0.1430    4.6720 ca        1 497     -0.032300
      9 C28         0.3210   -0.1990    3.2960 ca        1 497     -0.183000
     10 C22        -0.7430   -0.3610    2.3780 ca        1 497      0.066600
     11 N21        -0.4350   -0.4210    1.0080 n         1 497     -0.467100
     12 C20        -1.3230   -0.3560   -0.0570 c         1 497      0.679700
     13 O23        -2.5530   -0.2360    0.0850 o         1 497     -0.584100
     14 C11        -0.7080   -0.4220   -1.4190 ca        1 497     -0.144600
     15 C12         0.3180   -1.3560   -1.7140 ca        1 497     -0.114000
     16 C13         0.8570   -1.4120   -2.9750 ca        1 497     -0.113000
     17 C4          0.4000   -0.5370   -3.9990 ca        1 497     -0.029000
     18 C5          0.9520   -0.5750   -5.3090 ca        1 497     -0.070000
     19 C6          0.4810    0.2770   -6.2820 ca        1 497     -0.125900
     20 C1         -0.5490    1.2080   -5.9890 ca        1 497     -0.122000
     21 C2         -1.0910    1.2630   -4.7300 ca        1 497     -0.109000
     22 C3         -0.6320    0.3900   -3.7060 ca        1 497     -0.042000
     23 C10        -1.1820    0.4260   -2.3970 ca        1 497     -0.058000
     24 C17         1.0610    0.2390   -7.6650 ce        1 497      0.652800
     25 N18         0.1130    0.0180   -8.6830 nh        1 497     -0.961800
     26 N19         2.3500    0.3360   -7.7930 n2        1 497     -0.828100
     27 C24        -2.0570   -0.4770    2.8770 ca        1 497     -0.151000
     28 C25        -2.2770   -0.4420    4.2480 ca        1 497     -0.105000
     29 H471        4.1950    1.8410    5.6450 hc        1 497      0.034700
     30 H472        3.0860    1.6820    7.0650 hc        1 497      0.034700
     31 H473        3.8470    0.2050    6.3450 hc        1 497      0.034700
     32 H451        1.7180    2.0460    5.0490 hc        1 497      0.043200
     33 H452        2.6330    0.7740    4.1510 hc        1 497      0.043200
     34 H39         1.7590   -0.9910    5.6710 hc        1 497      0.069700
     35 H381        1.6000    0.1450    7.7620 h1        1 497      0.031700
     36 H382        0.5550    1.4730    7.0800 h1        1 497      0.031700
     37 H37        -0.6290   -0.1670    8.4170 hn        1 497      0.363800
     38 H361       -2.2250   -1.1410    6.8480 h1        1 497      0.038700
     39 H362       -2.1180    0.6770    6.8310 h1        1 497      0.038700
     40 H28         1.3550   -0.1240    2.9240 ha        1 497      0.129000
     41 H21         0.5370   -0.4390    0.7850 hn        1 497      0.319500
     42 H12         0.6640   -2.0520   -0.9340 ha        1 497      0.140000
     43 H13         1.6500   -2.1370   -3.2160 ha        1 497      0.142000
     44 H5          1.7620   -1.2890   -5.5260 ha        1 497      0.155000
     45 H1         -0.8970    1.8970   -6.7740 ha        1 497      0.133000
     46 H2         -1.8880    1.9840   -4.4900 ha        1 497      0.140000
     47 H10        -1.9970    1.1330   -2.1720 ha        1 497      0.156000
     48 H181        0.3610    0.2940   -9.6040 hn        1 497      0.402300
     49 H182       -0.8360    0.1780   -8.4410 hn        1 497      0.402300
     50 H19         2.7090    0.3090   -8.7230 hn        1 497      0.384400
     51 H24        -2.9130   -0.5980    2.1930 ha        1 497      0.172000
     52 H25        -3.3050   -0.5470    4.6280 ha        1 497      0.134000
@<TRIPOS>BOND
     1    1    2 1   
     2    1   29 1   
     3    1   30 1   
     4    1   31 1   
     5    2    3 1   
     6    2   32 1   
     7    2   33 1   
     8    3    4 1   
     9    3    8 1   
    10    3   34 1   
    11    4    5 1   
    12    4   35 1   
    13    4   36 1   
    14    5    6 1   
    15    5   37 1   
    16    6    7 1   
    17    6   38 1   
    18    6   39 1   
    19    7    8 ar  
    20    7   28 ar  
    21    8    9 ar  
    22    9   10 ar  
    23    9   40 1   
    24   10   11 1   
    25   10   27 ar  
    26   11   12 1   
    27   11   41 1   
    28   12   13 2   
    29   12   14 1   
    30   14   15 ar  
    31   14   23 ar  
    32   15   16 ar  
    33   15   42 1   
    34   16   17 ar  
    35   16   43 1   
    36   17   18 ar  
    37   17   22 ar  
    38   18   19 ar  
    39   18   44 1   
    40   19   20 ar  
    41   19   24 1   
    42   20   21 ar  
    43   20   45 1   
    44   21   22 ar  
    45   21   46 1   
    46   22   23 ar  
    47   23   47 1   
    48   24   25 1   
    49   24   26 2   
    50   25   48 1   
    51   25   49 1   
    52   26   50 1   
    53   27   28 ar  
    54   27   51 1   
    55   28   52 1   
@<TRIPOS>SUBSTRUCTURE
     1 497         1 TEMP              0 ****  ****    0 ROOT
