@<TRIPOS>MOLECULE
497
   54    57     1     0     0
SMALL
bcc


@<TRIPOS>ATOM
      1 C47         1.0870   -1.4690   -0.7800 c3        1 497     -0.101100
      2 C45         2.3920   -0.7570   -0.5220 c3        1 497     -0.074400
      3 C39         2.6660   -0.5900    0.9690 c3        1 497     -0.034400
      4 C38         2.7580   -1.9820    1.6240 c3        1 497      0.162800
      5 N37         3.3770   -1.9480    2.9300 n3        1 497     -0.822200
      6 C36         4.7360   -1.4570    2.9020 c3        1 497      0.194100
      7 C26         4.8670   -0.1660    2.1480 ca        1 497     -0.004300
      8 C27         3.8820    0.2450    1.2290 ca        1 497     -0.022300
      9 C28         4.0160    1.4880    0.6010 ca        1 497     -0.099000
     10 C22         5.1390    2.2900    0.8640 ca        1 497     -0.081400
     11 N21         5.2340    3.6180    0.2430 n4        1 497     -0.531200
     12 C20         5.5430    3.5260   -1.2370 c         1 497      0.565700
     13 O23         4.5930    3.2630   -1.9610 o         1 497     -0.400100
     14 C11         6.9340    3.7560   -1.6590 ca        1 497     -0.158600
     15 C12         7.7490    4.7520   -1.0550 ca        1 497     -0.107000
     16 C13         9.0140    4.9880   -1.5340 ca        1 497     -0.082000
     17 C4          9.5240    4.2490   -2.6380 ca        1 497     -0.017000
     18 C5         10.8160    4.5100   -3.1720 ca        1 497     -0.057000
     19 C6         11.2660    3.7990   -4.2650 ca        1 497     -0.222900
     20 C1         10.4600    2.7930   -4.8620 ca        1 497     -0.122000
     21 C2          9.2110    2.5250   -4.3570 ca        1 497     -0.066000
     22 C3          8.7130    3.2520   -3.2390 ca        1 497     -0.032000
     23 C10         7.4060    3.0200   -2.7310 ca        1 497     -0.014000
     24 C17        12.5720    4.1350   -4.8790 ce        1 497      0.574800
     25 N18        13.5710    3.0150   -4.7560 n4        1 497     -0.821600
     26 N19        12.9700    5.1860   -5.4830 n2        1 497     -0.684100
     27 C24         6.1430    1.8620    1.7490 ca        1 497     -0.108000
     28 C25         5.9900    0.6370    2.3850 ca        1 497     -0.111000
     29 H471        0.8610   -1.4640   -1.8740 hc        1 497      0.049033
     30 H472        1.1370   -2.5320   -0.4400 hc        1 497      0.049033
     31 H473        0.2460   -0.9660   -0.2440 hc        1 497      0.049033
     32 H451        3.2330   -1.3280   -0.9970 hc        1 497      0.038200
     33 H452        2.3550    0.2500   -1.0130 hc        1 497      0.038200
     34 H39         1.7920   -0.0450    1.4360 hc        1 497      0.090700
     35 H381        1.7090   -2.3750    1.7550 h1        1 497      0.052700
     36 H382        3.2990   -2.6750    0.9140 h1        1 497      0.052700
     37 H37         3.3320   -2.8450    3.3770 hn        1 497      0.397800
     38 H361        5.4640   -2.1900    2.4360 h1        1 497      0.063700
     39 H362        5.0570   -1.2950    3.9730 h1        1 497      0.063700
     40 H28         3.2290    1.8350   -0.0920 ha        1 497      0.166000
     41 H21         4.3230    4.0870    0.3610 hn        1 497      0.465300
     42 H12         7.3670    5.3710   -0.2280 ha        1 497      0.148000
     43 H13         9.6470    5.7680   -1.0760 ha        1 497      0.171000
     44 H5         11.4320    5.2960   -2.7020 ha        1 497      0.164000
     45 H1         10.8230    2.2510   -5.7500 ha        1 497      0.155000
     46 H2          8.5730    1.7530   -4.8210 ha        1 497      0.175000
     47 H10         6.7700    2.2570   -3.2160 ha        1 497      0.179000
     48 H181       13.7960    2.8830   -3.7640 hn        1 497      0.475800
     49 H182       13.1440    2.1580   -5.1250 hn        1 497      0.475800
     50 H19        12.3440    5.9550   -5.6020 hn        1 497      0.497400
     51 H24         7.0300    2.4790    1.9630 ha        1 497      0.146000
     52 H25         6.7590    0.2990    3.1020 ha        1 497      0.169000
     53 H212        5.9580    4.1610    0.7250 hn        1 497      0.465300
     54 H183       14.4380    3.2160   -5.2750 hn        1 497      0.475800
@<TRIPOS>BOND
     1    1    2 1   
     2    1   29 1   
     3    1   30 1   
     4    1   31 1   
     5    2    3 1   
     6    2   32 1   
     7    2   33 1   
     8    3    4 1   
     9    3    8 1   
    10    3   34 1   
    11    4    5 1   
    12    4   35 1   
    13    4   36 1   
    14    5    6 1   
    15    5   37 1   
    16    6    7 1   
    17    6   38 1   
    18    6   39 1   
    19    7    8 ar  
    20    7   28 ar  
    21    8    9 ar  
    22    9   10 ar  
    23    9   40 1   
    24   10   11 1   
    25   10   27 ar  
    26   11   12 1   
    27   11   41 1   
    28   11   53 1   
    29   12   13 2   
    30   12   14 1   
    31   14   15 ar  
    32   14   23 ar  
    33   15   16 ar  
    34   15   42 1   
    35   16   17 ar  
    36   16   43 1   
    37   17   18 ar  
    38   17   22 ar  
    39   18   19 ar  
    40   18   44 1   
    41   19   20 ar  
    42   19   24 1   
    43   20   21 ar  
    44   20   45 1   
    45   21   22 ar  
    46   21   46 1   
    47   22   23 ar  
    48   23   47 1   
    49   24   25 1   
    50   24   26 2   
    51   25   48 1   
    52   25   49 1   
    53   25   54 1   
    54   26   50 1   
    55   27   28 ar  
    56   27   51 1   
    57   28   52 1   
@<TRIPOS>SUBSTRUCTURE
     1 497         1 TEMP              0 ****  ****    0 ROOT
