@<TRIPOS>MOLECULE
497
   52    50     1     0     0
SMALL
bcc


@<TRIPOS>ATOM
      1 C47        -5.4890   -2.9250   -0.4760 c3        1 497     -0.214000
      2 C45        -4.0960   -3.5130   -0.3850 c3        1 497     -0.155000
      3 C39        -3.6280   -3.5190    1.1100 c3        1 497     -0.065000
      4 C38        -4.0660   -4.7520    1.7070 c3        1 497     -0.071000
      5 N37        -3.3660   -5.1930    2.8310 n3        1 497     -0.295000
      6 C36        -1.9830   -5.2970    2.7360 c3        1 497     -0.035000
      7 C26        -1.2410   -4.1650    1.8700 c2        1 497     -0.093000
      8 C27        -2.0670   -3.2410    1.1350 c2        1 497     -0.025000
      9 C28        -1.4870   -2.1690    0.4740 c2        1 497     -0.182000
     10 C22        -0.0970   -1.9850    0.5210 c1        1 497      0.073000
     11 N21         0.4980   -0.8860   -0.1570 n2        1 497     -0.322000
     12 C20         1.4270   -0.0500    0.5210 c2        1 497      0.351000
     13 O23         1.7130   -0.2750    1.6800 o         1 497     -0.340000
     14 C11         2.0230    1.1530   -0.1870 c2        1 497     -0.113000
     15 C12         3.3190    1.0590   -0.6860 c2        1 497     -0.089000
     16 C13         3.9680    2.1960   -1.1520 c1        1 497     -0.116000
     17 C4          3.3150    3.4420   -1.1210 c1        1 497     -0.031000
     18 C5          3.9620    4.5900   -1.6190 c2        1 497     -0.080000
     19 C6          3.3060    5.8150   -1.6140 c1        1 497     -0.105000
     20 C1          2.0090    5.9090   -1.1150 c1        1 497     -0.115500
     21 C2          1.3700    4.7760   -0.6230 c1        1 497     -0.115500
     22 C3          2.0340    3.5340   -0.6280 c1        1 497     -0.040000
     23 C10         1.3770    2.3810   -0.1560 c2        1 497     -0.090000
     24 C17         3.9780    7.0510   -2.1770 c2        1 497      0.113000
     25 N18         3.8550    7.3590   -3.5580 n3        1 497     -0.331000
     26 N19         4.6710    7.8340   -1.3920 n1        1 497     -0.298000
     27 C24         0.7160   -2.8950    1.2450 c2        1 497     -0.150000
     28 C25         0.1320   -3.9800    1.9150 c2        1 497     -0.105000
     29 H471       -6.1420   -3.5760   -0.1380 hc        1 497      0.074000
     30 H472       -5.6930   -2.7120   -1.4110 hc        1 497      0.074000
     31 H473       -5.5340   -2.1070    0.0630 hc        1 497      0.074000
     32 H451       -3.4790   -2.9730   -0.9180 hc        1 497      0.082500
     33 H452       -4.1060   -4.4280   -0.7270 hc        1 497      0.082500
     34 H39        -4.0750   -2.7830    1.5730 hc        1 497      0.109000
     35 H381       -4.0120   -5.4530    1.0250 h1        1 497      0.071000
     36 H382       -5.0070   -4.6470    1.9600 h1        1 497      0.071000
     37 H37        -3.7140   -5.9920    3.1140 hn        1 497      0.160000
     38 H361       -1.7810   -6.1630    2.3220 h1        1 497      0.078500
     39 H362       -1.6220   -5.2550    3.6460 h1        1 497      0.078500
     40 H28        -2.0470   -1.5360   -0.0160 ha        1 497      0.128000
     41 H21         0.3000   -0.7300   -1.0330 hn        1 497      0.231000
     42 H12         3.7760    0.1970   -0.6990 ha        1 497      0.158000
     43 H13         4.8780    2.1300   -1.5020 ha        1 497      0.144000
     44 H5          4.8720    4.5250   -1.9690 ha        1 497      0.154000
     45 H1          1.5490    6.7690   -1.1110 ha        1 497      0.140500
     46 H2          0.4600    4.8420   -0.2730 ha        1 497      0.140500
     47 H10         0.4760    2.4500    0.2130 ha        1 497      0.141000
     48 H181        4.3460    8.0420   -3.9200 hn        1 497      0.194000
     49 H182        3.2770    6.8830   -4.0830 hn        1 497      0.194000
     50 H19         4.7500    7.6360   -0.5040 DU        1 497      0.152000
     51 H24         1.6840   -2.7650    1.2770 ha        1 497      0.172000
     52 H25         0.6920   -4.6050    2.4120 ha        1 497      0.135000
@<TRIPOS>BOND
     1    1    2 1   
     2    1   29 1   
     3    1   30 1   
     4    1   31 1   
     5    2    3 1   
     6    2   32 1   
     7    2   33 1   
     8    3    4 1   
     9    3    8 1   
    10    3   34 1   
    11    4    5 1   
    12    4   35 1   
    13    4   36 1   
    14    5    6 1   
    15    5   37 1   
    16    6    7 1   
    17    6   38 1   
    18    6   39 1   
    19    7    8 1   
    20    7   28 1   
    21    8    9 1   
    22    9   10 1   
    23    9   40 1   
    24   10   27 1   
    25   11   12 1   
    26   11   41 1   
    27   12   13 1   
    28   12   14 1   
    29   14   15 1   
    30   14   23 1   
    31   15   16 1   
    32   15   42 1   
    33   16   43 1   
    34   17   18 1   
    35   17   22 1   
    36   18   19 1   
    37   18   44 1   
    38   19   24 1   
    39   20   21 1   
    40   20   45 1   
    41   21   46 1   
    42   22   23 1   
    43   23   47 1   
    44   24   25 1   
    45   24   26 1   
    46   25   48 1   
    47   25   49 1   
    48   27   28 1   
    49   27   51 1   
    50   28   52 1   
@<TRIPOS>SUBSTRUCTURE
     1 497         1 TEMP              0 ****  ****    0 ROOT
