@<TRIPOS>MOLECULE
497
   53    56     1     0     0
SMALL
bcc


@<TRIPOS>ATOM
      1 C47         0.1620    0.1440   -0.3340 c3        1 497     -0.097100
      2 C45         1.6530   -0.0230   -0.1840 c3        1 497     -0.075400
      3 C39         2.0990    0.0210    1.2740 c3        1 497     -0.021400
      4 C38         1.3630   -1.0830    2.0540 c3        1 497      0.164800
      5 N37         1.9270   -1.3310    3.3630 n3        1 497     -0.816200
      6 C36         3.3170   -1.7380    3.3210 c3        1 497      0.205100
      7 C26         4.1580   -0.9170    2.3910 ca        1 497     -0.082300
      8 C27         3.5870   -0.0840    1.4150 ca        1 497     -0.030300
      9 C28         4.4210    0.6930    0.6090 ca        1 497     -0.172000
     10 C22         5.8270    0.6270    0.7380 ca        1 497      0.042600
     11 N21         6.6120    1.4580   -0.0910 n         1 497     -0.455100
     12 C20         7.9620    1.3250   -0.3430 c         1 497      0.667700
     13 O23         8.6890    0.4480    0.1570 o         1 497     -0.570100
     14 C11         8.5570    2.3270   -1.2920 ca        1 497     -0.105600
     15 C12         8.2520    3.7070   -1.1880 ca        1 497     -0.087000
     16 C13         8.8480    4.6130   -2.0340 ca        1 497     -0.115000
     17 C4          9.7750    4.1770   -3.0180 ca        1 497     -0.041000
     18 C5         10.4110    5.0950   -3.8960 ca        1 497     -0.044000
     19 C6         11.3170    4.6400   -4.8310 ca        1 497     -0.263900
     20 C1         11.6190    3.2560   -4.9440 ca        1 497     -0.146000
     21 C2         11.0100    2.3560   -4.1080 ca        1 497     -0.067000
     22 C3         10.0810    2.7930   -3.1220 ca        1 497     -0.021000
     23 C10         9.4570    1.8770   -2.2360 ca        1 497     -0.069000
     24 C17        11.9630    5.5910   -5.7570 ce        1 497      0.594800
     25 N18        13.4510    5.6680   -5.5130 n4        1 497     -0.825600
     26 N19        11.5010    6.3290   -6.6890 n2        1 497     -0.714100
     27 C24         6.3860   -0.2340    1.7020 ca        1 497     -0.142000
     28 C25         5.5470   -0.9870    2.5150 ca        1 497     -0.106000
     29 H471       -0.1960    1.0410    0.2270 hc        1 497      0.037700
     30 H472       -0.1020    0.2720   -1.4120 hc        1 497      0.037700
     31 H473       -0.3820   -0.7520    0.0520 hc        1 497      0.037700
     32 H451        2.1630    0.7980   -0.7540 hc        1 497      0.040700
     33 H452        1.9740   -0.9950   -0.6430 hc        1 497      0.040700
     34 H39         1.7960    1.0170    1.7110 hc        1 497      0.071700
     35 H381        0.2960   -0.7540    2.2060 h1        1 497      0.035700
     36 H382        1.3460   -2.0160    1.4150 h1        1 497      0.035700
     37 H37         1.3840   -2.0210    3.8480 hn        1 497      0.371800
     38 H361        3.4390   -2.8230    3.0190 h1        1 497      0.044200
     39 H362        3.7200   -1.6330    4.3710 h1        1 497      0.044200
     40 H28         3.9700    1.3740   -0.1290 ha        1 497      0.129000
     41 H21         6.1080    2.1370   -0.6180 hn        1 497      0.317500
     42 H12         7.5490    4.0550   -0.4130 ha        1 497      0.162000
     43 H13         8.6180    5.6870   -1.9550 ha        1 497      0.150000
     44 H5         10.1630    6.1650   -3.8090 ha        1 497      0.150000
     45 H1         12.3140    2.9080   -5.7230 ha        1 497      0.136000
     46 H2         11.2280    1.2770   -4.1870 ha        1 497      0.166000
     47 H10         9.7080    0.8040   -2.2960 ha        1 497      0.174000
     48 H181       13.8230    4.7120   -5.5260 hn        1 497      0.470467
     49 H182       13.6030    6.0740   -4.5840 hn        1 497      0.470467
     50 H19        10.5210    6.2940   -6.8860 hn        1 497      0.490400
     51 H24         7.4780   -0.3200    1.8220 ha        1 497      0.168000
     52 H25         5.9910   -1.6480    3.2770 ha        1 497      0.141000
     53 H183       13.9330    6.2380   -6.2190 hn        1 497      0.470467
@<TRIPOS>BOND
     1    1    2 1   
     2    1   29 1   
     3    1   30 1   
     4    1   31 1   
     5    2    3 1   
     6    2   32 1   
     7    2   33 1   
     8    3    4 1   
     9    3    8 1   
    10    3   34 1   
    11    4    5 1   
    12    4   35 1   
    13    4   36 1   
    14    5    6 1   
    15    5   37 1   
    16    6    7 1   
    17    6   38 1   
    18    6   39 1   
    19    7    8 ar  
    20    7   28 ar  
    21    8    9 ar  
    22    9   10 ar  
    23    9   40 1   
    24   10   11 1   
    25   10   27 ar  
    26   11   12 1   
    27   11   41 1   
    28   12   13 2   
    29   12   14 1   
    30   14   15 ar  
    31   14   23 ar  
    32   15   16 ar  
    33   15   42 1   
    34   16   17 ar  
    35   16   43 1   
    36   17   18 ar  
    37   17   22 ar  
    38   18   19 ar  
    39   18   44 1   
    40   19   20 ar  
    41   19   24 1   
    42   20   21 ar  
    43   20   45 1   
    44   21   22 ar  
    45   21   46 1   
    46   22   23 ar  
    47   23   47 1   
    48   24   25 1   
    49   24   26 2   
    50   25   48 1   
    51   25   49 1   
    52   25   53 1   
    53   26   50 1   
    54   27   28 ar  
    55   27   51 1   
    56   28   52 1   
@<TRIPOS>SUBSTRUCTURE
     1 497         1 TEMP              0 ****  ****    0 ROOT
