@<TRIPOS>MOLECULE
499
   36    37     1     0     0
SMALL
bcc


@<TRIPOS>ATOM
      1 C1          0.7340    0.1670   -0.2090 c2        1 499     -0.008000
      2 C2         -0.3930   -0.6000   -0.6240 c2        1 499     -0.081000
      3 C3         -0.2560   -1.8990   -1.4110 c3        1 499     -0.101000
      4 C11        -8.4670    0.1420    0.2980 c2        1 499     -0.227000
      5 C12        -9.5980    0.8040   -0.0230 c2        1 499     -0.099000
      6 C13       -10.4450    1.3300    1.0410 c2        1 499     -0.174000
      7 C14        -9.8690    2.0670    2.0280 c2        1 499      0.012000
      8 C15        -8.4720    2.2060    2.0010 c1        1 499     -0.217000
      9 C16        -7.3190    2.0920    1.6620 c1        1 499     -0.057000
     10 C           2.8860    0.6690   -0.0380 c2        1 499      0.088000
     11 O           2.0170   -0.2870   -0.6130 os        1 499     -0.158000
     12 N2          0.8700    1.2900    0.5250 n2        1 499     -0.029000
     13 N1          2.1430    1.6070    0.6350 n2        1 499     -0.134000
     14 C8         -1.7180   -0.3570   -0.4190 c2        1 499     -0.109000
     15 C4         -2.4420   -1.5050   -1.0760 c2        1 499      0.121000
     16 N3         -1.6160   -2.3820   -1.6410 n2        1 499     -0.151000
     17 C7         -3.6770    1.9000    1.0250 c1        1 499      0.159000
     18 C6         -4.8560    2.2950    1.4640 c2        1 499     -0.370000
     19 C5         -4.9920   -1.6800   -1.0680 c1        1 499      0.134000
     20 N4         -3.8140   -1.5990   -1.0700 n2        1 499     -0.253000
     21 C9         -6.1170    1.7020    1.0460 c2        1 499     -0.074000
     22 N5         -7.2490    0.0690   -0.4870 ny        1 499      0.056000
     23 C10        -6.0890    0.7650    0.0570 c1        1 499     -0.283000
     24 H1          0.2540   -1.7280   -2.3960 h1        1 499      0.146000
     25 H2         -8.3200   -0.2780    1.3150 hx        1 499      0.174000
     26 H3         -9.8530    1.1070   -1.0510 ha        1 499      0.136000
     27 H4        -11.5290    1.1780    0.9750 ha        1 499      0.146000
     28 H5        -10.4550    2.5610    2.8180 ha        1 499      0.148000
     29 H6          4.5100   -0.1220   -0.9170 hn        1 499      0.228000
     30 H7          4.8020    1.2670    0.0020 hn        1 499      0.228000
     31 H8          0.3220   -2.6680   -0.8300 h1        1 499      0.146000
     32 H9         -2.2150    0.4730    0.0990 ha        1 499      0.225000
     33 H10        -4.9260    3.1240    2.1950 ha        1 499      0.185000
     34 H11        -7.4000    0.4380   -1.4310 hn        1 499      0.242000
     35 H12        -6.9340   -0.9140   -0.5730 hn        1 499      0.242000
     36 N           4.2400    0.4580   -0.1540 nv        1 499     -0.293000
@<TRIPOS>BOND
     1    1    2 1   
     2    1   11 1   
     3    1   12 1   
     4    2    3 1   
     5    2   14 1   
     6    3   16 1   
     7    3   24 1   
     8    3   31 1   
     9    4    5 1   
    10    4   22 1   
    11    4   25 1   
    12    5    6 1   
    13    5   26 1   
    14    6    7 1   
    15    6   27 1   
    16    7    8 1   
    17    7   28 1   
    18    8    9 1   
    19    9   21 1   
    20   10   11 1   
    21   10   13 1   
    22   10   36 1   
    23   12   13 1   
    24   14   15 1   
    25   14   32 1   
    26   15   16 1   
    27   15   20 1   
    28   17   18 1   
    29   18   21 1   
    30   18   33 1   
    31   19   20 1   
    32   21   23 1   
    33   22   23 1   
    34   22   34 1   
    35   22   35 1   
    36   29   36 1   
    37   30   36 1   
@<TRIPOS>SUBSTRUCTURE
     1 499         1 TEMP              0 ****  ****    0 ROOT
