@<TRIPOS>MOLECULE
49A
   38    35     1     0     0
SMALL
bcc


@<TRIPOS>ATOM
      1 C1         -3.7540    1.9020    0.8510 c1        1 49A      0.379000
      2 C2         -2.2410    1.9020    0.8510 c1        1 49A      0.010000
      3 C3         -1.3850    1.9020    2.3350 c1        1 49A     -0.318000
      4 C4         -0.3830    0.8470    2.4680 c2        1 49A     -0.015000
      5 C5          0.2890    0.4630    1.0210 c3        1 49A     -0.019000
      6 C6         -0.5490    0.2250    0.0760 c3        1 49A     -0.004000
      7 C7          0.2730   -0.0720   -1.2500 c3        1 49A      0.036000
      8 C8         -0.6470   -0.5990   -2.2980 c3        1 49A     -0.008000
      9 C9          0.1030   -0.7280   -3.6120 c3        1 49A     -0.126000
     10 C10         2.5120   -0.6390    1.5980 c1        1 49A      0.304000
     11 C11         3.3640   -1.8700    1.8120 c2        1 49A     -0.244000
     12 N5          1.1530   -0.7760    1.2130 n3        1 49A     -0.340000
     13 O1A        -4.3840    0.9920    1.4530 o         1 49A     -0.546500
     14 O1B        -4.3830    2.8170    0.2590 o         1 49A     -0.546500
     15 N4          0.6340    1.1870    3.4650 n3        1 49A     -0.348000
     16 O6         -1.5510    1.3750   -0.2220 os        1 49A     -0.221000
     17 O7          0.8610    1.0920   -1.6970 oh        1 49A     -0.353000
     18 O8         -1.1320   -1.8700   -1.9050 oh        1 49A     -0.343000
     19 N9         -0.7890   -1.1860   -4.6250 n3        1 49A     -0.355000
     20 O10         2.9850    0.4650    1.7730 o         1 49A     -0.379000
     21 H3         -1.7890    2.2940    3.1320 ha        1 49A      0.145000
     22 H4         -0.7810    0.0540    2.8750 h4        1 49A      0.090000
     23 H5          0.8630    1.2020    0.7440 h1        1 49A      0.149000
     24 H6         -1.0580   -0.5740    0.3100 h1        1 49A      0.112000
     25 H7          0.9650   -0.7340   -1.0620 h1        1 49A      0.112000
     26 H8         -1.3980    0.0150   -2.4110 h1        1 49A      0.118000
     27 H91         0.4650    0.1420   -3.8660 h1        1 49A      0.088000
     28 H92         0.8340   -1.3670   -3.5080 h1        1 49A      0.088000
     29 H111        4.2410   -1.6050    2.1500 ha        1 49A      0.097000
     30 H112        2.9300   -2.4580    2.4590 ha        1 49A      0.097000
     31 H113        3.4720   -2.3430    0.9640 ha        1 49A      0.097000
     32 HN5         0.7850   -1.6060    1.1290 hn        1 49A      0.205000
     33 HN41        0.7250    2.0930    3.5090 hn        1 49A      0.145000
     34 HN42        0.3800    0.8670    4.2800 hn        1 49A      0.145000
     35 HO7         1.7280    0.9540   -1.8270 ho        1 49A      0.264000
     36 HO8        -1.9760   -1.9580   -2.1640 ho        1 49A      0.204000
     37 HN91       -0.4140   -1.8930   -5.0640 hn        1 49A      0.139500
     38 HN92       -0.9490   -0.5120   -5.2180 hn        1 49A      0.139500
@<TRIPOS>BOND
     1    1   13 1   
     2    1   14 1   
     3    2    3 1   
     4    2   16 1   
     5    3   21 1   
     6    4    5 1   
     7    4   15 1   
     8    4   22 1   
     9    5    6 1   
    10    5   12 1   
    11    5   23 1   
    12    6    7 1   
    13    6   16 1   
    14    6   24 1   
    15    7    8 1   
    16    7   17 1   
    17    7   25 1   
    18    8    9 1   
    19    8   18 1   
    20    8   26 1   
    21    9   19 1   
    22    9   27 1   
    23    9   28 1   
    24   10   12 1   
    25   10   20 1   
    26   11   29 1   
    27   11   30 1   
    28   11   31 1   
    29   12   32 1   
    30   15   33 1   
    31   15   34 1   
    32   17   35 1   
    33   18   36 1   
    34   19   37 1   
    35   19   38 1   
@<TRIPOS>SUBSTRUCTURE
     1 49A         1 TEMP              0 ****  ****    0 ROOT
