@<TRIPOS>MOLECULE
49A
   38    38     1     0     0
SMALL
bcc


@<TRIPOS>ATOM
      1 C1         -2.6880    0.3820   -1.6610 c         1 49A      0.929800
      2 C2         -1.9260   -0.2340   -0.4850 ce        1 49A      0.037900
      3 C3         -2.2510   -0.1690    0.8180 c2        1 49A     -0.328200
      4 C4         -1.2930   -0.7220    1.8270 c3        1 49A      0.187700
      5 C5          0.1360   -0.2700    1.3700 c3        1 49A      0.052700
      6 C6          0.3910   -0.7280   -0.0860 c3        1 49A      0.106100
      7 C7          1.3060    0.2860   -0.8090 c3        1 49A      0.121100
      8 C8          1.8340   -0.3480   -2.1090 c3        1 49A      0.056100
      9 C9          2.5610    0.7040   -2.9670 c3        1 49A      0.119800
     10 C11         2.3600   -0.7850    4.4240 c3        1 49A     -0.177100
     11 N5          1.1890   -0.7430    2.2480 n         1 49A     -0.527900
     12 O1A        -3.9260    0.1920   -1.7300 o         1 49A     -0.807300
     13 O1B        -1.9940    1.0710   -2.4600 o         1 49A     -0.807300
     14 N4         -1.5480   -0.3830    3.2170 n3        1 49A     -0.916800
     15 O6         -0.7770   -0.8930   -0.8910 os        1 49A     -0.332900
     16 O7          0.6470    1.5000   -1.0720 oh        1 49A     -0.619800
     17 O8          2.7000   -1.4390   -1.8300 oh        1 49A     -0.608800
     18 N9          3.0900    0.2270   -4.2200 n3        1 49A     -0.901800
     19 O10         1.1300    1.1150    3.6230 o         1 49A     -0.610100
     20 H3         -3.1940    0.2790    1.1450 ha        1 49A      0.147000
     21 H4         -1.3370   -1.8530    1.7700 h1        1 49A      0.050700
     22 H5          0.1610    0.8640    1.3830 h1        1 49A      0.110700
     23 H6          0.8810   -1.7440   -0.1210 h1        1 49A      0.066700
     24 H7          2.1690    0.5590   -0.1390 h1        1 49A      0.057700
     25 H8          0.9730   -0.8090   -2.6740 h1        1 49A      0.109700
     26 H91         1.8390    1.5480   -3.1600 h1        1 49A      0.064700
     27 H92         3.4210    1.1150   -2.3670 h1        1 49A      0.064700
     28 H111        2.6420   -0.0730    5.2370 hc        1 49A      0.058033
     29 H112        1.7940   -1.6380    4.8690 hc        1 49A      0.058033
     30 H113        3.2890   -1.1730    3.9420 hc        1 49A      0.058033
     31 HN5         1.2800   -1.7340    2.2860 hn        1 49A      0.287500
     32 HN41       -1.2220    0.5460    3.4150 hn        1 49A      0.349800
     33 HN42       -2.5340   -0.4150    3.3910 hn        1 49A      0.349800
     34 HO7        -0.1760    1.3030   -1.5660 ho        1 49A      0.469000
     35 HO8         3.4240   -1.0940   -1.2940 ho        1 49A      0.387000
     36 HN91        3.5870   -0.6330   -4.0730 hn        1 49A      0.341300
     37 HN92        2.3440    0.0460   -4.8650 hn        1 49A      0.341300
     38 C10         1.4910   -0.0610    3.4210 c         1 49A      0.656100
@<TRIPOS>BOND
     1    1    2 1   
     2    1   12 1   
     3    1   13 1   
     4    2    3 2   
     5    2   15 1   
     6    3    4 1   
     7    3   20 1   
     8    4    5 1   
     9    4   14 1   
    10    4   21 1   
    11    5    6 1   
    12    5   11 1   
    13    5   22 1   
    14    6    7 1   
    15    6   15 1   
    16    6   23 1   
    17    7    8 1   
    18    7   16 1   
    19    7   24 1   
    20    8    9 1   
    21    8   17 1   
    22    8   25 1   
    23    9   18 1   
    24    9   26 1   
    25    9   27 1   
    26   10   28 1   
    27   10   29 1   
    28   10   30 1   
    29   10   38 1   
    30   11   31 1   
    31   11   38 1   
    32   14   32 1   
    33   14   33 1   
    34   16   34 1   
    35   17   35 1   
    36   18   36 1   
    37   18   37 1   
    38   19   38 2   
@<TRIPOS>SUBSTRUCTURE
     1 49A         1 TEMP              0 ****  ****    0 ROOT
