@<TRIPOS>MOLECULE
49A
   38    35     1     0     0
SMALL
bcc


@<TRIPOS>ATOM
      1 C1          1.6410   -1.0050   -1.5290 c         1 49A      0.920800
      2 C2          2.2210   -0.3450   -0.2890 ce        1 49A      0.019900
      3 C3          1.6290   -0.4020    0.9130 c2        1 49A     -0.279200
      4 C4          2.1220    0.2240    2.1750 c3        1 49A      0.184000
      5 C5          5.6610    0.6030   -0.1820 c2        1 49A     -0.104400
      6 C6          4.4810    0.0590    0.1990 c2        1 49A     -0.041900
      7 C7          4.9430    0.4380   -4.2530 c2        1 49A     -0.083400
      8 C8          4.4670   -0.7160   -4.7580 c2        1 49A     -0.083400
      9 C9         -0.2710   -2.9640   -5.1640 c1        1 49A     -0.203500
     10 C11         9.2550    0.5610    1.0150 c3        1 49A     -0.177100
     11 N5          6.8560    0.3540    0.5010 n         1 49A     -0.474100
     12 O1A         0.5710   -1.6610   -1.3930 o         1 49A     -0.829800
     13 O1B         2.2470   -0.8830   -2.6340 o         1 49A     -0.829800
     14 N4          1.1130    0.8060    3.0330 n3        1 49A     -0.901800
     15 O6          3.3700    0.4040   -0.5590 os        1 49A     -0.245200
     16 O7          4.4460    1.0600   -3.1410 oh        1 49A     -0.525100
     17 O8          4.9870   -1.3270   -5.8800 oh        1 49A     -0.525100
     18 N9          0.2470   -2.4280   -4.1100 n3        1 49A     -0.618600
     19 O10         8.1320    1.9060   -0.6320 o         1 49A     -0.599100
     20 H3          2.8710    1.0320    1.9330 h1        1 49A      0.046700
     21 H4          0.6840   -0.9730    0.9760 ha        1 49A      0.155000
     22 H5          2.6580   -0.5670    2.7790 h1        1 49A      0.046700
     23 H6          5.7370    1.2760   -1.0610 h4        1 49A      0.202000
     24 H7          4.3230   -0.6400    1.0300 h4        1 49A      0.129000
     25 H8          5.7800    1.0140   -4.6730 h4        1 49A      0.171000
     26 H91         3.6250   -1.2970   -4.3440 h4        1 49A      0.171000
     27 H92         0.3010   -2.8130   -6.1090 ha        1 49A     -0.051500
     28 H111        9.4790   -0.5150    0.8200 hc        1 49A      0.058700
     29 H112       10.1310    1.1770    0.6990 hc        1 49A      0.058700
     30 H113        9.0840    0.7070    2.1080 hc        1 49A      0.058700
     31 HN5         6.8570   -0.3570    1.1930 hn        1 49A      0.300500
     32 HN41        0.6780    1.5820    2.5720 hn        1 49A      0.338300
     33 HN42        0.4000    0.1310    3.2350 hn        1 49A      0.338300
     34 HO7         3.7210    0.5200   -2.7620 ho        1 49A      0.429500
     35 HO8         5.7040   -0.7750   -6.2200 ho        1 49A      0.429500
     36 HN91        1.1000   -1.8950   -4.0560 hn        1 49A      0.427800
     37 HN92       -0.1980   -2.5110   -3.2150 hn        1 49A      0.427800
     38 C10         8.0450    1.0010    0.2210 c         1 49A      0.656100
@<TRIPOS>BOND
     1    1    2 1   
     2    1   12 1   
     3    1   13 1   
     4    2    3 2   
     5    2   15 1   
     6    3    4 1   
     7    3   21 1   
     8    4   14 1   
     9    4   20 1   
    10    4   22 1   
    11    5    6 2   
    12    5   11 1   
    13    5   23 1   
    14    6   15 1   
    15    6   24 1   
    16    7    8 2   
    17    7   16 1   
    18    7   25 1   
    19    8   17 1   
    20    8   26 1   
    21    9   18 3   
    22    9   27 1   
    23   10   28 1   
    24   10   29 1   
    25   10   30 1   
    26   10   38 1   
    27   11   31 1   
    28   11   38 1   
    29   14   32 1   
    30   14   33 1   
    31   16   34 1   
    32   17   35 1   
    33   18   36 1   
    34   18   37 1   
    35   19   38 2   
@<TRIPOS>SUBSTRUCTURE
     1 49A         1 TEMP              0 ****  ****    0 ROOT
