@<TRIPOS>MOLECULE
49A
   41    49     1     0     0
SMALL
bcc


@<TRIPOS>ATOM
      1 C1          0.0000    0.0000    0.0000 c2        1 49A      0.360000
      2 C2          1.4740    0.0000    0.0000 c2        1 49A      0.199000
      3 C3          2.0670    0.0000    1.1780 c3        1 49A     -0.088000
      4 C4          3.5670   -0.0190    1.3240 DU        1 49A      0.256000
      5 C5          4.1840    0.2660   -0.0530 DU        1 49A     -0.401000
      6 C6          3.3910   -0.5390   -1.0890 DU        1 49A     -0.080000
      7 C7          4.0920   -0.4620   -2.4460 DU        1 49A     -0.188000
      8 C8          3.2950   -1.2620   -3.4790 DU        1 49A     -0.144000
      9 C9          3.9960   -1.1860   -4.8360 c3        1 49A     -0.684000
     10 C11         7.9990    0.2950    0.2600 c3        1 49A      0.109000
     11 N5          5.5880   -0.1500   -0.0660 ny        1 49A     -0.021000
     12 O1A        -0.6080    0.0000    1.0520 o         1 49A     -0.219000
     13 O1B        -0.6730    0.0020   -1.1680 o         1 49A     -0.219000
     14 N4          3.9870    1.0140    2.2800 nz        1 49A      0.071000
     15 O6          2.0800    0.0010   -1.1990 os        1 49A     -0.028000
     16 O7          4.1720    0.9030   -2.8630 oh        1 49A     -0.152000
     17 O8          3.2140   -2.6270   -3.0620 oh        1 49A     -0.494000
     18 N9          3.2310   -1.9560   -5.8260 nz        1 49A      0.805000
     19 O10         6.2630    1.8590    0.5890 o         1 49A     -0.173000
     20 H3          3.1120    0.1980    0.9730 DU        1 49A     -0.043500
     21 H4          2.5470   -0.0030    1.6870 DU        1 49A     -0.043500
     22 H5          4.0360   -0.3690    0.8120 DU        1 49A      0.187000
     23 H6          3.7500    0.3990   -0.6820 DU        1 49A      0.179000
     24 H7          3.7080   -1.0230   -1.6030 DU        1 49A      0.149000
     25 H8          4.2000   -1.0680   -2.9160 DU        1 49A      0.204000
     26 H91         3.1380   -1.0160   -4.1960 DU        1 49A      0.223000
     27 H92         4.9940   -1.5970   -4.7510 hx        1 49A      0.129000
     28 H111        7.3630    0.2240   -0.6140 DU        1 49A     -0.074000
     29 H112        8.2670    0.0620   -0.7630 hc        1 49A      0.153500
     30 H113        8.0720   -0.6000    0.8660 hc        1 49A      0.153500
     31 HN5         6.5000    0.2050    0.1450 hn        1 49A      0.104000
     32 HN41        4.5370    0.3860    1.7270 hn        1 49A      0.237333
     33 HN42        3.3790    1.0000    3.0740 hn        1 49A      0.237333
     34 HO7         4.1270    1.1020   -1.9430 ho        1 49A      0.168000
     35 HO8         3.2490   -1.6860   -3.1140 ho        1 49A      0.304000
     36 HN91        2.9320   -2.3260   -4.9460 hn        1 49A      0.054333
     37 HN92        2.5460   -1.3310   -6.2030 hn        1 49A      0.054333
     38 C10         6.5550    0.7240    0.2730 c3        1 49A      0.320000
     39 H52         5.8130   -0.4550   -0.9920 hn        1 49A      0.104000
     40 H43         4.9260    0.8330    2.5750 hn        1 49A      0.237333
     41 H93         3.8810   -2.2290   -6.5360 hn        1 49A      0.054333
@<TRIPOS>BOND
     1    1    2 1   
     2    1   12 1   
     3    1   13 1   
     4    2    3 1   
     5    2   15 1   
     6    3    4 1   
     7    3   20 1   
     8    3   21 1   
     9    4    5 1   
    10    4   14 1   
    11    4   20 1   
    12    4   21 1   
    13    4   22 1   
    14    5    6 1   
    15    5   11 1   
    16    5   22 1   
    17    5   23 1   
    18    6    7 1   
    19    6   15 1   
    20    6   23 1   
    21    6   24 1   
    22    7    8 1   
    23    7   16 1   
    24    7   24 1   
    25    7   25 1   
    26    8    9 1   
    27    8   17 1   
    28    8   25 1   
    29    8   26 1   
    30    9   18 1   
    31    9   26 1   
    32    9   27 1   
    33   10   28 1   
    34   10   29 1   
    35   10   30 1   
    36   10   38 1   
    37   11   31 1   
    38   11   38 1   
    39   11   39 1   
    40   14   32 1   
    41   14   33 1   
    42   14   40 1   
    43   16   34 1   
    44   17   35 1   
    45   18   36 1   
    46   18   37 1   
    47   18   41 1   
    48   19   38 1   
    49   28   38 1   
@<TRIPOS>SUBSTRUCTURE
     1 49A         1 TEMP              0 ****  ****    0 ROOT
