@<TRIPOS>MOLECULE
49B
   34    34     1     0     0
SMALL
bcc


@<TRIPOS>ATOM
      1 C1         -0.0120    0.3270    0.3640 c1        1 49B      0.024000
      2 C2         -0.1790   -0.1620   -0.8490 c2        1 49B     -0.093000
      3 C3          2.8560    1.2450    2.2600 c1        1 49B     -0.154000
      4 C11         6.1990    0.9480   -6.1340 c1        1 49B     -0.224000
      5 C12         1.0890   -1.7970   -6.4670 c1        1 49B     -0.166000
      6 C13         1.2710   -1.2740   -5.4050 c1        1 49B     -0.141000
      7 C14         1.4900   -0.6600   -4.1610 c2        1 49B     -0.014000
      8 C15         0.5350   -0.7280   -3.1370 c2        1 49B     -0.058000
      9 C6          3.6620   -0.9290    5.8060 c2        1 49B      0.032000
     10 N3          2.7050   -0.1170    6.4570 ns        1 49B     -0.255000
     11 N2          1.9650    0.6010    5.5810 n2        1 49B     -0.114000
     12 O           3.3710   -0.7500    4.4390 os        1 49B     -0.124000
     13 C5          2.3310    0.2100    4.3620 c2        1 49B      0.097000
     14 C4          1.9070    0.6320    3.0310 c2        1 49B     -0.240000
     15 C           0.5360    0.3950    2.6820 c2        1 49B      0.287000
     16 N          -0.3510   -0.2190    3.5080 n8        1 49B     -0.329000
     17 N1          0.0440    0.9190    1.4510 n2        1 49B     -0.125000
     18 C7          0.8010   -0.0990   -1.9100 c2        1 49B     -0.099000
     19 C9          2.6910    0.0510   -3.9080 c2        1 49B     -0.037000
     20 N4          2.9560    0.6580   -2.7390 n2        1 49B     -0.133000
     21 C8          2.0320    0.5820   -1.7640 c2        1 49B     -0.043000
     22 C10         5.8180    1.1520   -5.0190 c1        1 49B     -0.224000
     23 H1         -1.1450   -0.6480   -1.0870 ha        1 49B      0.173000
     24 H2          2.6550    1.6110    1.2510 ha        1 49B      0.067000
     25 H3          3.4760    0.1340   -4.6850 h4        1 49B      0.182000
     26 H4          6.5390    0.7670   -7.1220 ha        1 49B      0.224500
     27 H5          0.9290   -2.2590   -7.4080 ha        1 49B      0.230000
     28 H6         -0.4100   -1.2700   -3.2950 ha        1 49B      0.147000
     29 H7          2.8380    0.2610    7.3710 hn        1 49B      0.282000
     30 H8         -0.0840   -0.4390    4.4410 hn        1 49B      0.252000
     31 H9         -1.3110   -0.3180    3.2730 hn        1 49B      0.252000
     32 H10         2.2900    1.0950   -0.8180 h4        1 49B      0.172000
     33 H11         5.4850    1.3370   -4.0260 ha        1 49B      0.224500
     34 S           4.7400   -1.8970    6.3590 s         1 49B     -0.074000
@<TRIPOS>BOND
     1    1    2 1   
     2    1   17 1   
     3    2   18 1   
     4    2   23 1   
     5    3   14 1   
     6    3   24 1   
     7    4   22 1   
     8    4   26 1   
     9    5    6 1   
    10    5   27 1   
    11    6    7 1   
    12    7    8 1   
    13    7   19 1   
    14    8   18 1   
    15    8   28 1   
    16    9   10 1   
    17    9   12 1   
    18    9   34 1   
    19   10   11 1   
    20   10   29 1   
    21   11   13 1   
    22   12   13 1   
    23   13   14 1   
    24   14   15 1   
    25   15   16 1   
    26   15   17 1   
    27   16   30 1   
    28   16   31 1   
    29   18   21 1   
    30   19   20 1   
    31   19   25 1   
    32   20   21 1   
    33   21   32 1   
    34   22   33 1   
@<TRIPOS>SUBSTRUCTURE
     1 49B         1 TEMP              0 ****  ****    0 ROOT
