@<TRIPOS>MOLECULE
49B
   34    35     1     0     0
SMALL
bcc


@<TRIPOS>ATOM
      1 C1         -0.3670   -1.0660    0.1570 c1        1 49B      0.266700
      2 C2          1.1270   -1.2840    0.1410 c3        1 49B     -0.115100
      3 C3          1.8230   -0.6960    1.3160 c2        1 49B      0.012800
      4 C11         6.2130    0.5600   -6.4670 c1        1 49B     -0.166000
      5 C12         0.2030    1.1710   -5.2990 c1        1 49B     -0.121500
      6 C13         0.8340    0.6820   -4.4070 cg        1 49B     -0.126000
      7 C14         1.5730    0.1070   -3.3600 ca        1 49B     -0.091300
      8 C15         0.9540   -0.2780   -2.1580 ca        1 49B     -0.037000
      9 C6          3.7140    0.6880    4.7760 c         1 49B      0.476500
     10 N3          2.5800    1.3830    5.2410 n         1 49B     -0.280900
     11 N2          1.4940    1.1960    4.4680 nc        1 49B     -0.497300
     12 O           3.2140   -0.0290    3.6630 os        1 49B     -0.376700
     13 C5          1.8470    0.3240    3.5220 cd        1 49B      0.552900
     14 C4          1.1330   -0.2670    2.4080 cf        1 49B     -0.349200
     15 C          -0.3510   -0.3440    2.3900 cf        1 49B      0.640900
     16 N          -1.0620   -0.1260    3.5140 nh        1 49B     -0.446100
     17 N1         -1.0150   -0.6530    1.2090 n1        1 49B     -0.841400
     18 C7          1.7380   -0.8430   -1.1450 ca        1 49B     -0.176600
     19 C9          2.9670   -0.1030   -3.4930 ca        1 49B      0.413200
     20 N4          3.7250   -0.6570   -2.5300 nb        1 49B     -0.674000
     21 C8          3.1170   -1.0200   -1.3860 ca        1 49B      0.389200
     22 C10         6.0120    0.1140   -5.3760 c1        1 49B     -0.166000
     23 H1          1.2430   -2.4150    0.2120 hc        1 49B      0.129700
     24 H2          2.9230   -0.6000    1.2750 ha        1 49B      0.158000
     25 H3          3.4980    0.1850   -4.4200 h4        1 49B      0.035100
     26 H4          6.3910    0.9560   -7.4350 ha        1 49B      0.166500
     27 H5         -0.3560    1.6040   -6.0890 ha        1 49B      0.169500
     28 H6         -0.1340   -0.1540   -2.0140 ha        1 49B      0.187000
     29 H7          2.5910    2.1430    5.8860 hn        1 49B      0.385500
     30 H8         -0.6320    0.1010    4.3770 hn        1 49B      0.304200
     31 H9         -2.0580   -0.1530    3.4830 hn        1 49B      0.304200
     32 H10         3.7730   -1.4830   -0.6270 h4        1 49B      0.017100
     33 H11         5.8370   -0.2840   -4.4060 ha        1 49B      0.166500
     34 S           5.1690    0.5980    5.2860 s         1 49B     -0.308400
@<TRIPOS>BOND
     1    1    2 1   
     2    1   17 3   
     3    2    3 1   
     4    2   18 1   
     5    2   23 1   
     6    3   14 2   
     7    3   24 1   
     8    4   22 3   
     9    4   26 1   
    10    5    6 3   
    11    5   27 1   
    12    6    7 1   
    13    7    8 ar  
    14    7   19 ar  
    15    8   18 ar  
    16    8   28 1   
    17    9   10 1   
    18    9   12 1   
    19    9   34 2   
    20   10   11 1   
    21   10   29 1   
    22   11   13 2   
    23   12   13 1   
    24   13   14 1   
    25   14   15 1   
    26   15   16 2   
    27   15   17 1   
    28   16   30 1   
    29   16   31 1   
    30   18   21 ar  
    31   19   20 ar  
    32   19   25 1   
    33   20   21 ar  
    34   21   32 1   
    35   22   33 1   
@<TRIPOS>SUBSTRUCTURE
     1 49B         1 TEMP              0 ****  ****    0 ROOT
