@<TRIPOS>MOLECULE
49C
   39    42     1     0     0
SMALL
bcc


@<TRIPOS>ATOM
      1 C4          0.0210   -0.0950   -0.1110 c3        1 49C      0.151000
      2 C14         2.0180    0.3520    1.3040 c2        1 49C      0.175000
      3 C5         -0.5560    0.0460   -1.4880 c2        1 49C     -0.156000
      4 C6         -1.0510   -1.1300   -1.9600 c2        1 49C     -0.093000
      5 C11        -1.7370    1.0850   -4.7580 c1        1 49C      0.214000
      6 C7         -0.9130   -2.2480   -0.9950 c3        1 49C     -0.114000
      7 C8         -0.2550   -1.5950    0.2380 c3        1 49C     -0.180000
      8 C9         -1.6230   -0.9850   -3.3290 c3        1 49C     -0.031000
      9 C10        -1.4010    0.4870   -3.6350 c2        1 49C     -0.440000
     10 C12        -0.7400    1.1700   -2.4480 c3        1 49C     -0.019000
     11 C13         1.5090    0.2500   -0.0940 c3        1 49C     -0.206000
     12 C2         -0.1800    1.0890    1.9890 c2        1 49C      0.354000
     13 O3         -0.7260    0.7570    0.7670 os        1 49C     -0.236000
     14 O15         3.3300    0.0850    1.5440 oh        1 49C     -0.208000
     15 C16         1.1940    0.7020    2.3360 c2        1 49C     -0.493000
     16 S17         1.6570    0.5370    3.9550 ss        1 49C      0.538000
     17 C18         1.8280    2.0580    4.6170 c2        1 49C     -0.244000
     18 C19         1.4790    3.3070    3.8950 c3        1 49C     -0.145000
     19 C20         1.7420    4.5620    4.6340 c2        1 49C     -0.094000
     20 C21         2.2280    4.5650    5.8950 c2        1 49C     -0.190000
     21 C22         2.5500    3.3570    6.5930 c1        1 49C     -0.057000
     22 C23         2.3020    2.1420    5.9080 c2        1 49C     -0.149000
     23 Cl          2.6470    0.6910    6.7380 cl        1 49C     -0.006000
     24 H1         -1.4050    1.9640   -2.0200 hc        1 49C      0.107500
     25 H2         -1.9100   -2.6850   -0.7320 hc        1 49C      0.106000
     26 H3         -0.2730   -3.0690   -1.4060 hc        1 49C      0.106000
     27 H4         -0.9430   -1.6440    1.1170 hc        1 49C      0.105500
     28 H5          0.6960   -2.1150    0.5000 hc        1 49C      0.105500
     29 H6         -2.7140   -1.2370   -3.3440 hc        1 49C      0.110500
     30 H7         -1.0930   -1.6350   -4.0700 hc        1 49C      0.110500
     31 H8          0.2340    1.6340   -2.7430 hc        1 49C      0.107500
     32 H9          1.6660    1.2380   -0.6080 hc        1 49C      0.130000
     33 H10         2.0720   -0.5310   -0.6710 hc        1 49C      0.130000
     34 H11         3.7670   -0.1320    0.7030 ho        1 49C      0.236000
     35 H12         2.0320    3.3400    2.9130 hc        1 49C      0.146500
     36 H13         0.3710    3.2730    3.6480 hc        1 49C      0.146500
     37 H14         1.5060    5.4880    4.0880 ha        1 49C      0.130000
     38 H15         2.4050    5.5090    6.4360 ha        1 49C      0.148000
     39 O1         -0.9680    1.7540    2.6640 o         1 49C     -0.295000
@<TRIPOS>BOND
     1    1    3 1   
     2    1    7 1   
     3    1   11 1   
     4    1   13 1   
     5    2   11 1   
     6    2   14 1   
     7    2   15 1   
     8    3    4 1   
     9    3   10 1   
    10    4    6 1   
    11    4    8 1   
    12    5    9 1   
    13    6    7 1   
    14    6   25 1   
    15    6   26 1   
    16    7   27 1   
    17    7   28 1   
    18    8    9 1   
    19    8   29 1   
    20    8   30 1   
    21    9   10 1   
    22   10   24 1   
    23   10   31 1   
    24   11   32 1   
    25   11   33 1   
    26   12   13 1   
    27   12   15 1   
    28   12   39 1   
    29   14   34 1   
    30   15   16 1   
    31   16   17 1   
    32   17   18 1   
    33   17   22 1   
    34   18   19 1   
    35   18   35 1   
    36   18   36 1   
    37   19   20 1   
    38   19   37 1   
    39   20   21 1   
    40   20   38 1   
    41   21   22 1   
    42   22   23 1   
@<TRIPOS>SUBSTRUCTURE
     1 49C         1 TEMP              0 ****  ****    0 ROOT
