@<TRIPOS>MOLECULE
49C
   39    41     1     0     0
SMALL
bcc


@<TRIPOS>ATOM
      1 C4          0.0040   -0.3410   -0.1710 c3        1 49C      0.188000
      2 C14         1.9990    0.1450    1.2510 c2        1 49C      0.183000
      3 C5         -0.5170   -0.1540   -1.5620 c2        1 49C     -0.121000
      4 C6         -0.1850   -0.8700   -2.6550 c2        1 49C     -0.156000
      5 C11        -2.5920    1.4820   -4.0890 c1        1 49C      0.213000
      6 C7         -1.1220   -2.1320    1.1830 c2        1 49C     -0.160000
      7 C8         -0.2270   -1.7600    0.2720 c2        1 49C     -0.220000
      8 C9         -0.9250   -0.3900   -3.8720 c3        1 49C     -0.051000
      9 C10        -1.7750    0.7490   -3.3630 c2        1 49C     -0.443000
     10 C12        -1.5370    0.9080   -1.8800 c3        1 49C     -0.033000
     11 C13         1.5070   -0.0080   -0.1480 c3        1 49C     -0.209000
     12 C2         -0.1890    0.9600    1.8710 c2        1 49C      0.359000
     13 O3         -0.7260    0.5860    0.6560 os        1 49C     -0.249000
     14 O15         3.3020   -0.1370    1.5220 oh        1 49C     -0.207000
     15 C16         1.1730    0.5670    2.2530 c2        1 49C     -0.493000
     16 S17         1.6120    0.4750    3.8840 ss        1 49C      0.541000
     17 C18         1.8100    2.0250    4.4670 c2        1 49C     -0.245000
     18 C19         1.5010    3.2410    3.6730 c3        1 49C     -0.145000
     19 C20         1.7800    4.5270    4.3490 c2        1 49C     -0.094000
     20 C21         2.2480    4.5880    5.6150 c2        1 49C     -0.190000
     21 C22         2.5330    3.4120    6.3810 c1        1 49C     -0.057000
     22 C23         2.2680    2.1680    5.7580 c2        1 49C     -0.149000
     23 CL          2.5680    0.7570    6.6700 cl        1 49C     -0.006000
     24 H1         -2.4750    0.7400   -1.2900 hc        1 49C      0.116500
     25 H2          0.5130   -1.7060   -2.7220 ha        1 49C      0.142000
     26 H3         -1.7640   -1.4110    1.7130 ha        1 49C      0.131500
     27 H4         -1.2690   -3.1850    1.4590 ha        1 49C      0.131500
     28 H5          0.3960   -2.4930   -0.2650 ha        1 49C      0.128000
     29 H6         -1.5610   -1.2080   -4.2980 hc        1 49C      0.105500
     30 H7         -0.2130   -0.0420   -4.6630 hc        1 49C      0.105500
     31 H8         -1.1440    1.9260   -1.6320 hc        1 49C      0.116500
     32 H9          1.6790    0.9600   -0.6950 hc        1 49C      0.130000
     33 H10         2.0660   -0.8170   -0.6880 hc        1 49C      0.130000
     34 H11         3.7420   -0.4160    0.7010 ho        1 49C      0.236000
     35 H12         2.0710    3.2090    2.7010 hc        1 49C      0.146000
     36 H13         0.3980    3.2180    3.4090 hc        1 49C      0.146000
     37 H14         1.5720    5.4280    3.7500 ha        1 49C      0.130000
     38 H15         2.4380    5.5560    6.1080 ha        1 49C      0.148000
     39 O1         -0.9760    1.6680    2.5010 o         1 49C     -0.296000
@<TRIPOS>BOND
     1    1    3 1   
     2    1    7 1   
     3    1   11 1   
     4    1   13 1   
     5    2   11 1   
     6    2   14 1   
     7    2   15 1   
     8    3    4 1   
     9    3   10 1   
    10    4    8 1   
    11    4   25 1   
    12    5    9 1   
    13    6    7 1   
    14    6   26 1   
    15    6   27 1   
    16    7   28 1   
    17    8    9 1   
    18    8   29 1   
    19    8   30 1   
    20    9   10 1   
    21   10   24 1   
    22   10   31 1   
    23   11   32 1   
    24   11   33 1   
    25   12   13 1   
    26   12   15 1   
    27   12   39 1   
    28   14   34 1   
    29   15   16 1   
    30   16   17 1   
    31   17   18 1   
    32   17   22 1   
    33   18   19 1   
    34   18   35 1   
    35   18   36 1   
    36   19   20 1   
    37   19   37 1   
    38   20   21 1   
    39   20   38 1   
    40   21   22 1   
    41   22   23 1   
@<TRIPOS>SUBSTRUCTURE
     1 49C         1 TEMP              0 ****  ****    0 ROOT
