@<TRIPOS>MOLECULE
49D
   46    49     1     0     0
SMALL
bcc


@<TRIPOS>ATOM
      1 C2          0.2770   -0.2490   -0.8770 c3        1 49D     -0.082400
      2 C3          1.7480   -0.4100   -0.5190 c3        1 49D     -0.090400
      3 C4          0.4730   -0.3090    1.5750 c3        1 49D     -0.090400
      4 C5          1.8570   -0.0040    0.9650 c3        1 49D      0.058000
      5 N8          2.9750   -0.6350    1.6760 na        1 49D      0.165400
      6 C11         4.0440    0.0440    2.2750 cc        1 49D      0.116100
      7 N13         4.3060    1.4100    2.3510 nc        1 49D     -0.557100
      8 N9          3.1170   -1.9600    1.8330 nc        1 49D     -0.458800
      9 C10         4.2600   -2.2080    2.5280 cd        1 49D      0.390200
     10 C12         4.9030   -0.9670    2.8420 cd        1 49D     -0.327900
     11 C16         6.1050   -0.5940    3.5390 c         1 49D      0.762100
     12 O17         6.9480   -1.3050    4.0900 o         1 49D     -0.542500
     13 N15         6.3330    0.8260    3.5870 ns        1 49D     -0.503400
     14 C14         5.4320    1.7140    2.9980 cd        1 49D      0.542800
     15 N18         5.7460    3.1780    3.0850 ny        1 49D     -0.737000
     16 C19         5.2470    3.8020    4.3880 c3        1 49D      0.208800
     17 C20         6.0790    3.3670    5.5830 c3        1 49D     -0.135100
     18 C24         5.2400    5.2890    4.2080 ca        1 49D     -0.204300
     19 C29         6.4210    6.0340    4.3050 ca        1 49D     -0.089500
     20 C28         6.3920    7.4180    4.1640 ca        1 49D     -0.119000
     21 C27         5.1720    8.0670    3.9250 ca        1 49D      0.058400
     22 C26         3.9870    7.3260    3.8280 ca        1 49D     -0.119000
     23 C25         4.0240    5.9410    3.9660 ca        1 49D     -0.089500
     24 C1         -0.5150   -0.1860    0.4230 c3        1 49D     -0.082400
     25 Cl          5.1320    9.7450    3.7560 cl        1 49D     -0.021400
     26 H1         -0.0640   -1.1070   -1.5100 hc        1 49D      0.058450
     27 H2          0.1200    0.6850   -1.4740 hc        1 49D      0.058450
     28 H3          2.0680   -1.4700   -0.6810 hc        1 49D      0.065700
     29 H4          2.3980    0.2440   -1.1500 hc        1 49D      0.065700
     30 H5          0.2410    0.4140    2.3940 hc        1 49D      0.065700
     31 H6          0.4310   -1.3410    2.0070 hc        1 49D      0.065700
     32 H7          2.0420    1.1080    1.0240 h1        1 49D      0.075700
     33 H8          4.5840   -3.2240    2.7770 h4        1 49D      0.083100
     34 H9          7.1380    1.1490    4.0810 hn        1 49D      0.346500
     35 H10         5.2830    3.6660    2.3020 hn        1 49D      0.469800
     36 H11         4.1860    3.4240    4.5180 hx        1 49D      0.122700
     37 H12         5.7810    4.0040    6.4570 hc        1 49D      0.081700
     38 H13         5.8780    2.3020    5.8520 hc        1 49D      0.081700
     39 H14         7.1740    3.5060    5.4150 hc        1 49D      0.081700
     40 H15         7.3810    5.5350    4.5130 ha        1 49D      0.144500
     41 H16         7.3240    8.0020    4.2470 ha        1 49D      0.174500
     42 H17         3.0260    7.8360    3.6470 ha        1 49D      0.174500
     43 H18         3.0860    5.3670    3.8990 ha        1 49D      0.144500
     44 H19        -1.2690   -1.0120    0.4700 hc        1 49D      0.058450
     45 H20        -1.0760    0.7800    0.4920 hc        1 49D      0.058450
     46 H182        6.7580    3.3230    3.0010 hn        1 49D      0.469800
@<TRIPOS>BOND
     1    1    2 1   
     2    1   24 1   
     3    1   26 1   
     4    1   27 1   
     5    2    4 1   
     6    2   28 1   
     7    2   29 1   
     8    3    4 1   
     9    3   24 1   
    10    3   30 1   
    11    3   31 1   
    12    4    5 1   
    13    4   32 1   
    14    5    6 1   
    15    5    8 1   
    16    6    7 1   
    17    6   10 2   
    18    7   14 2   
    19    8    9 2   
    20    9   10 1   
    21    9   33 1   
    22   10   11 1   
    23   11   12 2   
    24   11   13 1   
    25   13   14 1   
    26   13   34 1   
    27   14   15 1   
    28   15   16 1   
    29   15   35 1   
    30   15   46 1   
    31   16   17 1   
    32   16   18 1   
    33   16   36 1   
    34   17   37 1   
    35   17   38 1   
    36   17   39 1   
    37   18   19 ar  
    38   18   23 ar  
    39   19   20 ar  
    40   19   40 1   
    41   20   21 ar  
    42   20   41 1   
    43   21   22 ar  
    44   21   25 1   
    45   22   23 ar  
    46   22   42 1   
    47   23   43 1   
    48   24   44 1   
    49   24   45 1   
@<TRIPOS>SUBSTRUCTURE
     1 49D         1 TEMP              0 ****  ****    0 ROOT
