@<TRIPOS>MOLECULE
49D
   46    49     1     0     0
SMALL
bcc


@<TRIPOS>ATOM
      1 C2          0.2320   -0.2790   -0.8100 c3        1 49D     -0.082400
      2 C3          1.7110   -0.4250   -0.4830 c3        1 49D     -0.090400
      3 C4          0.4790   -0.3430    1.6370 c3        1 49D     -0.090400
      4 C5          1.8470   -0.0220    1.0000 c3        1 49D      0.058000
      5 N8          2.9860   -0.6430    1.6860 na        1 49D      0.165400
      6 C11         4.0590    0.0470    2.2650 cc        1 49D      0.116100
      7 N13         4.3080    1.4150    2.3400 nc        1 49D     -0.557100
      8 N9          3.1450   -1.9660    1.8370 nc        1 49D     -0.458800
      9 C10         4.3040   -2.2040    2.5080 cd        1 49D      0.390200
     10 C12         4.9400   -0.9560    2.8120 cd        1 49D     -0.327900
     11 C16         6.1520   -0.5720    3.4860 c         1 49D      0.762100
     12 O17         7.0130   -1.2750    4.0190 o         1 49D     -0.542500
     13 N15         6.3660    0.8510    3.5340 n         1 49D     -0.503400
     14 C14         5.4440    1.7300    2.9660 cd        1 49D      0.542800
     15 N18         5.7430    3.1970    3.0500 n4        1 49D     -0.737000
     16 C19         5.2630    3.8130    4.3630 c3        1 49D      0.208800
     17 C20         6.1220    3.3840    5.5410 c3        1 49D     -0.135100
     18 C24         5.2370    5.3000    4.1870 ca        1 49D     -0.204300
     19 C29         6.4120    6.0570    4.2630 ca        1 49D     -0.089500
     20 C28         6.3660    7.4410    4.1260 ca        1 49D     -0.119000
     21 C27         5.1350    8.0780    3.9120 ca        1 49D      0.058400
     22 C26         3.9550    7.3240    3.8370 ca        1 49D     -0.119000
     23 C25         4.0100    5.9400    3.9710 ca        1 49D     -0.089500
     24 C1         -0.5330   -0.2280    0.5060 c3        1 49D     -0.082400
     25 CL          5.0740    9.7560    3.7480 cl        1 49D     -0.021400
     26 H1         -0.1120   -1.1390   -1.4380 hc        1 49D      0.058450
     27 H2          0.0530    0.6550   -1.4010 hc        1 49D      0.058450
     28 H3          2.3420    0.2370   -1.1250 hc        1 49D      0.065700
     29 H4          2.0390   -1.4820   -0.6540 hc        1 49D      0.065700
     30 H5          0.2560    0.3760    2.4630 hc        1 49D      0.065700
     31 H6          0.4570   -1.3760    2.0680 hc        1 49D      0.065700
     32 H7          2.0210    1.0920    1.0580 h1        1 49D      0.075700
     33 H8          4.6450   -3.2160    2.7480 h4        1 49D      0.083100
     34 H9          7.1770    1.1810    4.0120 hn        1 49D      0.346500
     35 H10         6.7520    3.3530    2.9460 hn        1 49D      0.469800
     36 H11         4.2080    3.4230    4.5130 hx        1 49D      0.122700
     37 H12         7.2130    3.5350    5.3530 hc        1 49D      0.081700
     38 H13         5.9390    2.3160    5.8110 hc        1 49D      0.081700
     39 H14         5.8350    4.0150    6.4220 hc        1 49D      0.081700
     40 H15         7.3810    5.5680    4.4500 ha        1 49D      0.144500
     41 H16         7.2930    8.0340    4.1920 ha        1 49D      0.174500
     42 H17         2.9860    7.8250    3.6770 ha        1 49D      0.174500
     43 H18         3.0760    5.3560    3.9210 ha        1 49D      0.144500
     44 H19        -1.1030    0.7320    0.5890 hc        1 49D      0.058450
     45 H20        -1.2770   -1.0620    0.5670 hc        1 49D      0.058450
     46 H182        5.2600    3.6820    2.2760 hn        1 49D      0.469800
@<TRIPOS>BOND
     1    1    2 1   
     2    1   24 1   
     3    1   26 1   
     4    1   27 1   
     5    2    4 1   
     6    2   28 1   
     7    2   29 1   
     8    3    4 1   
     9    3   24 1   
    10    3   30 1   
    11    3   31 1   
    12    4    5 1   
    13    4   32 1   
    14    5    6 1   
    15    5    8 1   
    16    6    7 1   
    17    6   10 2   
    18    7   14 2   
    19    8    9 2   
    20    9   10 1   
    21    9   33 1   
    22   10   11 1   
    23   11   12 2   
    24   11   13 1   
    25   13   14 1   
    26   13   34 1   
    27   14   15 1   
    28   15   16 1   
    29   15   35 1   
    30   15   46 1   
    31   16   17 1   
    32   16   18 1   
    33   16   36 1   
    34   17   37 1   
    35   17   38 1   
    36   17   39 1   
    37   18   19 ar  
    38   18   23 ar  
    39   19   20 ar  
    40   19   40 1   
    41   20   21 ar  
    42   20   41 1   
    43   21   22 ar  
    44   21   25 1   
    45   22   23 ar  
    46   22   42 1   
    47   23   43 1   
    48   24   44 1   
    49   24   45 1   
@<TRIPOS>SUBSTRUCTURE
     1 49D         1 TEMP              0 ****  ****    0 ROOT
