@<TRIPOS>MOLECULE
49E
   46    49     1     0     0
SMALL
bcc


@<TRIPOS>ATOM
      1 C2         -0.6100   -0.3170    0.7200 c3        1 49E     -0.082400
      2 C3          0.8250    0.1490    0.5150 c3        1 49E     -0.090400
      3 C4          0.8440   -1.6040    2.2320 c3        1 49E     -0.090400
      4 C5          1.5990   -0.3470    1.7530 c3        1 49E      0.058000
      5 N8          3.0310   -0.5660    1.5150 na        1 49E      0.165400
      6 C11         4.0750    0.0820    2.1880 cc        1 49E      0.116100
      7 N13         4.0300    1.0450    3.1920 nc        1 49E     -0.557100
      8 N9          3.5210   -1.4320    0.6160 nc        1 49E     -0.458800
      9 C10         4.8810   -1.3950    0.6540 cd        1 49E      0.390200
     10 C12         5.3010   -0.4450    1.6410 cd        1 49E     -0.327900
     11 C16         6.5740    0.0210    2.1240 c         1 49E      0.762100
     12 O17         7.7130   -0.3000    1.7770 o         1 49E     -0.542500
     13 N15         6.4750    1.0120    3.1630 n         1 49E     -0.503400
     14 C14         5.2290    1.4460    3.6180 cd        1 49E      0.542800
     15 N18         5.2110    2.4750    4.7090 n4        1 49E     -0.737000
     16 C19         5.3200    3.8990    4.1670 c3        1 49E      0.208800
     17 C20         6.7160    4.2070    3.6500 c3        1 49E     -0.135100
     18 C24         4.8940    4.8350    5.2550 ca        1 49E     -0.204300
     19 C29         3.6150    5.4050    5.2030 ca        1 49E     -0.089500
     20 C28         3.2090    6.3040    6.1850 ca        1 49E     -0.119000
     21 C27         4.0800    6.6330    7.2320 ca        1 49E      0.058400
     22 C26         5.3610    6.0630    7.2890 ca        1 49E     -0.119000
     23 C25         5.7620    5.1690    6.3020 ca        1 49E     -0.089500
     24 C1         -0.5980   -1.4060    1.7860 c3        1 49E     -0.082400
     25 CL          3.5910    7.7210    8.4250 cl        1 49E     -0.021400
     26 H1         -1.2560    0.5380    1.0430 hc        1 49E      0.058450
     27 H2         -1.0310   -0.7060   -0.2420 hc        1 49E      0.058450
     28 H3          0.8880    1.2610    0.4360 hc        1 49E      0.065700
     29 H4          1.2370   -0.2860   -0.4310 hc        1 49E      0.065700
     30 H5          1.2620   -2.5360    1.7740 hc        1 49E      0.065700
     31 H6          0.9200   -1.7050    3.3420 hc        1 49E      0.065700
     32 H7          1.5380    0.4410    2.5590 h1        1 49E      0.075700
     33 H8          5.5020   -2.0210    0.0050 h4        1 49E      0.083100
     34 H9          7.3240    1.3940    3.5210 hn        1 49E      0.346500
     35 H10         5.9790    2.2980    5.3670 hn        1 49E      0.469800
     36 H11         4.5860    3.9510    3.3030 hx        1 49E      0.122700
     37 H12         7.5120    3.9530    4.3920 hc        1 49E      0.081700
     38 H13         6.7710    5.3090    3.4510 hc        1 49E      0.081700
     39 H14         6.9210    3.6740    2.6900 hc        1 49E      0.081700
     40 H15         2.9270    5.1590    4.3780 ha        1 49E      0.144500
     41 H16         2.2040    6.7580    6.1350 ha        1 49E      0.174500
     42 H17         6.0490    6.3280    8.1080 ha        1 49E      0.174500
     43 H18         6.7770    4.7420    6.3440 ha        1 49E      0.144500
     44 H19        -1.0130   -2.3630    1.3810 hc        1 49E      0.058450
     45 H20        -1.2380   -1.1070    2.6540 hc        1 49E      0.058450
     46 H182        4.3200    2.3990    5.2250 hn        1 49E      0.469800
@<TRIPOS>BOND
     1    1    2 1   
     2    1   24 1   
     3    1   26 1   
     4    1   27 1   
     5    2    4 1   
     6    2   28 1   
     7    2   29 1   
     8    3    4 1   
     9    3   24 1   
    10    3   30 1   
    11    3   31 1   
    12    4    5 1   
    13    4   32 1   
    14    5    6 1   
    15    5    8 1   
    16    6    7 1   
    17    6   10 2   
    18    7   14 2   
    19    8    9 2   
    20    9   10 1   
    21    9   33 1   
    22   10   11 1   
    23   11   12 2   
    24   11   13 1   
    25   13   14 1   
    26   13   34 1   
    27   14   15 1   
    28   15   16 1   
    29   15   35 1   
    30   15   46 1   
    31   16   17 1   
    32   16   18 1   
    33   16   36 1   
    34   17   37 1   
    35   17   38 1   
    36   17   39 1   
    37   18   19 ar  
    38   18   23 ar  
    39   19   20 ar  
    40   19   40 1   
    41   20   21 ar  
    42   20   41 1   
    43   21   22 ar  
    44   21   25 1   
    45   22   23 ar  
    46   22   42 1   
    47   23   43 1   
    48   24   44 1   
    49   24   45 1   
@<TRIPOS>SUBSTRUCTURE
     1 49E         1 TEMP              0 ****  ****    0 ROOT
