@<TRIPOS>MOLECULE
49E
   46    49     1     0     0
SMALL
bcc


@<TRIPOS>ATOM
      1 C2         -0.6070   -0.2830    0.6860 c3        1 49E     -0.082400
      2 C3          0.8310    0.1790    0.4910 c3        1 49E     -0.090400
      3 C4          0.8360   -1.5860    2.1950 c3        1 49E     -0.090400
      4 C5          1.5980   -0.3290    1.7290 c3        1 49E      0.058000
      5 N8          3.0300   -0.5510    1.4950 na        1 49E      0.165400
      6 C11         4.0740    0.0890    2.1770 cc        1 49E      0.116100
      7 N13         4.0280    1.0450    3.1880 nc        1 49E     -0.557100
      8 N9          3.5210   -1.4120    0.5920 nc        1 49E     -0.458800
      9 C10         4.8800   -1.3800    0.6360 cd        1 49E      0.390200
     10 C12         5.3000   -0.4390    1.6310 cd        1 49E     -0.327900
     11 C16         6.5730    0.0200    2.1220 c         1 49E      0.762100
     12 O17         7.7120   -0.3030    1.7780 o         1 49E     -0.542500
     13 N15         6.4730    1.0040    3.1680 ns        1 49E     -0.503400
     14 C14         5.2270    1.4390    3.6210 cd        1 49E      0.542800
     15 N18         5.2080    2.4600    4.7190 ny        1 49E     -0.737000
     16 C19         5.3230    3.8880    4.1870 c3        1 49E      0.208800
     17 C20         6.7220    4.1950    3.6790 c3        1 49E     -0.135100
     18 C24         4.8950    4.8180    5.2790 ca        1 49E     -0.204300
     19 C29         3.6190    5.3920    5.2270 ca        1 49E     -0.089500
     20 C28         3.2100    6.2850    6.2130 ca        1 49E     -0.119000
     21 C27         4.0790    6.6050    7.2650 ca        1 49E      0.058400
     22 C26         5.3570    6.0310    7.3240 ca        1 49E     -0.119000
     23 C25         5.7610    5.1430    6.3320 ca        1 49E     -0.089500
     24 C1         -0.6030   -1.3790    1.7440 c3        1 49E     -0.082400
     25 Cl          3.5870    7.6850    8.4650 cl        1 49E     -0.021400
     26 H1         -1.0260   -0.6630   -0.2790 hc        1 49E      0.058450
     27 H2         -1.2500    0.5720    1.0140 hc        1 49E      0.058450
     28 H3          0.8980    1.2920    0.4200 hc        1 49E      0.065700
     29 H4          1.2460   -0.2500   -0.4560 hc        1 49E      0.065700
     30 H5          1.2530   -2.5160    1.7320 hc        1 49E      0.065700
     31 H6          0.9070   -1.6950    3.3050 hc        1 49E      0.065700
     32 H7          1.5360    0.4540    2.5400 h1        1 49E      0.075700
     33 H8          5.5020   -2.0040   -0.0150 h4        1 49E      0.083100
     34 H9          7.3220    1.3810    3.5320 hn        1 49E      0.346500
     35 H10         4.3140    2.3840    5.2310 hn        1 49E      0.469800
     36 H11         4.5930    3.9480    3.3200 hx        1 49E      0.122700
     37 H12         6.7820    5.2980    3.4860 hc        1 49E      0.081367
     38 H13         7.5140    3.9330    4.4210 hc        1 49E      0.081367
     39 H14         6.9300    3.6680    2.7150 hc        1 49E      0.081367
     40 H15         2.9330    5.1540    4.3970 ha        1 49E      0.144500
     41 H16         2.2080    6.7420    6.1620 ha        1 49E      0.174500
     42 H17         6.0440    6.2880    8.1480 ha        1 49E      0.174500
     43 H18         6.7740    4.7120    6.3760 ha        1 49E      0.144500
     44 H19        -1.0200   -2.3320    1.3310 hc        1 49E      0.058450
     45 H20        -1.2460   -1.0850    2.6120 hc        1 49E      0.058450
     46 H182        5.9720    2.2770    5.3780 hn        1 49E      0.469800
@<TRIPOS>BOND
     1    1    2 1   
     2    1   24 1   
     3    1   26 1   
     4    1   27 1   
     5    2    4 1   
     6    2   28 1   
     7    2   29 1   
     8    3    4 1   
     9    3   24 1   
    10    3   30 1   
    11    3   31 1   
    12    4    5 1   
    13    4   32 1   
    14    5    6 1   
    15    5    8 1   
    16    6    7 1   
    17    6   10 2   
    18    7   14 2   
    19    8    9 2   
    20    9   10 1   
    21    9   33 1   
    22   10   11 1   
    23   11   12 2   
    24   11   13 1   
    25   13   14 1   
    26   13   34 1   
    27   14   15 1   
    28   15   16 1   
    29   15   35 1   
    30   15   46 1   
    31   16   17 1   
    32   16   18 1   
    33   16   36 1   
    34   17   37 1   
    35   17   38 1   
    36   17   39 1   
    37   18   19 ar  
    38   18   23 ar  
    39   19   20 ar  
    40   19   40 1   
    41   20   21 ar  
    42   20   41 1   
    43   21   22 ar  
    44   21   25 1   
    45   22   23 ar  
    46   22   42 1   
    47   23   43 1   
    48   24   44 1   
    49   24   45 1   
@<TRIPOS>SUBSTRUCTURE
     1 49E         1 TEMP              0 ****  ****    0 ROOT
