@<TRIPOS>MOLECULE
49G
   34    33     1     0     0
SMALL
bcc


@<TRIPOS>ATOM
      1 C16        -0.0400    2.1140    3.7770 c1        1 49G     -0.100000
      2 C14         3.5610   -1.3130   -0.3230 c2        1 49G     -0.144000
      3 C15        -1.0120    1.9100    2.8010 c2        1 49G     -0.548000
      4 C12         2.8920   -0.8480    0.6850 c1        1 49G     -0.133000
      5 C13        -0.8400    1.1570    1.7070 c1        1 49G      0.474000
      6 C4          3.6550    4.1220    7.5450 c3        1 49G     -0.254000
      7 C5          4.2250    3.7520    8.9140 c1        1 49G      0.034000
      8 C9          2.1900   -0.3820    1.6800 c2        1 49G     -0.155000
      9 C3          3.6080    2.7470    6.8730 c2        1 49G     -0.194000
     10 C11         2.6660   -0.3630    3.0870 c3        1 49G     -0.125000
     11 C7          3.1090    2.5790    5.4860 c3        1 49G     -0.051000
     12 C10         2.6020    1.0620    3.6170 c3        1 49G     -0.275000
     13 N1          4.0550    1.8000    7.6820 n2        1 49G     -0.060000
     14 N2          4.4120    2.4050    8.8720 n3        1 49G     -0.173000
     15 N6          3.1730    1.1740    4.9890 ny        1 49G     -0.010000
     16 H1         -2.0220    2.3860    2.8910 ha        1 49G      0.208000
     17 H2          3.5110   -2.3730   -0.6220 ha        1 49G      0.153500
     18 H3         -0.2990    2.7560    4.6320 ha        1 49G      0.081000
     19 H4          4.2150   -0.6780   -0.9420 ha        1 49G      0.153500
     20 H5          1.1670    0.0020    1.5140 ha        1 49G      0.133000
     21 H6          4.3320    4.8340    7.0130 hc        1 49G      0.164000
     22 H7          2.6430    4.5830    7.6480 hc        1 49G      0.164000
     23 H8          5.8950    1.1080    9.6520 h1        1 49G      0.113667
     24 H9          4.2000    0.8480   10.2930 h1        1 49G      0.113667
     25 H10         5.1590    2.3250   10.8150 h1        1 49G      0.113667
     26 H11         3.7120   -0.7680    3.1500 hc        1 49G      0.098000
     27 H12         2.0060   -1.0340    3.7020 hc        1 49G      0.098000
     28 H13         4.1470    0.8510    4.9990 hn        1 49G      0.241000
     29 H14         3.7230    3.2260    4.7910 hx        1 49G      0.157000
     30 H15         2.0300    2.9160    5.4290 hx        1 49G      0.157000
     31 H16         1.4590    1.4520    3.6540 hx        1 49G      0.193500
     32 H17         3.1820    1.7500    2.9450 hx        1 49G      0.193500
     33 C8          4.9470    1.6190    9.9680 c3        1 49G     -0.065000
     34 H62         2.6400    0.5650    5.6200 hn        1 49G      0.241000
@<TRIPOS>BOND
     1    1    3 1   
     2    1   18 1   
     3    2    4 1   
     4    2   17 1   
     5    2   19 1   
     6    3    5 1   
     7    3   16 1   
     8    4    8 1   
     9    6    7 1   
    10    6    9 1   
    11    6   21 1   
    12    6   22 1   
    13    7   14 1   
    14    8   10 1   
    15    8   20 1   
    16    9   11 1   
    17    9   13 1   
    18   10   12 1   
    19   10   26 1   
    20   10   27 1   
    21   11   15 1   
    22   11   29 1   
    23   11   30 1   
    24   12   15 1   
    25   12   31 1   
    26   12   32 1   
    27   13   14 1   
    28   14   33 1   
    29   15   28 1   
    30   15   34 1   
    31   23   33 1   
    32   24   33 1   
    33   25   33 1   
@<TRIPOS>SUBSTRUCTURE
     1 49G         1 TEMP              0 ****  ****    0 ROOT
