@<TRIPOS>MOLECULE
49G
   34    32     1     0     0
SMALL
bcc


@<TRIPOS>ATOM
      1 C16        -0.0810   -1.5010    7.2900 c2        1 49G      0.156000
      2 C14         5.3810    1.4290   -0.0980 c1        1 49G     -0.166000
      3 C15        -0.0570   -0.1320    7.4360 c2        1 49G     -0.174000
      4 C12         4.2990    1.9350    0.0110 c1        1 49G     -0.100000
      5 C13         1.0630    0.5300    7.7960 c1        1 49G      0.057000
      6 C4          5.0360    2.7760    6.7310 c3        1 49G     -0.286000
      7 C5          4.1910    2.4460    7.9440 c1        1 49G      0.082000
      8 C9          3.0620    2.5080    0.1260 cu        1 49G     -0.076000
      9 C3          4.2230    2.1480    5.5850 c2        1 49G     -0.043000
     10 C11         2.0160    3.1330   -0.3900 cu        1 49G     -0.117000
     11 C7          4.7180    2.2480    4.1740 c3        1 49G     -0.019000
     12 C10         1.9430    2.8210    1.0630 cx        1 49G     -0.157000
     13 N1          3.1230    1.5710    6.0270 n2        1 49G     -0.085000
     14 N2          3.1150    1.7510    7.4210 n3        1 49G     -0.173000
     15 N6          4.0460    1.3740    3.2530 n3        1 49G     -0.358000
     16 H1         -0.9750    0.4600    7.2220 ha        1 49G      0.196000
     17 H2          6.3370    0.9820   -0.2100 ha        1 49G      0.236000
     18 H3         -1.0000   -2.0190    6.9570 ha        1 49G      0.171500
     19 H4          0.5000   -1.9060    5.0940 ha        1 49G      0.003500
     20 H5          0.7050   -2.0860    4.4710 ha        1 49G      0.003500
     21 H6          6.0560    2.3210    6.8180 hc        1 49G      0.182000
     22 H7          5.1500    3.8830    6.6070 hc        1 49G      0.182000
     23 H8          2.2130    1.4560    9.3090 h4        1 49G      0.257000
     24 H9          2.1440    1.6430   11.3520 ha        1 49G      0.003500
     25 H10         2.6670    2.0550   11.4830 ha        1 49G      0.003500
     26 H11         0.7980   -2.1380    7.4980 ha        1 49G      0.171500
     27 H12         1.5020    3.5760   -1.2190 ha        1 49G      0.204000
     28 H13         3.1270    1.7000    3.0300 hn        1 49G      0.174000
     29 H14         5.8160    1.9780    4.1960 h1        1 49G      0.104500
     30 H15         4.6420    3.3470    3.9030 h1        1 49G      0.104500
     31 H16         2.0520    3.6280    1.8120 hc        1 49G      0.090500
     32 H17         1.2800    2.0140    1.4280 hc        1 49G      0.090500
     33 C8          2.0940    1.2360    8.2090 c2        1 49G      0.107000
     34 H62         4.5800    1.2630    2.4110 hn        1 49G      0.174000
@<TRIPOS>BOND
     1    1    3 1   
     2    1   18 1   
     3    1   26 1   
     4    2    4 1   
     5    2   17 1   
     6    3    5 1   
     7    3   16 1   
     8    4    8 1   
     9    5   33 1   
    10    6    7 1   
    11    6    9 1   
    12    6   21 1   
    13    6   22 1   
    14    7   14 1   
    15    8   10 1   
    16    8   12 1   
    17    9   11 1   
    18    9   13 1   
    19   10   12 1   
    20   10   27 1   
    21   11   15 1   
    22   11   29 1   
    23   11   30 1   
    24   12   31 1   
    25   12   32 1   
    26   13   14 1   
    27   14   33 1   
    28   15   28 1   
    29   15   34 1   
    30   19   20 1   
    31   23   33 1   
    32   24   25 1   
@<TRIPOS>SUBSTRUCTURE
     1 49G         1 TEMP              0 ****  ****    0 ROOT
