@<TRIPOS>MOLECULE
49J
   42    45     1     0     0
SMALL
bcc


@<TRIPOS>ATOM
      1 CAJ        -0.1420    0.3130    0.2700 c3        1 49J      0.157300
      2 CAH         1.3650    0.5930    0.3000 c3        1 49J      0.120900
      3 OAO         1.9220    0.3000    1.5740 os        1 49J     -0.408600
      4 CAI         1.7010   -1.0540    1.9490 c3        1 49J      0.120900
      5 CAK         0.2110   -1.4230    1.9600 c3        1 49J      0.157300
      6 NAX        -0.4700   -1.0280    0.7380 nh        1 49J     -0.597400
      7 CAU        -1.7700   -1.4340    0.5250 cc        1 49J      0.141600
      8 SAP        -2.6490   -1.0490   -0.8850 ss        1 49J      0.278900
      9 NAM        -3.9870   -1.9160   -0.5780 nc        1 49J     -0.308500
     10 CAV        -3.8550   -2.5530    0.5870 ca        1 49J     -0.086300
     11 CAG        -4.8110   -3.4220    1.2190 ca        1 49J     -0.076000
     12 CAW        -2.5860   -2.3030    1.2960 ca        1 49J      0.154300
     13 NAL        -2.3180   -2.8540    2.5300 nb        1 49J     -0.620000
     14 CAE        -3.2350   -3.6290    3.0590 ca        1 49J      0.388200
     15 CAS        -4.5080   -3.9570    2.4430 cp        1 49J     -0.115300
     16 CAR        -5.4280   -4.8420    3.1480 cp        1 49J     -0.063000
     17 CAF        -4.9430   -5.9520    3.8520 ca        1 49J     -0.134000
     18 CAD        -6.8060   -4.5950    3.1330 ca        1 49J     -0.096000
     19 CAC        -7.6900   -5.4340    3.7980 ca        1 49J     -0.176000
     20 CAQ        -7.2330   -6.5730    4.4970 ca        1 49J      0.139600
     21 NAB        -8.1330   -7.4730    5.0710 nh        1 49J     -0.809200
     22 CAT        -5.8240   -6.8000    4.5190 ca        1 49J      0.049100
     23 OAN        -5.3860   -7.8670    5.2940 os        1 49J     -0.345900
     24 CAA        -4.2170   -8.5240    4.8150 c3        1 49J      0.118700
     25 H1         -0.5050    0.4210   -0.7920 h1        1 49J      0.062950
     26 H2         -0.6630    1.0890    0.9040 h1        1 49J      0.062950
     27 H3          1.5510    1.6890    0.1530 h1        1 49J      0.059200
     28 H4          1.8950    0.0000   -0.4920 h1        1 49J      0.059200
     29 H5          2.2710   -1.7300    1.2590 h1        1 49J      0.059200
     30 H6          2.1140   -1.1270    2.9900 h1        1 49J      0.059200
     31 H7         -0.2770   -0.9480    2.8590 h1        1 49J      0.062950
     32 H8          0.1400   -2.5420    2.0610 h1        1 49J      0.062950
     33 H12        -5.7570   -3.6400    0.7010 ha        1 49J      0.157000
     34 H13        -3.0070   -4.0490    4.0570 h4        1 49J      0.024100
     35 H14        -3.8630   -6.1590    3.8720 ha        1 49J      0.141000
     36 H15        -7.1960   -3.7200    2.5910 ha        1 49J      0.138000
     37 H16        -8.7680   -5.2130    3.7670 ha        1 49J      0.138000
     38 H17        -7.7170   -8.1100    5.7150 hn        1 49J      0.397300
     39 H18        -8.9700   -7.0530    5.4090 hn        1 49J      0.397300
     40 H19        -4.2710   -8.7000    3.7140 h1        1 49J      0.043367
     41 H20        -3.3110   -7.9200    5.0690 h1        1 49J      0.043367
     42 H21        -4.2080   -9.4930    5.3740 h1        1 49J      0.043367
@<TRIPOS>BOND
     1    1    2 1   
     2    1    6 1   
     3    1   25 1   
     4    1   26 1   
     5    2    3 1   
     6    2   27 1   
     7    2   28 1   
     8    3    4 1   
     9    4    5 1   
    10    4   29 1   
    11    4   30 1   
    12    5    6 1   
    13    5   31 1   
    14    5   32 1   
    15    6    7 1   
    16    7    8 1   
    17    7   12 2   
    18    8    9 1   
    19    9   10 2   
    20   10   11 ar  
    21   10   12 ar  
    22   11   15 ar  
    23   11   33 1   
    24   12   13 ar  
    25   13   14 ar  
    26   14   15 ar  
    27   14   34 1   
    28   15   16 1   
    29   16   17 ar  
    30   16   18 ar  
    31   17   22 ar  
    32   17   35 1   
    33   18   19 ar  
    34   18   36 1   
    35   19   20 ar  
    36   19   37 1   
    37   20   21 1   
    38   20   22 ar  
    39   21   38 1   
    40   21   39 1   
    41   22   23 1   
    42   23   24 1   
    43   24   40 1   
    44   24   41 1   
    45   24   42 1   
@<TRIPOS>SUBSTRUCTURE
     1 49J         1 TEMP              0 ****  ****    0 ROOT
