@<TRIPOS>MOLECULE
49J
   42    45     1     0     0
SMALL
bcc


@<TRIPOS>ATOM
      1 CAJ        -0.1390    0.3140    0.2740 c3        1 49J      0.157300
      2 CAH         1.3690    0.5900    0.3020 c3        1 49J      0.120900
      3 OAO         1.9270    0.2940    1.5740 os        1 49J     -0.408600
      4 CAI         1.7050   -1.0610    1.9470 c3        1 49J      0.120900
      5 CAK         0.2140   -1.4270    1.9600 c3        1 49J      0.157300
      6 NAX        -0.4690   -1.0280    0.7400 nh        1 49J     -0.597400
      7 CAU        -1.7690   -1.4310    0.5290 cc        1 49J      0.141600
      8 SAP        -2.6510   -1.0400   -0.8790 ss        1 49J      0.278900
      9 NAM        -3.9900   -1.9060   -0.5720 nc        1 49J     -0.308500
     10 CAV        -3.8570   -2.5460    0.5910 ca        1 49J     -0.086300
     11 CAG        -4.8130   -3.4160    1.2230 ca        1 49J     -0.076000
     12 CAW        -2.5860   -2.3000    1.2980 ca        1 49J      0.154300
     13 NAL        -2.3170   -2.8550    2.5310 nb        1 49J     -0.620000
     14 CAE        -3.2340   -3.6300    3.0590 ca        1 49J      0.388200
     15 CAS        -4.5090   -3.9540    2.4450 cp        1 49J     -0.115300
     16 CAR        -5.4290   -4.8390    3.1490 cp        1 49J     -0.063000
     17 CAF        -4.9450   -5.9520    3.8490 ca        1 49J     -0.134000
     18 CAD        -6.8060   -4.5900    3.1380 ca        1 49J     -0.096000
     19 CAC        -7.6910   -5.4300    3.8020 ca        1 49J     -0.176000
     20 CAQ        -7.2340   -6.5710    4.4970 ca        1 49J      0.139600
     21 NAB        -8.1350   -7.4710    5.0690 nv        1 49J     -0.809200
     22 CAT        -5.8260   -6.8010    4.5160 ca        1 49J      0.049100
     23 OAN        -5.3880   -7.8700    5.2870 os        1 49J     -0.345900
     24 CAA        -4.2220   -8.5290    4.8020 c3        1 49J      0.118700
     25 H1         -0.5030    0.4240   -0.7870 h1        1 49J      0.062950
     26 H2         -0.6570    1.0890    0.9110 h1        1 49J      0.062950
     27 H3          1.8960   -0.0020   -0.4920 h1        1 49J      0.059200
     28 H4          1.5570    1.6860    0.1570 h1        1 49J      0.059200
     29 H5          2.1190   -1.1370    2.9870 h1        1 49J      0.059200
     30 H6          2.2720   -1.7370    1.2540 h1        1 49J      0.059200
     31 H7         -0.2720   -0.9540    2.8600 h1        1 49J      0.062950
     32 H8          0.1410   -2.5470    2.0580 h1        1 49J      0.062950
     33 H12        -5.7600   -3.6310    0.7060 ha        1 49J      0.157000
     34 H13        -3.0050   -4.0530    4.0550 h4        1 49J      0.024100
     35 H14        -3.8650   -6.1620    3.8660 ha        1 49J      0.141000
     36 H15        -7.1960   -3.7120    2.5990 ha        1 49J      0.138000
     37 H16        -8.7690   -5.2060    3.7730 ha        1 49J      0.138000
     38 H17        -7.7190   -8.1110    5.7110 hn        1 49J      0.397300
     39 H18        -8.9710   -7.0510    5.4110 hn        1 49J      0.397300
     40 H19        -3.3140   -7.9280    5.0560 h1        1 49J      0.043367
     41 H20        -4.2140   -9.5000    5.3590 h1        1 49J      0.043367
     42 H21        -4.2800   -8.7010    3.7010 h1        1 49J      0.043367
@<TRIPOS>BOND
     1    1    2 1   
     2    1    6 1   
     3    1   25 1   
     4    1   26 1   
     5    2    3 1   
     6    2   27 1   
     7    2   28 1   
     8    3    4 1   
     9    4    5 1   
    10    4   29 1   
    11    4   30 1   
    12    5    6 1   
    13    5   31 1   
    14    5   32 1   
    15    6    7 1   
    16    7    8 1   
    17    7   12 2   
    18    8    9 1   
    19    9   10 2   
    20   10   11 ar  
    21   10   12 ar  
    22   11   15 ar  
    23   11   33 1   
    24   12   13 ar  
    25   13   14 ar  
    26   14   15 ar  
    27   14   34 1   
    28   15   16 1   
    29   16   17 ar  
    30   16   18 ar  
    31   17   22 ar  
    32   17   35 1   
    33   18   19 ar  
    34   18   36 1   
    35   19   20 ar  
    36   19   37 1   
    37   20   21 1   
    38   20   22 ar  
    39   21   38 1   
    40   21   39 1   
    41   22   23 1   
    42   23   24 1   
    43   24   40 1   
    44   24   41 1   
    45   24   42 1   
@<TRIPOS>SUBSTRUCTURE
     1 49J         1 TEMP              0 ****  ****    0 ROOT
