@<TRIPOS>MOLECULE
49K
   37    38     1     0     0
SMALL
bcc


@<TRIPOS>ATOM
      1 CAM         0.1680   -0.1470    0.0240 ca        1 49K     -0.083500
      2 CAN         1.5490   -0.2990    0.0220 ca        1 49K     -0.167000
      3 CAO         2.2300   -0.4910    1.2420 ca        1 49K      0.181900
      4 FAP         3.5700   -0.6370    1.2500 f         1 49K     -0.098900
      5 CAQ         1.5120   -0.5340    2.4550 ca        1 49K     -0.167000
      6 CAR         0.1320   -0.3760    2.4410 ca        1 49K     -0.083500
      7 CAL        -0.5470   -0.1680    1.2310 ca        1 49K     -0.136000
      8 CAK        -1.9920   -0.0310    1.2270 cc        1 49K      0.061700
      9 NAJ        -2.8490   -0.8230    0.4750 na        1 49K      0.029400
     10 NAI        -4.1380   -0.5170    0.6620 nc        1 49K     -0.440800
     11 CAH        -4.1840    0.5040    1.5460 cd        1 49K      0.336200
     12 CAG        -2.8350    0.8720    1.9440 cd        1 49K     -0.425600
     13 CAF        -2.4570    1.8660    2.9250 c3        1 49K      0.260100
     14 NAB        -2.2530    3.2490    2.2540 nx        1 49K     -0.703400
     15 CAA        -3.5610    3.8330    1.8690 c3        1 49K      0.068100
     16 CAC        -1.4840    4.1410    3.1620 c3        1 49K      0.076800
     17 CAD        -1.1370    5.5090    2.5380 c3        1 49K      0.075800
     18 NAE        -0.2970    6.3480    3.4360 nz        1 49K     -0.834600
     19 H1         -0.3620   -0.0180   -0.9340 ha        1 49K      0.149500
     20 H2          2.1170   -0.2930   -0.9240 ha        1 49K      0.179000
     21 H3          2.0500   -0.7260    3.3970 ha        1 49K      0.179000
     22 H4         -0.4330   -0.4600    3.3840 ha        1 49K      0.149500
     23 H5         -2.5940   -1.5890   -0.1190 hn        1 49K      0.363700
     24 H6         -5.1310    0.9220    1.8970 h4        1 49K      0.064100
     25 H7         -3.2560    2.0130    3.7060 hx        1 49K      0.105200
     26 H8         -1.4740    1.6020    3.4130 hx        1 49K      0.105200
     27 H10        -3.4080    4.7210    1.2000 hx        1 49K      0.113033
     28 H11        -4.1350    4.1310    2.7860 hx        1 49K      0.113033
     29 H12        -4.1510    3.0510    1.3070 hx        1 49K      0.113033
     30 H13        -2.1000    4.2880    4.0980 hx        1 49K      0.119700
     31 H14        -0.5310    3.6000    3.4460 hx        1 49K      0.119700
     32 H15        -0.5690    5.3690    1.5690 hx        1 49K      0.134200
     33 H16        -2.0840    6.0890    2.3190 hx        1 49K      0.134200
     34 H17         0.5980    5.8850    3.6420 hn        1 49K      0.483800
     35 H18        -0.7820    6.5350    4.3240 hn        1 49K      0.483800
     36 HAB1       -1.7090    3.0850    1.3950 hn        1 49K      0.455800
     37 HAE3       -0.1010    7.2500    2.9740 hn        1 49K      0.483800
@<TRIPOS>BOND
     1    1    2 ar  
     2    1    7 ar  
     3    1   19 1   
     4    2    3 ar  
     5    2   20 1   
     6    3    4 1   
     7    3    5 ar  
     8    5    6 ar  
     9    5   21 1   
    10    6    7 ar  
    11    6   22 1   
    12    7    8 1   
    13    8    9 1   
    14    8   12 2   
    15    9   10 1   
    16    9   23 1   
    17   10   11 2   
    18   11   12 1   
    19   11   24 1   
    20   12   13 1   
    21   13   14 1   
    22   13   25 1   
    23   13   26 1   
    24   14   15 1   
    25   14   16 1   
    26   14   36 1   
    27   15   27 1   
    28   15   28 1   
    29   15   29 1   
    30   16   17 1   
    31   16   30 1   
    32   16   31 1   
    33   17   18 1   
    34   17   32 1   
    35   17   33 1   
    36   18   34 1   
    37   18   35 1   
    38   18   37 1   
@<TRIPOS>SUBSTRUCTURE
     1 49K         1 TEMP              0 ****  ****    0 ROOT
