@<TRIPOS>MOLECULE
49K
   37    38     1     0     0
SMALL
bcc


@<TRIPOS>ATOM
      1 CAM         0.1720   -0.1390    0.0170 ca        1 49K     -0.083500
      2 CAN         1.5530   -0.2890    0.0140 ca        1 49K     -0.167000
      3 CAO         2.2340   -0.4840    1.2340 ca        1 49K      0.181900
      4 FAP         3.5740   -0.6280    1.2420 f         1 49K     -0.098900
      5 CAQ         1.5150   -0.5320    2.4470 ca        1 49K     -0.167000
      6 CAR         0.1350   -0.3760    2.4330 ca        1 49K     -0.083500
      7 CAL        -0.5440   -0.1650    1.2240 ca        1 49K     -0.136000
      8 CAK        -1.9880   -0.0300    1.2200 cc        1 49K      0.061700
      9 NAJ        -2.8450   -0.8200    0.4650 na        1 49K      0.029400
     10 NAI        -4.1340   -0.5160    0.6530 nc        1 49K     -0.440800
     11 CAH        -4.1810    0.5010    1.5400 cd        1 49K      0.336200
     12 CAG        -2.8330    0.8690    1.9400 cd        1 49K     -0.425600
     13 CAF        -2.4570    1.8610    2.9240 c3        1 49K      0.260100
     14 NAB        -2.2550    3.2460    2.2580 n4        1 49K     -0.703400
     15 CAA        -3.5640    3.8310    1.8760 c3        1 49K      0.068100
     16 CAC        -1.4860    4.1360    3.1680 c3        1 49K      0.076800
     17 CAD        -1.1420    5.5080    2.5490 c3        1 49K      0.075800
     18 NAE        -0.3030    6.3440    3.4490 n4        1 49K     -0.834600
     19 H1         -0.3580   -0.0080   -0.9400 ha        1 49K      0.149500
     20 H2          2.1210   -0.2800   -0.9310 ha        1 49K      0.179000
     21 H3          2.0530   -0.7260    3.3890 ha        1 49K      0.179000
     22 H4         -0.4290   -0.4630    3.3750 ha        1 49K      0.149500
     23 H5         -2.5880   -1.5840   -0.1310 hn        1 49K      0.363700
     24 H6         -5.1290    0.9170    1.8930 h4        1 49K      0.064100
     25 H7         -3.2560    2.0050    3.7050 hx        1 49K      0.105200
     26 H8         -1.4730    1.5970    3.4110 hx        1 49K      0.105200
     27 H10        -4.1380    4.1250    2.7940 hx        1 49K      0.113033
     28 H11        -3.4130    4.7210    1.2100 hx        1 49K      0.113033
     29 H12        -4.1530    3.0500    1.3120 hx        1 49K      0.113033
     30 H13        -0.5320    3.5960    3.4490 hx        1 49K      0.119700
     31 H14        -2.1020    4.2800    4.1060 hx        1 49K      0.119700
     32 H15        -0.5760    5.3720    1.5790 hx        1 49K      0.134200
     33 H16        -2.0910    6.0870    2.3330 hx        1 49K      0.134200
     34 H17         0.5940    5.8830    3.6510 hn        1 49K      0.483800
     35 H18        -0.7870    6.5270    4.3380 hn        1 49K      0.483800
     36 HAB1       -1.7110    3.0870    1.3970 hn        1 49K      0.455800
     37 HAE3       -0.1090    7.2480    2.9900 hn        1 49K      0.483800
@<TRIPOS>BOND
     1    1    2 ar  
     2    1    7 ar  
     3    1   19 1   
     4    2    3 ar  
     5    2   20 1   
     6    3    4 1   
     7    3    5 ar  
     8    5    6 ar  
     9    5   21 1   
    10    6    7 ar  
    11    6   22 1   
    12    7    8 1   
    13    8    9 1   
    14    8   12 2   
    15    9   10 1   
    16    9   23 1   
    17   10   11 2   
    18   11   12 1   
    19   11   24 1   
    20   12   13 1   
    21   13   14 1   
    22   13   25 1   
    23   13   26 1   
    24   14   15 1   
    25   14   16 1   
    26   14   36 1   
    27   15   27 1   
    28   15   28 1   
    29   15   29 1   
    30   16   17 1   
    31   16   30 1   
    32   16   31 1   
    33   17   18 1   
    34   17   32 1   
    35   17   33 1   
    36   18   34 1   
    37   18   35 1   
    38   18   37 1   
@<TRIPOS>SUBSTRUCTURE
     1 49K         1 TEMP              0 ****  ****    0 ROOT
