@<TRIPOS>MOLECULE
49L
   72    75     1     0     0
SMALL
bcc


@<TRIPOS>ATOM
      1 C1          0.8240   -1.3420   -0.0690 c3        1 49L      0.082800
      2 O1         -0.2410   -9.5380    1.6530 os        1 49L     -0.406600
      3 C2          2.2580   -1.2100    0.4860 c3        1 49L      0.065800
      4 N2          3.8960    0.3240    5.6130 na        1 49L      0.028400
      5 C3          2.4250    1.2410    0.3970 c3        1 49L      0.073100
      6 C4          3.8760   -0.0330    1.9710 c3        1 49L      0.243100
      7 C5          3.7250   -0.0870    3.4200 cc        1 49L     -0.405600
      8 C6          4.1600    0.8700    4.3700 cd        1 49L     -0.043300
      9 C7          3.2090   -1.1890    4.2250 cc        1 49L      0.369800
     10 C8          2.6140   -2.3980    3.6770 ca        1 49L     -0.163500
     11 N1          2.5110    0.0390    1.2630 n4        1 49L     -0.693400
     12 N           0.3120   -2.7430   -0.0380 n4        1 49L     -0.760000
     13 C          -0.8730   -2.9200   -0.9150 c3        1 49L      0.080100
     14 N3          3.3300   -0.8830    5.5460 nd        1 49L     -0.426800
     15 C24         1.2330   -2.6100    3.7990 ca        1 49L     -0.094500
     16 C23         0.6240   -3.6390    3.0870 ca        1 49L     -0.191000
     17 C11         1.4120   -4.4620    2.2620 ca        1 49L      0.085100
     18 C10         2.8100   -4.3530    2.2610 ca        1 49L     -0.191000
     19 C9          3.4090   -3.3210    2.9820 ca        1 49L     -0.094500
     20 O           0.7460   -5.2640    1.3540 os        1 49L     -0.411900
     21 C12         1.0050   -6.6750    1.4690 cy        1 49L      0.121100
     22 C15         0.2390   -7.3750    2.6160 cy        1 49L     -0.117900
     23 C14        -0.5840   -8.1770    1.5700 cy        1 49L      0.144100
     24 C13         0.1540   -7.4290    0.4180 cy        1 49L     -0.117900
     25 C17        -0.6380  -11.8130    1.1750 c3        1 49L     -0.080400
     26 C18        -1.6080  -12.8510    0.6370 c3        1 49L     -0.063700
     27 C22        -1.1670  -14.2430    1.0740 c3        1 49L     -0.110900
     28 C21        -2.0590  -15.3080    0.4610 c3        1 49L      0.125400
     29 O2         -2.1110  -15.2030   -0.9580 os        1 49L     -0.405600
     30 C20        -2.5730  -13.9340   -1.4010 c3        1 49L      0.125400
     31 C19        -1.7010  -12.8030   -0.8810 c3        1 49L     -0.110900
     32 H1          0.8150   -0.9930   -1.1450 hx        1 49L      0.122700
     33 H2          0.0880   -0.7060    0.5050 hx        1 49L      0.122700
     34 H3          2.9860   -1.2310   -0.3780 hx        1 49L      0.131200
     35 H4          2.5040   -2.0820    1.1740 hx        1 49L      0.131200
     36 H5          4.1070    0.7240    6.5090 hn        1 49L      0.368700
     37 H6          2.5510    2.1620    1.0300 hx        1 49L      0.110700
     38 H7          3.2370    1.2140   -0.3800 hx        1 49L      0.110700
     39 H8          1.4230    1.2750   -0.1080 hx        1 49L      0.110700
     40 H9          4.4070   -0.9530    1.5890 hx        1 49L      0.112200
     41 H10         4.4670    0.8790    1.6620 hx        1 49L      0.112200
     42 H11         4.6350    1.8470    4.2390 h4        1 49L      0.211000
     43 H13         1.0480   -3.4060   -0.3290 hn        1 49L      0.478300
     44 H15        -1.2340   -3.9830   -0.8090 hx        1 49L      0.122033
     45 H16        -1.6880   -2.2130   -0.6010 hx        1 49L      0.122033
     46 H17        -0.5930   -2.7250   -1.9850 hx        1 49L      0.122033
     47 H18         0.6350   -1.9730    4.4730 ha        1 49L      0.172000
     48 H19        -0.4530   -3.8450    3.1970 ha        1 49L      0.174500
     49 H20         3.4270   -5.0860    1.7160 ha        1 49L      0.174500
     50 H21         4.5080   -3.2330    3.0080 ha        1 49L      0.172000
     51 H22         2.1010   -6.8640    1.4370 h1        1 49L      0.076700
     52 H23         0.8830   -8.0160    3.2570 hc        1 49L      0.077200
     53 H24        -0.3760   -6.6920    3.2370 hc        1 49L      0.077200
     54 H25        -1.6840   -8.0080    1.5990 h1        1 49L      0.065700
     55 H26        -0.5040   -6.7740   -0.1880 hc        1 49L      0.077200
     56 H27         0.7570   -8.0970   -0.2350 hc        1 49L      0.077200
     57 H28        -1.2900  -10.1230   -0.0600 h1        1 49L      0.033700
     58 H29        -2.1860  -10.3020    1.5270 h1        1 49L      0.033700
     59 H30         0.3440  -11.8900    0.6400 hc        1 49L      0.061200
     60 H31        -0.4420  -12.0090    2.2630 hc        1 49L      0.061200
     61 H32        -2.6310  -12.6520    1.0650 hc        1 49L      0.050700
     62 H33        -1.2070  -14.3250    2.1900 hc        1 49L      0.050200
     63 H34        -0.1060  -14.4140    0.7530 hc        1 49L      0.050200
     64 H35        -3.0990  -15.2380    0.8790 h1        1 49L      0.052950
     65 H36        -1.6450  -16.3350    0.6410 h1        1 49L      0.052950
     66 H37        -2.5230  -14.0020   -2.5200 h1        1 49L      0.052950
     67 H38        -3.6380  -13.7880   -1.0760 h1        1 49L      0.052950
     68 H39        -2.1350  -11.8250   -1.2110 hc        1 49L      0.050200
     69 H40        -0.6740  -12.8940   -1.3220 hc        1 49L      0.050200
     70 H111        1.7950    0.1170    2.0010 hn        1 49L      0.457800
     71 HN3         0.0550   -3.0020    0.9340 hn        1 49L      0.478300
     72 C16        -1.1900  -10.4080    1.0200 c3        1 49L      0.129400
@<TRIPOS>BOND
     1    1    3 1   
     2    1   12 1   
     3    1   32 1   
     4    1   33 1   
     5    2   23 1   
     6    2   72 1   
     7    3   11 1   
     8    3   34 1   
     9    3   35 1   
    10    4    8 1   
    11    4   14 1   
    12    4   36 1   
    13    5   11 1   
    14    5   37 1   
    15    5   38 1   
    16    5   39 1   
    17    6    7 1   
    18    6   11 1   
    19    6   40 1   
    20    6   41 1   
    21    7    8 2   
    22    7    9 1   
    23    8   42 1   
    24    9   10 1   
    25    9   14 2   
    26   10   15 ar  
    27   10   19 ar  
    28   11   70 1   
    29   12   13 1   
    30   12   43 1   
    31   12   71 1   
    32   13   44 1   
    33   13   45 1   
    34   13   46 1   
    35   15   16 ar  
    36   15   47 1   
    37   16   17 ar  
    38   16   48 1   
    39   17   18 ar  
    40   17   20 1   
    41   18   19 ar  
    42   18   49 1   
    43   19   50 1   
    44   20   21 1   
    45   21   22 1   
    46   21   24 1   
    47   21   51 1   
    48   22   23 1   
    49   22   52 1   
    50   22   53 1   
    51   23   24 1   
    52   23   54 1   
    53   24   55 1   
    54   24   56 1   
    55   25   26 1   
    56   25   59 1   
    57   25   60 1   
    58   25   72 1   
    59   26   27 1   
    60   26   31 1   
    61   26   61 1   
    62   27   28 1   
    63   27   62 1   
    64   27   63 1   
    65   28   29 1   
    66   28   64 1   
    67   28   65 1   
    68   29   30 1   
    69   30   31 1   
    70   30   66 1   
    71   30   67 1   
    72   31   68 1   
    73   31   69 1   
    74   57   72 1   
    75   58   72 1   
@<TRIPOS>SUBSTRUCTURE
     1 49L         1 TEMP              0 ****  ****    0 ROOT
