@<TRIPOS>MOLECULE
49N
   28    29     1     0     0
SMALL
bcc


@<TRIPOS>ATOM
      1 C10        -0.0230    0.0630   -0.1190 ca        1 49N     -0.260300
      2 C5          1.3590   -0.0840   -0.0470 ca        1 49N     -0.048000
      3 C9         -0.7350    0.2170    1.0860 ca        1 49N      0.436200
      4 C2          1.9860   -0.0740    1.2030 ca        1 49N     -0.269600
      5 C1          1.1940    0.0830    2.3780 ca        1 49N      0.640200
      6 C14         2.2910    1.2440    5.8160 c3        1 49N      0.161800
      7 C15         2.5860   -1.1550    5.6700 c3        1 49N      0.161800
      8 C7          1.4780    1.2260    4.5050 c3        1 49N      0.168300
      9 C8          1.7900   -1.1740    4.3490 c3        1 49N      0.168300
     10 C6          3.5000   -0.2210    1.2820 c3        1 49N      0.708200
     11 N4         -0.1640    0.2250    2.2970 nb        1 49N     -0.695000
     12 N16         2.2550   -0.0250    6.5150 n3        1 49N     -0.821200
     13 N3          1.8730    0.1080    3.6490 nh        1 49N     -0.726300
     14 F11         4.1150   -0.3620    0.0580 f         1 49N     -0.235633
     15 F12         4.1560    0.8430    1.8480 f         1 49N     -0.235633
     16 F13         3.9350   -1.3190    1.9830 f         1 49N     -0.235633
     17 H1         -0.5470    0.0610   -1.0830 ha        1 49N      0.155000
     18 H2          1.9600   -0.2040   -0.9630 ha        1 49N      0.161000
     19 H3         -1.8350    0.3370    1.0820 h4        1 49N      0.030100
     20 H5          3.3440    1.5740    5.5790 h1        1 49N      0.038950
     21 H6          2.3270   -2.0920    6.2380 h1        1 49N      0.038950
     22 H7          3.6870   -1.1940    5.4190 h1        1 49N      0.038950
     23 H8          0.3810    1.1980    4.7640 h1        1 49N      0.053700
     24 H9          1.6880    2.1780    3.9450 h1        1 49N      0.053700
     25 H10         0.7220   -1.4590    4.5700 h1        1 49N      0.053700
     26 H11         2.2410   -1.9590    3.6800 h1        1 49N      0.053700
     27 H12         2.8700    0.0020    7.3070 hn        1 49N      0.365800
     28 H4          1.8300    2.0180    6.4920 h1        1 49N      0.038950
@<TRIPOS>BOND
     1    1    2 ar  
     2    1    3 ar  
     3    1   17 1   
     4    2    4 ar  
     5    2   18 1   
     6    3   11 ar  
     7    3   19 1   
     8    4    5 ar  
     9    4   10 1   
    10    5   11 ar  
    11    5   13 1   
    12    6    8 1   
    13    6   12 1   
    14    6   20 1   
    15    6   28 1   
    16    7    9 1   
    17    7   12 1   
    18    7   21 1   
    19    7   22 1   
    20    8   13 1   
    21    8   23 1   
    22    8   24 1   
    23    9   13 1   
    24    9   25 1   
    25    9   26 1   
    26   10   14 1   
    27   10   15 1   
    28   10   16 1   
    29   12   27 1   
@<TRIPOS>SUBSTRUCTURE
     1 49N         1 TEMP              0 ****  ****    0 ROOT
