@<TRIPOS>MOLECULE
49N
   28    29     1     0     0
SMALL
bcc


@<TRIPOS>ATOM
      1 C10        -0.0180    0.0670   -0.1210 ca        1 49N     -0.260300
      2 C5          1.3640   -0.0810   -0.0480 ca        1 49N     -0.048000
      3 C9         -0.7320    0.2200    1.0820 ca        1 49N      0.436200
      4 C2          1.9890   -0.0730    1.2040 ca        1 49N     -0.269600
      5 C1          1.1960    0.0840    2.3770 ca        1 49N      0.640200
      6 C14         2.2880    1.2420    5.8180 c3        1 49N      0.161800
      7 C15         2.5810   -1.1570    5.6700 c3        1 49N      0.161800
      8 C7          1.4770    1.2250    4.5050 c3        1 49N      0.168300
      9 C8          1.7870   -1.1750    4.3480 c3        1 49N      0.168300
     10 C6          3.5030   -0.2210    1.2850 c3        1 49N      0.708200
     11 N4         -0.1620    0.2280    2.2950 nb        1 49N     -0.695000
     12 N16         2.2500   -0.0280    6.5160 n7        1 49N     -0.821200
     13 N3          1.8730    0.1080    3.6490 nh        1 49N     -0.726300
     14 F11         4.1200   -0.3620    0.0610 f         1 49N     -0.235633
     15 F12         4.1590    0.8420    1.8520 f         1 49N     -0.235633
     16 F13         3.9360   -1.3190    1.9850 f         1 49N     -0.235633
     17 H1         -0.5410    0.0670   -1.0860 ha        1 49N      0.155000
     18 H2          1.9660   -0.2020   -0.9630 ha        1 49N      0.161000
     19 H3         -1.8310    0.3410    1.0760 h4        1 49N      0.030100
     20 H5          3.3420    1.5710    5.5820 h1        1 49N      0.038950
     21 H6          3.6820   -1.1980    5.4210 h1        1 49N      0.038950
     22 H7          2.3200   -2.0950    6.2370 h1        1 49N      0.038950
     23 H8          0.3800    1.1990    4.7630 h1        1 49N      0.053700
     24 H9          1.6890    2.1780    3.9470 h1        1 49N      0.053700
     25 H10         2.2390   -1.9600    3.6800 h1        1 49N      0.053700
     26 H11         0.7190   -1.4590    4.5670 h1        1 49N      0.053700
     27 H12         2.8640   -0.0020    7.3090 hn        1 49N      0.365800
     28 H4          1.8270    2.0160    6.4940 h1        1 49N      0.038950
@<TRIPOS>BOND
     1    1    2 ar  
     2    1    3 ar  
     3    1   17 1   
     4    2    4 ar  
     5    2   18 1   
     6    3   11 ar  
     7    3   19 1   
     8    4    5 ar  
     9    4   10 1   
    10    5   11 ar  
    11    5   13 1   
    12    6    8 1   
    13    6   12 1   
    14    6   20 1   
    15    6   28 1   
    16    7    9 1   
    17    7   12 1   
    18    7   21 1   
    19    7   22 1   
    20    8   13 1   
    21    8   23 1   
    22    8   24 1   
    23    9   13 1   
    24    9   25 1   
    25    9   26 1   
    26   10   14 1   
    27   10   15 1   
    28   10   16 1   
    29   12   27 1   
@<TRIPOS>SUBSTRUCTURE
     1 49N         1 TEMP              0 ****  ****    0 ROOT
