@<TRIPOS>MOLECULE
49O
   26    27     1     0     0
SMALL
bcc


@<TRIPOS>ATOM
      1 C8          3.4200   -0.0060    1.3060 cg        1 49O      0.252800
      2 C12        -0.0040    0.0040   -0.1180 ca        1 49O     -0.256300
      3 C7          1.3850   -0.0000   -0.0450 ca        1 49O     -0.060000
      4 C9         -0.7340    0.0060    1.0850 ca        1 49O      0.426200
      5 C3          2.0050   -0.0020    1.2150 ca        1 49O     -0.107300
      6 C1          1.1900    0.0010    2.3890 ca        1 49O      0.621200
      7 C10         2.3930    1.2100    5.7690 c3        1 49O      0.161800
      8 C11         2.3840   -1.2130    5.7710 c3        1 49O      0.161800
      9 C5          1.6070    1.2120    4.4410 c3        1 49O      0.166800
     10 C6          1.5970   -1.2110    4.4430 c3        1 49O      0.166800
     11 N13         4.5810   -0.0090    1.3870 n1        1 49O     -0.358800
     12 N4         -0.1740    0.0040    2.3030 nb        1 49O     -0.692000
     13 N14         2.1920   -0.0000    6.5410 n7        1 49O     -0.820200
     14 N2          1.8630   -0.0010    3.6650 nh        1 49O     -0.721300
     15 H1         -0.5230    0.0050   -1.0860 ha        1 49O      0.153000
     16 H2          1.9980   -0.0020   -0.9590 ha        1 49O      0.152000
     17 H3         -1.8410    0.0090    1.0750 h4        1 49O      0.029100
     18 H4          2.0210    2.0740    6.3880 h1        1 49O      0.038200
     19 H5          3.4830    1.3940    5.5370 h1        1 49O      0.038200
     20 H6          2.0050   -2.0730    6.3910 h1        1 49O      0.038200
     21 H7          3.4720   -1.4060    5.5390 h1        1 49O      0.038200
     22 H8          0.5110    1.3450    4.6700 h1        1 49O      0.051700
     23 H9          1.9510    2.0910    3.8300 h1        1 49O      0.051700
     24 H10         0.5000   -1.3350    4.6720 h1        1 49O      0.051700
     25 H11         1.9350   -2.0940    3.8330 h1        1 49O      0.051700
     26 H12         2.7980   -0.0020    7.3400 hn        1 49O      0.365800
@<TRIPOS>BOND
     1    1    5 1   
     2    1   11 3   
     3    2    3 ar  
     4    2    4 ar  
     5    2   15 1   
     6    3    5 ar  
     7    3   16 1   
     8    4   12 ar  
     9    4   17 1   
    10    5    6 ar  
    11    6   12 ar  
    12    6   14 1   
    13    7    9 1   
    14    7   13 1   
    15    7   18 1   
    16    7   19 1   
    17    8   10 1   
    18    8   13 1   
    19    8   20 1   
    20    8   21 1   
    21    9   14 1   
    22    9   22 1   
    23    9   23 1   
    24   10   14 1   
    25   10   24 1   
    26   10   25 1   
    27   13   26 1   
@<TRIPOS>SUBSTRUCTURE
     1 49O         1 TEMP              0 ****  ****    0 ROOT
