@<TRIPOS>MOLECULE
49P
   23    23     1     0     0
SMALL
bcc


@<TRIPOS>ATOM
      1 C16        -0.3980   -1.5940   -0.0480 c2        1 49P     -0.133000
      2 C15         0.3460    1.7970    0.5400 c1        1 49P      0.268000
      3 C14         0.3620   -2.0930    0.9250 c2        1 49P     -0.225000
      4 C9          0.5970    0.1900    2.1280 cv        1 49P     -0.425000
      5 C6         -0.9390    0.6320    4.1770 c1        1 49P     -0.444000
      6 C3         -0.1620    0.0520    3.3140 cv        1 49P      0.231000
      7 C8          1.1600    1.3340    1.4840 c2        1 49P     -0.333000
      8 C7          0.9800   -1.2510    1.9760 cy        1 49P      0.161000
      9 C5         -1.7360    1.2570    5.0010 c2        1 49P      0.150000
     10 C4          2.5230    1.8530    1.9010 c3        1 49P      0.476000
     11 N2          0.1710   -2.3590    4.1070 n2        1 49P     -0.044000
     12 N1          0.2630   -1.4110    3.3590 n3        1 49P      0.051000
     13 F10         2.5410    2.5490    3.0860 f         1 49P     -0.175667
     14 F11         3.4790    0.8800    2.0760 f         1 49P     -0.175667
     15 F12         3.1020    2.7220    1.0040 f         1 49P     -0.175667
     16 H1          0.6150   -3.1650    0.9790 ha        1 49P      0.133000
     17 H2         -0.8020   -2.2230   -0.8530 ha        1 49P      0.130000
     18 H3         -0.6510   -0.5230   -0.1070 ha        1 49P      0.130000
     19 H4          2.0810   -1.4640    2.0640 h1        1 49P      0.130000
     20 H5         -0.3380   -2.1840    4.9720 hn        1 49P      0.182000
     21 H6         -1.3780    1.9580    5.7760 h4        1 49P      0.132000
     22 H7         -3.5150    1.6770    5.5430 ho        1 49P      0.216000
     23 O13        -3.0950    1.0410    4.9470 oh        1 49P     -0.261000
@<TRIPOS>BOND
     1    1    3 1   
     2    1   17 1   
     3    1   18 1   
     4    2    7 1   
     5    3    8 1   
     6    3   16 1   
     7    4    6 1   
     8    4    7 1   
     9    4    8 1   
    10    5    6 1   
    11    5    9 1   
    12    6   12 1   
    13    7   10 1   
    14    8   12 1   
    15    8   19 1   
    16    9   21 1   
    17    9   23 1   
    18   10   13 1   
    19   10   14 1   
    20   10   15 1   
    21   11   12 1   
    22   11   20 1   
    23   22   23 1   
@<TRIPOS>SUBSTRUCTURE
     1 49P         1 TEMP              0 ****  ****    0 ROOT
