@<TRIPOS>MOLECULE
49Q
   36    33     1     0     0
SMALL
bcc


@<TRIPOS>ATOM
      1 C17        -1.8070   -0.6750    0.4250 c1        1 49Q     -0.035000
      2 C14         2.2530    1.8360    0.2960 c2        1 49Q     -0.158000
      3 C15        -1.0690   -0.2070    1.5380 c2        1 49Q     -0.569000
      4 C11         2.3740    0.8780    1.1600 c1        1 49Q     -0.204000
      5 C12        -1.6360    0.0050    2.7180 c1        1 49Q      0.369000
      6 C5          3.2870    3.0720    6.7550 c1        1 49Q     -0.168000
      7 C6          2.0330   -2.3370    6.7160 c1        1 49Q     -0.221000
      8 C2          2.3080    2.7570    5.7570 c3        1 49Q      0.005000
      9 C3          3.1210   -1.9610    6.3910 c1        1 49Q     -0.221000
     10 C8          4.0990    3.3530    7.5880 c1        1 49Q     -0.148000
     11 C9          2.5140   -0.1090    2.0130 c2        1 49Q     -0.053000
     12 C1          2.4310    1.3570    5.2860 c2        1 49Q     -0.231000
     13 C7          2.5360   -0.0150    3.4380 c2        1 49Q     -0.279000
     14 C13         4.5800    3.4730    9.9880 c3        1 49Q     -0.197000
     15 C16         5.6600    3.8260   10.9960 c3        1 49Q     -0.024000
     16 O18         5.1900    3.7210   12.3250 oh        1 49Q     -0.322000
     17 O4          2.4440    1.2100    3.9730 os        1 49Q      0.097000
     18 H1          0.0290    0.0030    1.4640 ha        1 49Q      0.189000
     19 H2          3.1230    2.3740   -0.1110 ha        1 49Q      0.127500
     20 H3         -1.2260   -0.8130   -0.5020 ha        1 49Q      0.040000
     21 H4          1.2770    2.1700   -0.0850 ha        1 49Q      0.127500
     22 H5          2.6340   -1.1440    1.6350 ha        1 49Q      0.150000
     23 H6          2.4050    3.4740    4.8910 hc        1 49Q      0.117500
     24 H7          1.0660   -2.6690    7.0020 ha        1 49Q      0.222500
     25 H8          1.2740    2.8930    6.1910 hc        1 49Q      0.117500
     26 H9          2.5260    0.4970    5.9570 h4        1 49Q      0.170000
     27 H10         6.0100    3.0850    8.4010 hc        1 49Q      0.101500
     28 H11         5.3680    4.7810    8.4450 hc        1 49Q      0.101500
     29 H12         4.0930   -1.6390    6.1120 ha        1 49Q      0.222500
     30 H13         2.6370   -0.8850    4.0950 h4        1 49Q      0.164000
     31 H14         3.6720    4.1030   10.1800 hc        1 49Q      0.094500
     32 H15         4.2760    2.4020   10.1200 hc        1 49Q      0.094500
     33 H16         5.9710    4.9010   10.8930 h1        1 49Q      0.085000
     34 H17         6.5590    3.1680   10.8520 h1        1 49Q      0.085000
     35 H18         4.8740    2.8180   12.4480 ho        1 49Q      0.197000
     36 C10         5.0800    3.6980    8.5720 c3        1 49Q     -0.048000
@<TRIPOS>BOND
     1    1    3 1   
     2    1   20 1   
     3    2    4 1   
     4    2   19 1   
     5    2   21 1   
     6    3    5 1   
     7    3   18 1   
     8    4   11 1   
     9    6    8 1   
    10    6   10 1   
    11    7    9 1   
    12    7   24 1   
    13    8   12 1   
    14    8   23 1   
    15    8   25 1   
    16    9   29 1   
    17   10   36 1   
    18   11   13 1   
    19   11   22 1   
    20   12   17 1   
    21   12   26 1   
    22   13   17 1   
    23   13   30 1   
    24   14   15 1   
    25   14   31 1   
    26   14   32 1   
    27   14   36 1   
    28   15   16 1   
    29   15   33 1   
    30   15   34 1   
    31   16   35 1   
    32   27   36 1   
    33   28   36 1   
@<TRIPOS>SUBSTRUCTURE
     1 49Q         1 TEMP              0 ****  ****    0 ROOT
