@<TRIPOS>MOLECULE
49R
   39    40     1     0     0
SMALL
bcc


@<TRIPOS>ATOM
      1 C17         0.7070   -0.2880    0.1610 ca        1 49R     -0.139000
      2 C18         1.9290   -0.7840    0.6200 ca        1 49R     -0.076000
      3 C12        -0.2470    0.1500    1.0730 ca        1 49R     -0.083000
      4 C13         2.2040   -0.8390    1.9800 ca        1 49R     -0.156000
      5 C5          0.0050    0.1000    2.4480 ca        1 49R     -0.157300
      6 C4          1.2480   -0.3860    2.9170 ca        1 49R      0.125600
      7 C1         -0.9810    1.9780    6.9290 c         1 49R      0.632100
      8 C8         -1.0670    0.5330    3.3860 c3        1 49R     -0.039100
      9 C11         0.4860   -0.1990    5.2140 c3        1 49R      0.181800
     10 C9         -0.4600    0.9330    4.7340 c3        1 49R      0.114500
     11 C14        -1.1410    2.6920    9.8090 c3        1 49R     -0.129767
     12 C15         1.1870    2.3220    8.9150 c3        1 49R     -0.129767
     13 C16        -0.0400    0.4440   10.0560 c3        1 49R     -0.129767
     14 C10        -0.1610    1.7050    9.2150 c3        1 49R      0.200800
     15 N2          1.5800   -0.3370    4.2890 nh        1 49R     -0.720600
     16 N3         -1.5330    1.2110    5.7570 n4        1 49R     -0.648800
     17 O7         -0.8320    3.1900    6.8620 o         1 49R     -0.428000
     18 O6         -0.7320    1.1500    7.9460 os        1 49R     -0.423900
     19 H1          0.4980   -0.2460   -0.9190 ha        1 49R      0.154000
     20 H2          2.6840   -1.1350   -0.1020 ha        1 49R      0.154000
     21 H3         -1.2130    0.5380    0.7120 ha        1 49R      0.140000
     22 H4          3.1760   -1.2270    2.3240 ha        1 49R      0.149000
     23 H5         -1.7940   -0.3160    3.5200 hc        1 49R      0.068700
     24 H6         -1.6280    1.4010    2.9460 hc        1 49R      0.068700
     25 H7          0.9190    0.0610    6.2230 h1        1 49R      0.055200
     26 H8         -0.1190   -1.1480    5.3230 h1        1 49R      0.055200
     27 H9          0.1230    1.8980    4.6130 hx        1 49R      0.138700
     28 H10        -0.7750    3.0020   10.8190 hc        1 49R      0.073033
     29 H11        -1.2280    3.6040    9.1700 hc        1 49R      0.073033
     30 H12        -2.1490    2.2250    9.9230 hc        1 49R      0.073033
     31 H13         1.0750    3.2550    8.3100 hc        1 49R      0.073033
     32 H14         1.8350    1.6010    8.3610 hc        1 49R      0.073033
     33 H15         1.6890    2.5840    9.8800 hc        1 49R      0.073033
     34 H16         0.3710    0.7270   11.0560 hc        1 49R      0.073033
     35 H17         0.6500   -0.2880    9.5720 hc        1 49R      0.073033
     36 H18        -1.0380   -0.0360   10.1940 hc        1 49R      0.073033
     37 H19         2.2470   -1.0270    4.5720 hn        1 49R      0.426800
     38 H20        -2.2660    1.7810    5.3170 hn        1 49R      0.469800
     39 H32        -1.9360    0.3250    6.0850 hn        1 49R      0.469800
@<TRIPOS>BOND
     1    1    2 ar  
     2    1    3 ar  
     3    1   19 1   
     4    2    4 ar  
     5    2   20 1   
     6    3    5 ar  
     7    3   21 1   
     8    4    6 ar  
     9    4   22 1   
    10    5    6 ar  
    11    5    8 1   
    12    6   15 1   
    13    7   16 1   
    14    7   17 2   
    15    7   18 1   
    16    8   10 1   
    17    8   23 1   
    18    8   24 1   
    19    9   10 1   
    20    9   15 1   
    21    9   25 1   
    22    9   26 1   
    23   10   16 1   
    24   10   27 1   
    25   11   14 1   
    26   11   28 1   
    27   11   29 1   
    28   11   30 1   
    29   12   14 1   
    30   12   31 1   
    31   12   32 1   
    32   12   33 1   
    33   13   14 1   
    34   13   34 1   
    35   13   35 1   
    36   13   36 1   
    37   14   18 1   
    38   15   37 1   
    39   16   38 1   
    40   16   39 1   
@<TRIPOS>SUBSTRUCTURE
     1 49R         1 TEMP              0 ****  ****    0 ROOT
