@<TRIPOS>MOLECULE
49R
   39    40     1     0     0
SMALL
bcc


@<TRIPOS>ATOM
      1 C17         0.7320   -0.2930    0.1650 ca        1 49R     -0.139000
      2 C18         1.9390   -0.8160    0.6330 ca        1 49R     -0.076000
      3 C12        -0.2200    0.1640    1.0690 ca        1 49R     -0.083000
      4 C13         2.2000   -0.8800    1.9960 ca        1 49R     -0.156000
      5 C5          0.0180    0.1050    2.4460 ca        1 49R     -0.157300
      6 C4          1.2460   -0.4080    2.9250 ca        1 49R      0.125600
      7 C1         -0.9680    1.9960    6.9220 c         1 49R      0.632100
      8 C8         -1.0530    0.5590    3.3750 c3        1 49R     -0.039100
      9 C11         0.4670   -0.2110    5.2150 c3        1 49R      0.181800
     10 C9         -0.4490    0.9440    4.7300 c3        1 49R      0.114500
     11 C14        -1.1370    2.7060    9.8020 c3        1 49R     -0.129767
     12 C15         1.1910    2.2920    8.9270 c3        1 49R     -0.129767
     13 C16        -0.0830    0.4350   10.0530 c3        1 49R     -0.129767
     14 C10        -0.1720    1.7010    9.2140 c3        1 49R      0.200800
     15 N2          1.5660   -0.3700    4.3000 nu        1 49R     -0.720600
     16 N3         -1.5250    1.2420    5.7440 ny        1 49R     -0.648800
     17 O7         -0.7930    3.2040    6.8590 o         1 49R     -0.428000
     18 O6         -0.7440    1.1610    7.9390 os        1 49R     -0.423900
     19 H1          0.5340   -0.2430   -0.9170 ha        1 49R      0.154000
     20 H2          2.6920   -1.1830   -0.0830 ha        1 49R      0.154000
     21 H3         -1.1740    0.5740    0.7010 ha        1 49R      0.140000
     22 H4          3.1600   -1.2910    2.3470 ha        1 49R      0.149000
     23 H5         -1.8000   -0.2730    3.5010 hc        1 49R      0.068700
     24 H6         -1.5910    1.4410    2.9320 hc        1 49R      0.068700
     25 H7          0.8970    0.0380    6.2290 h1        1 49R      0.055200
     26 H8         -0.1600   -1.1460    5.3170 h1        1 49R      0.055200
     27 H9          0.1560    1.8960    4.6160 hx        1 49R      0.138700
     28 H10        -0.7740    3.0060   10.8160 hc        1 49R      0.073033
     29 H11        -2.1550    2.2600    9.9070 hc        1 49R      0.073033
     30 H12        -1.2000    3.6210    9.1650 hc        1 49R      0.073033
     31 H13         1.1020    3.2280    8.3230 hc        1 49R      0.073033
     32 H14         1.8290    1.5590    8.3760 hc        1 49R      0.073033
     33 H15         1.6900    2.5420    9.8960 hc        1 49R      0.073033
     34 H16         0.5960   -0.3090    9.5730 hc        1 49R      0.073033
     35 H17         0.3250    0.7080   11.0570 hc        1 49R      0.073033
     36 H18        -1.0920   -0.0240   10.1810 hc        1 49R      0.073033
     37 H19         2.2150   -1.0760    4.5880 hn        1 49R      0.426800
     38 H20        -1.9500    0.3650    6.0660 hn        1 49R      0.469800
     39 H32        -2.2420    1.8290    5.2980 hn        1 49R      0.469800
@<TRIPOS>BOND
     1    1    2 ar  
     2    1    3 ar  
     3    1   19 1   
     4    2    4 ar  
     5    2   20 1   
     6    3    5 ar  
     7    3   21 1   
     8    4    6 ar  
     9    4   22 1   
    10    5    6 ar  
    11    5    8 1   
    12    6   15 1   
    13    7   16 1   
    14    7   17 2   
    15    7   18 1   
    16    8   10 1   
    17    8   23 1   
    18    8   24 1   
    19    9   10 1   
    20    9   15 1   
    21    9   25 1   
    22    9   26 1   
    23   10   16 1   
    24   10   27 1   
    25   11   14 1   
    26   11   28 1   
    27   11   29 1   
    28   11   30 1   
    29   12   14 1   
    30   12   31 1   
    31   12   32 1   
    32   12   33 1   
    33   13   14 1   
    34   13   34 1   
    35   13   35 1   
    36   13   36 1   
    37   14   18 1   
    38   15   37 1   
    39   16   38 1   
    40   16   39 1   
@<TRIPOS>SUBSTRUCTURE
     1 49R         1 TEMP              0 ****  ****    0 ROOT
