@<TRIPOS>MOLECULE
49U
   57    59     1     0     0
SMALL
bcc


@<TRIPOS>ATOM
      1 C47         7.1350   -1.9740   -0.8520 c3        1 49U     -0.078900
      2 C45         6.0460   -0.9160   -0.7340 c3        1 49U     -0.077400
      3 C44         5.5180   -0.9760    0.7000 c3        1 49U     -0.067700
      4 C49         5.8890   -2.3610    1.2300 c3        1 49U     -0.077400
      5 C48         7.0420   -2.8700    0.3760 c3        1 49U     -0.078900
      6 C21         4.0260   -0.7270    0.7940 c3        1 49U     -0.068400
      7 C5          3.6820    0.7040    0.4390 c3        1 49U     -0.143400
      8 C14         2.1900    0.9470    0.5480 c         1 49U      0.664100
      9 O32         1.4280    0.1410    1.1230 o         1 49U     -0.626100
     10 N1          1.6670    2.0850   -0.0470 n         1 49U     -0.465800
     11 C1          0.2890    2.5080    0.1700 c3        1 49U      0.033700
     12 C7         -0.7030    1.8660   -0.8290 c         1 49U      0.651100
     13 O22        -1.4490    2.5680   -1.5420 o         1 49U     -0.623100
     14 C2          0.2680    4.0480    0.0540 c3        1 49U     -0.088400
     15 C3          1.6370    4.4630   -0.4710 c3        1 49U     -0.090400
     16 C4          2.4960    3.1880   -0.4990 c3        1 49U      0.088000
     17 N23        -0.7250    0.4900   -0.8900 n         1 49U     -0.551900
     18 C24        -1.6820   -0.2200   -1.6960 c3        1 49U      0.130300
     19 C25        -2.9710   -0.5560   -0.9980 ca        1 49U     -0.106300
     20 C30        -3.9000    0.4560   -0.7330 ca        1 49U     -0.121500
     21 C29        -5.1110    0.1530   -0.1140 ca        1 49U     -0.109000
     22 C28        -5.3980   -1.1670    0.2480 ca        1 49U     -0.195900
     23 C9         -6.6840   -1.5110    0.9350 ce        1 49U      0.639800
     24 N46        -6.7610   -2.2060    2.0330 n2        1 49U     -0.837100
     25 N47        -7.8330   -0.9610    0.3280 nh        1 49U     -0.893800
     26 C27        -4.4690   -2.1800   -0.0110 ca        1 49U     -0.109000
     27 C26        -3.2600   -1.8740   -0.6330 ca        1 49U     -0.121500
     28 H47         8.1430   -1.4910   -0.9050 hc        1 49U      0.040950
     29 H47A        7.0030   -2.5690   -1.7900 hc        1 49U      0.040950
     30 H45         5.2210   -1.1270   -1.4610 hc        1 49U      0.042450
     31 H45A        6.4450    0.1010   -0.9670 hc        1 49U      0.042450
     32 H44         6.0520   -0.1990    1.3140 hc        1 49U      0.045700
     33 H49         6.1770   -2.3070    2.3080 hc        1 49U      0.042450
     34 H49A        5.0130   -3.0540    1.1510 hc        1 49U      0.042450
     35 H48         8.0000   -2.8380    0.9540 hc        1 49U      0.040950
     36 H48A        6.8700   -3.9350    0.0790 hc        1 49U      0.040950
     37 H21         3.6730   -0.9450    1.8370 hc        1 49U      0.060200
     38 H21A        3.4740   -1.4240    0.1100 hc        1 49U      0.060200
     39 H5          4.0360    0.9320   -0.6020 hc        1 49U      0.067200
     40 H5A         4.2020    1.4100    1.1410 hc        1 49U      0.067200
     41 H1         -0.0460    2.1850    1.2010 h1        1 49U      0.084700
     42 H2         -0.5480    4.3850   -0.6340 hc        1 49U      0.075200
     43 H2A         0.0770    4.4910    1.0620 hc        1 49U      0.075200
     44 H3          1.5550    4.8930   -1.4990 hc        1 49U      0.057200
     45 H3A         2.1050    5.2330    0.1890 hc        1 49U      0.057200
     46 H4          2.8550    2.9720   -1.5430 h1        1 49U      0.046200
     47 H4A         3.3980    3.3030    0.1630 h1        1 49U      0.046200
     48 HN23       -0.2510   -0.0290   -0.1830 hn        1 49U      0.338500
     49 H24        -1.9240    0.4100   -2.6020 h1        1 49U      0.067700
     50 H24A       -1.1880   -1.1720   -2.0460 h1        1 49U      0.067700
     51 H30        -3.6620    1.4950   -1.0190 ha        1 49U      0.147500
     52 H29        -5.8370    0.9540    0.0960 ha        1 49U      0.144000
     53 HN46       -5.8770   -2.4540    2.4200 hn        1 49U      0.394400
     54 HN47       -7.7730   -0.9250   -0.6650 hn        1 49U      0.398300
     55 HN4A       -8.7040   -1.3130    0.6620 hn        1 49U      0.398300
     56 H27        -4.6910   -3.2200    0.2730 ha        1 49U      0.144000
     57 H26        -2.5320   -2.6750   -0.8350 ha        1 49U      0.147500
@<TRIPOS>BOND
     1    1    2 1   
     2    1    5 1   
     3    1   28 1   
     4    1   29 1   
     5    2    3 1   
     6    2   30 1   
     7    2   31 1   
     8    3    4 1   
     9    3    6 1   
    10    3   32 1   
    11    4    5 1   
    12    4   33 1   
    13    4   34 1   
    14    5   35 1   
    15    5   36 1   
    16    6    7 1   
    17    6   37 1   
    18    6   38 1   
    19    7    8 1   
    20    7   39 1   
    21    7   40 1   
    22    8    9 2   
    23    8   10 1   
    24   10   11 1   
    25   10   16 1   
    26   11   12 1   
    27   11   14 1   
    28   11   41 1   
    29   12   13 2   
    30   12   17 1   
    31   14   15 1   
    32   14   42 1   
    33   14   43 1   
    34   15   16 1   
    35   15   44 1   
    36   15   45 1   
    37   16   46 1   
    38   16   47 1   
    39   17   18 1   
    40   17   48 1   
    41   18   19 1   
    42   18   49 1   
    43   18   50 1   
    44   19   20 ar  
    45   19   27 ar  
    46   20   21 ar  
    47   20   51 1   
    48   21   22 ar  
    49   21   52 1   
    50   22   23 1   
    51   22   26 ar  
    52   23   24 2   
    53   23   25 1   
    54   24   53 1   
    55   25   54 1   
    56   25   55 1   
    57   26   27 ar  
    58   26   56 1   
    59   27   57 1   
@<TRIPOS>SUBSTRUCTURE
     1 49U         1 TEMP              0 ****  ****    0 ROOT
