@<TRIPOS>MOLECULE
49U
   59    61     1     0     0
SMALL
bcc


@<TRIPOS>ATOM
      1 C47         0.5400    1.1220    0.9360 c3        1 49U     -0.080400
      2 C45         2.0010    0.7570    0.7090 c3        1 49U     -0.075900
      3 C44         2.7640    1.1670    1.9690 c3        1 49U     -0.072700
      4 C49         1.8970    2.2170    2.6680 c3        1 49U     -0.075900
      5 C48         0.4750    2.0230    2.1620 c3        1 49U     -0.080400
      6 C21         4.1510    1.7050    1.6770 c3        1 49U     -0.066400
      7 C5          5.0540    0.6120    1.1410 c3        1 49U     -0.145400
      8 C14         6.4360    1.1360    0.8460 c         1 49U      0.677100
      9 O32         6.8410    2.2620    1.2170 o         1 49U     -0.661100
     10 N1          7.3120    0.3720    0.0640 n         1 49U     -0.491800
     11 C1          8.7440    0.5800    0.1470 c3        1 49U      0.042700
     12 C7          9.2870    1.6700   -0.7910 c         1 49U      0.537100
     13 O22        10.3860    1.6940   -1.3210 o         1 49U     -0.429100
     14 C2          9.4390   -0.7690   -0.1690 c3        1 49U     -0.085400
     15 C3          8.3310   -1.7310   -0.5820 c3        1 49U     -0.098400
     16 C4          7.0040   -1.0020   -0.3290 c3        1 49U      0.071000
     17 N23         8.3970    2.8750   -0.9990 n4        1 49U     -0.682800
     18 C24         9.0180    4.0110   -1.7410 c3        1 49U      0.152100
     19 C25         9.8200    4.9300   -0.8720 ca        1 49U     -0.113300
     20 C30        11.2120    4.7900   -0.8080 ca        1 49U     -0.088500
     21 C29        11.9730    5.6970   -0.0700 ca        1 49U     -0.088000
     22 C28        11.3380    6.7420    0.6110 ca        1 49U     -0.223900
     23 C9         12.1320    7.6790    1.4410 ce        1 49U      0.572800
     24 N46        12.2710    7.7710    2.7050 n2        1 49U     -0.679100
     25 N47        12.8880    8.6800    0.6080 n4        1 49U     -0.821600
     26 C27         9.9460    6.8780    0.5620 ca        1 49U     -0.088000
     27 C26         9.1900    5.9700   -0.1820 ca        1 49U     -0.088500
     28 H47        -0.0710    0.1990    1.0990 hc        1 49U      0.053700
     29 H47A        0.1220    1.6410    0.0370 hc        1 49U      0.053700
     30 H45         2.1150   -0.3380    0.5150 hc        1 49U      0.039950
     31 H45A        2.4010    1.3010   -0.1840 hc        1 49U      0.039950
     32 H44         2.8590    0.2710    2.6430 hc        1 49U      0.056700
     33 H49         2.2600    3.2470    2.4230 hc        1 49U      0.039950
     34 H49A        1.9520    2.0970    3.7780 hc        1 49U      0.039950
     35 H48        -0.1600    1.5540    2.9550 hc        1 49U      0.053700
     36 H48A        0.0110    3.0090    1.9080 hc        1 49U      0.053700
     37 H21         4.5950    2.1290    2.6160 hc        1 49U      0.056200
     38 H21A        4.0900    2.5410    0.9320 hc        1 49U      0.056200
     39 H5          5.1520   -0.2110    1.9030 hc        1 49U      0.092700
     40 H5A         4.6010    0.1660    0.2130 hc        1 49U      0.092700
     41 H1          9.0340    0.9530    1.1800 h1        1 49U      0.116700
     42 H2         10.2070   -0.6600   -0.9750 hc        1 49U      0.091700
     43 H2A         9.9590   -1.1290    0.7550 hc        1 49U      0.091700
     44 H3          8.3780   -2.6750    0.0160 hc        1 49U      0.087700
     45 H3A         8.4240   -2.0090   -1.6620 hc        1 49U      0.087700
     46 H4          6.3730   -0.9720   -1.2600 h1        1 49U      0.076700
     47 H4A         6.4160   -1.5200    0.4790 h1        1 49U      0.076700
     48 HN23        7.5670    2.5570   -1.5180 hn        1 49U      0.483300
     49 H24         9.6730    3.5810   -2.5580 hx        1 49U      0.123700
     50 H24A        8.1800    4.5930   -2.2280 hx        1 49U      0.123700
     51 H30        11.7120    3.9610   -1.3420 ha        1 49U      0.174500
     52 H29        13.0670    5.5700   -0.0190 ha        1 49U      0.167000
     53 HN46       11.7930    7.1290    3.3050 hn        1 49U      0.497400
     54 HN47       13.4630    8.1710   -0.0720 hn        1 49U      0.477467
     55 HN4A       13.4960    9.2790    1.1880 hn        1 49U      0.477467
     56 H27         9.4380    7.6920    1.1050 ha        1 49U      0.167000
     57 H26         8.0940    6.0910   -0.2260 ha        1 49U      0.174500
     58 H232        8.0740    3.1920   -0.0630 hn        1 49U      0.483300
     59 H473       12.2130    9.2690    0.1100 hn        1 49U      0.477467
@<TRIPOS>BOND
     1    1    2 1   
     2    1    5 1   
     3    1   28 1   
     4    1   29 1   
     5    2    3 1   
     6    2   30 1   
     7    2   31 1   
     8    3    4 1   
     9    3    6 1   
    10    3   32 1   
    11    4    5 1   
    12    4   33 1   
    13    4   34 1   
    14    5   35 1   
    15    5   36 1   
    16    6    7 1   
    17    6   37 1   
    18    6   38 1   
    19    7    8 1   
    20    7   39 1   
    21    7   40 1   
    22    8    9 2   
    23    8   10 1   
    24   10   11 1   
    25   10   16 1   
    26   11   12 1   
    27   11   14 1   
    28   11   41 1   
    29   12   13 2   
    30   12   17 1   
    31   14   15 1   
    32   14   42 1   
    33   14   43 1   
    34   15   16 1   
    35   15   44 1   
    36   15   45 1   
    37   16   46 1   
    38   16   47 1   
    39   17   18 1   
    40   17   48 1   
    41   17   58 1   
    42   18   19 1   
    43   18   49 1   
    44   18   50 1   
    45   19   20 ar  
    46   19   27 ar  
    47   20   21 ar  
    48   20   51 1   
    49   21   22 ar  
    50   21   52 1   
    51   22   23 1   
    52   22   26 ar  
    53   23   24 2   
    54   23   25 1   
    55   24   53 1   
    56   25   54 1   
    57   25   55 1   
    58   25   59 1   
    59   26   27 ar  
    60   26   56 1   
    61   27   57 1   
@<TRIPOS>SUBSTRUCTURE
     1 49U         1 TEMP              0 ****  ****    0 ROOT
