@<TRIPOS>MOLECULE
49U
   59    61     1     0     0
SMALL
bcc


@<TRIPOS>ATOM
      1 C47         0.5450    1.0770    0.8720 c3        1 49U     -0.080400
      2 C45         2.0110    0.7210    0.6670 c3        1 49U     -0.075900
      3 C44         2.7550    1.1500    1.9320 c3        1 49U     -0.072700
      4 C49         1.8730    2.2010    2.6090 c3        1 49U     -0.075900
      5 C48         0.4580    1.9920    2.0870 c3        1 49U     -0.080400
      6 C21         4.1420    1.6940    1.6510 c3        1 49U     -0.066400
      7 C5          5.0590    0.6020    1.1380 c3        1 49U     -0.145400
      8 C14         6.4410    1.1320    0.8560 c         1 49U      0.677100
      9 O32         6.8340    2.2650    1.2190 o         1 49U     -0.661100
     10 N1          7.3320    0.3660    0.0920 n         1 49U     -0.491800
     11 C1          8.7610    0.5850    0.1910 c3        1 49U      0.042700
     12 C7          9.3080    1.6690   -0.7530 c         1 49U      0.537100
     13 O22        10.4130    1.6950   -1.2710 o         1 49U     -0.429100
     14 C2          9.4690   -0.7610   -0.1030 c3        1 49U     -0.085400
     15 C3          8.3740   -1.7360   -0.5180 c3        1 49U     -0.098400
     16 C4          7.0390   -1.0130   -0.2900 c3        1 49U      0.071000
     17 N23         8.4130    2.8660   -0.9840 n4        1 49U     -0.682800
     18 C24         9.0350    3.9980   -1.7310 c3        1 49U      0.152100
     19 C25         9.8220    4.9310   -0.8630 ca        1 49U     -0.113300
     20 C30        11.2140    4.8020   -0.7830 ca        1 49U     -0.088500
     21 C29        11.9610    5.7220   -0.0470 ca        1 49U     -0.088000
     22 C28        11.3120    6.7690    0.6180 ca        1 49U     -0.223900
     23 C9         12.0910    7.7200    1.4460 ce        1 49U      0.572800
     24 N46        12.2170    7.8250    2.7100 n2        1 49U     -0.679100
     25 N47        12.8480    8.7180    0.6110 n4        1 49U     -0.821600
     26 C27         9.9190    6.8950    0.5530 ca        1 49U     -0.088000
     27 C26         9.1770    5.9750   -0.1890 ca        1 49U     -0.088500
     28 H47         0.1340    1.5820   -0.0370 hc        1 49U      0.053700
     29 H47A       -0.0610    0.1510    1.0390 hc        1 49U      0.053700
     30 H45         2.4180    1.2570   -0.2270 hc        1 49U      0.039950
     31 H45A        2.1360   -0.3760    0.4870 hc        1 49U      0.039950
     32 H44         2.8480    0.2630    2.6170 hc        1 49U      0.056700
     33 H49         2.2310    3.2320    2.3570 hc        1 49U      0.039950
     34 H49A        1.9140    2.0940    3.7200 hc        1 49U      0.039950
     35 H48        -0.0090    2.9710    1.8160 hc        1 49U      0.053700
     36 H48A       -0.1840    1.5280    2.8780 hc        1 49U      0.053700
     37 H21         4.5710    2.1320    2.5910 hc        1 49U      0.055700
     38 H21A        4.0840    2.5220    0.8960 hc        1 49U      0.055700
     39 H5          4.6210    0.1430    0.2100 hc        1 49U      0.092700
     40 H5A         5.1540   -0.2110    1.9100 hc        1 49U      0.092700
     41 H1          9.0360    0.9720    1.2230 h1        1 49U      0.116700
     42 H2          9.9810   -1.1070    0.8320 hc        1 49U      0.091700
     43 H2A        10.2470   -0.6550   -0.8990 hc        1 49U      0.091700
     44 H3          8.4820   -2.0250   -1.5940 hc        1 49U      0.087700
     45 H3A         8.4200   -2.6730    0.0900 hc        1 49U      0.087700
     46 H4          6.4440   -1.5270    0.5160 h1        1 49U      0.076700
     47 H4A         6.4190   -0.9980   -1.2290 h1        1 49U      0.076700
     48 HN23        7.5910    2.5370   -1.5080 hn        1 49U      0.483300
     49 H24         9.7020    3.5640   -2.5360 hx        1 49U      0.123700
     50 H24A        8.1980    4.5710   -2.2330 hx        1 49U      0.123700
     51 H30        11.7250    3.9710   -1.3040 ha        1 49U      0.174500
     52 H29        13.0550    5.6030    0.0180 ha        1 49U      0.167000
     53 HN46       11.7380    7.1860    3.3120 hn        1 49U      0.497400
     54 HN47       12.1730    9.2970    0.0990 hn        1 49U      0.477467
     55 HN4A       13.4450    9.3280    1.1900 hn        1 49U      0.477467
     56 H27         9.4000    7.7110    1.0830 ha        1 49U      0.167000
     57 H26         8.0810    6.0870   -0.2460 ha        1 49U      0.174500
     58 H232        8.0770    3.1910   -0.0540 hn        1 49U      0.483300
     59 H473       13.4330    8.2060   -0.0590 hn        1 49U      0.477467
@<TRIPOS>BOND
     1    1    2 1   
     2    1    5 1   
     3    1   28 1   
     4    1   29 1   
     5    2    3 1   
     6    2   30 1   
     7    2   31 1   
     8    3    4 1   
     9    3    6 1   
    10    3   32 1   
    11    4    5 1   
    12    4   33 1   
    13    4   34 1   
    14    5   35 1   
    15    5   36 1   
    16    6    7 1   
    17    6   37 1   
    18    6   38 1   
    19    7    8 1   
    20    7   39 1   
    21    7   40 1   
    22    8    9 2   
    23    8   10 1   
    24   10   11 1   
    25   10   16 1   
    26   11   12 1   
    27   11   14 1   
    28   11   41 1   
    29   12   13 2   
    30   12   17 1   
    31   14   15 1   
    32   14   42 1   
    33   14   43 1   
    34   15   16 1   
    35   15   44 1   
    36   15   45 1   
    37   16   46 1   
    38   16   47 1   
    39   17   18 1   
    40   17   48 1   
    41   17   58 1   
    42   18   19 1   
    43   18   49 1   
    44   18   50 1   
    45   19   20 ar  
    46   19   27 ar  
    47   20   21 ar  
    48   20   51 1   
    49   21   22 ar  
    50   21   52 1   
    51   22   23 1   
    52   22   26 ar  
    53   23   24 2   
    54   23   25 1   
    55   24   53 1   
    56   25   54 1   
    57   25   55 1   
    58   25   59 1   
    59   26   27 ar  
    60   26   56 1   
    61   27   57 1   
@<TRIPOS>SUBSTRUCTURE
     1 49U         1 TEMP              0 ****  ****    0 ROOT
