@<TRIPOS>MOLECULE
49U
   59    61     1     0     0
SMALL
bcc


@<TRIPOS>ATOM
      1 C47         0.5480    1.0760    0.8940 c3        1 49U     -0.080400
      2 C45         2.0130    0.7200    0.6790 c3        1 49U     -0.075900
      3 C44         2.7640    1.1390    1.9430 c3        1 49U     -0.072700
      4 C49         1.8860    2.1840    2.6340 c3        1 49U     -0.075900
      5 C48         0.4680    1.9790    2.1180 c3        1 49U     -0.080400
      6 C21         4.1490    1.6850    1.6590 c3        1 49U     -0.066400
      7 C5          5.0640    0.5970    1.1320 c3        1 49U     -0.145400
      8 C14         6.4440    1.1290    0.8460 c         1 49U      0.677100
      9 O32         6.8390    2.2590    1.2160 o         1 49U     -0.661100
     10 N1          7.3300    0.3690    0.0710 n         1 49U     -0.491800
     11 C1          8.7610    0.5880    0.1640 c3        1 49U      0.042700
     12 C7          9.3020    1.6790   -0.7740 c         1 49U      0.537100
     13 O22        10.4040    1.7090   -1.2970 o         1 49U     -0.429100
     14 C2          9.4660   -0.7570   -0.1450 c3        1 49U     -0.085400
     15 C3          8.3690   -1.7270   -0.5630 c3        1 49U     -0.098400
     16 C4          7.0350   -1.0070   -0.3210 c3        1 49U      0.071000
     17 N23         8.4060    2.8780   -0.9910 ny        1 49U     -0.682800
     18 C24         9.0240    4.0160   -1.7310 c3        1 49U      0.152100
     19 C25         9.8150    4.9420   -0.8590 ca        1 49U     -0.113300
     20 C30        11.2070    4.8120   -0.7860 ca        1 49U     -0.088500
     21 C29        11.9570    5.7260   -0.0460 ca        1 49U     -0.088000
     22 C28        11.3100    6.7670    0.6300 ca        1 49U     -0.223900
     23 C9         12.0930    7.7120    1.4630 ce        1 49U      0.572800
     24 N46        12.2240    7.8070    2.7270 n2        1 49U     -0.679100
     25 N47        12.8470    8.7170    0.6330 nz        1 49U     -0.821600
     26 C27         9.9170    6.8940    0.5720 ca        1 49U     -0.088000
     27 C26         9.1720    5.9800   -0.1740 ca        1 49U     -0.088500
     28 H47        -0.0580    0.1480    1.0560 hc        1 49U      0.053700
     29 H47A        0.1330    1.5890   -0.0080 hc        1 49U      0.053700
     30 H45         2.4150    1.2640   -0.2130 hc        1 49U      0.039950
     31 H45A        2.1360   -0.3750    0.4880 hc        1 49U      0.039950
     32 H44         2.8610    0.2450    2.6200 hc        1 49U      0.056700
     33 H49         1.9330    2.0670    3.7440 hc        1 49U      0.039950
     34 H49A        2.2430    3.2160    2.3890 hc        1 49U      0.039950
     35 H48        -0.0010    2.9610    1.8580 hc        1 49U      0.053700
     36 H48A       -0.1690    1.5080    2.9080 hc        1 49U      0.053700
     37 H21         4.5840    2.1140    2.6000 hc        1 49U      0.056200
     38 H21A        4.0880    2.5190    0.9120 hc        1 49U      0.056200
     39 H5          4.6200    0.1460    0.2020 hc        1 49U      0.092700
     40 H5A         5.1620   -0.2230    1.8970 hc        1 49U      0.092700
     41 H1          9.0410    0.9650    1.1970 h1        1 49U      0.116700
     42 H2          9.9830   -1.1110    0.7840 hc        1 49U      0.091700
     43 H2A        10.2390   -0.6440   -0.9450 hc        1 49U      0.091700
     44 H3          8.4700   -2.0070   -1.6410 hc        1 49U      0.087700
     45 H3A         8.4180   -2.6700    0.0380 hc        1 49U      0.087700
     46 H4          6.4100   -0.9840   -1.2560 h1        1 49U      0.076700
     47 H4A         6.4450   -1.5280    0.4850 h1        1 49U      0.076700
     48 HN23        7.5820    2.5530   -1.5140 hn        1 49U      0.483300
     49 H24         9.6870    3.5890   -2.5430 hx        1 49U      0.123700
     50 H24A        8.1850    4.5920   -2.2250 hx        1 49U      0.123700
     51 H30        11.7160    3.9860   -1.3160 ha        1 49U      0.174500
     52 H29        13.0510    5.6070    0.0130 ha        1 49U      0.167000
     53 HN46       11.7470    7.1630    3.3260 hn        1 49U      0.497400
     54 HN47       12.1690    9.3010    0.1290 hn        1 49U      0.477467
     55 HN4A       13.4470    9.3210    1.2140 hn        1 49U      0.477467
     56 H27         9.4000    7.7050    1.1110 ha        1 49U      0.167000
     57 H26         8.0760    6.0930   -0.2260 ha        1 49U      0.174500
     58 H232        8.0740    3.1950   -0.0570 hn        1 49U      0.483300
     59 H473       13.4280    8.2100   -0.0430 hn        1 49U      0.477467
@<TRIPOS>BOND
     1    1    2 1   
     2    1    5 1   
     3    1   28 1   
     4    1   29 1   
     5    2    3 1   
     6    2   30 1   
     7    2   31 1   
     8    3    4 1   
     9    3    6 1   
    10    3   32 1   
    11    4    5 1   
    12    4   33 1   
    13    4   34 1   
    14    5   35 1   
    15    5   36 1   
    16    6    7 1   
    17    6   37 1   
    18    6   38 1   
    19    7    8 1   
    20    7   39 1   
    21    7   40 1   
    22    8    9 2   
    23    8   10 1   
    24   10   11 1   
    25   10   16 1   
    26   11   12 1   
    27   11   14 1   
    28   11   41 1   
    29   12   13 2   
    30   12   17 1   
    31   14   15 1   
    32   14   42 1   
    33   14   43 1   
    34   15   16 1   
    35   15   44 1   
    36   15   45 1   
    37   16   46 1   
    38   16   47 1   
    39   17   18 1   
    40   17   48 1   
    41   17   58 1   
    42   18   19 1   
    43   18   49 1   
    44   18   50 1   
    45   19   20 ar  
    46   19   27 ar  
    47   20   21 ar  
    48   20   51 1   
    49   21   22 ar  
    50   21   52 1   
    51   22   23 1   
    52   22   26 ar  
    53   23   24 2   
    54   23   25 1   
    55   24   53 1   
    56   25   54 1   
    57   25   55 1   
    58   25   59 1   
    59   26   27 ar  
    60   26   56 1   
    61   27   57 1   
@<TRIPOS>SUBSTRUCTURE
     1 49U         1 TEMP              0 ****  ****    0 ROOT
