@<TRIPOS>MOLECULE
49U
   57    54     1     0     0
SMALL
bcc


@<TRIPOS>ATOM
      1 C47        -5.8500   -2.3340   -2.8960 c3        1 49U     -0.157500
      2 C45        -4.8580   -1.8790   -1.7290 c3        1 49U     -0.156000
      3 C44        -5.3410   -0.3940   -1.2950 c3        1 49U     -0.107000
      4 C49        -6.2190   -0.0140   -2.2600 c3        1 49U     -0.156000
      5 C48        -6.8670   -1.4210   -2.8760 c3        1 49U     -0.157500
      6 C21        -4.1510    0.5540   -1.2670 c3        1 49U     -0.147000
      7 C5         -3.7010    0.8130    0.2300 c3        1 49U     -0.172000
      8 C14        -2.2450    1.3740    0.2470 c1        1 49U      0.308000
      9 O32        -1.7900    1.8830   -0.7290 o         1 49U     -0.388000
     10 N1         -1.4420    1.2570    1.4450 n2        1 49U     -0.324000
     11 C1         -0.1920    1.6670    1.6020 c3        1 49U      0.007000
     12 C7          0.6520    1.6690    0.2940 c1        1 49U      0.294000
     13 O22         0.1170    1.9250   -0.7740 o         1 49U     -0.384000
     14 C2          0.3440    0.6600    2.7350 c3        1 49U     -0.167000
     15 C3         -0.8870   -0.0490    3.2910 c3        1 49U     -0.169000
     16 C4         -1.9020    0.6050    2.8300 c3        1 49U     -0.028000
     17 N23         2.0900    1.5320    0.3640 n2        1 49U     -0.361000
     18 C24         2.8220    1.0270   -0.7770 c3        1 49U      0.007000
     19 C25         4.1970    0.5210   -0.3240 c2        1 49U     -0.099000
     20 C30         4.3040   -0.6820    0.3440 c2        1 49U     -0.119000
     21 C29         5.5680   -1.2080    0.6380 c1        1 49U     -0.100000
     22 C28         6.7110   -0.5190    0.2570 c1        1 49U     -0.112000
     23 C9          8.0860   -1.1050    0.5530 c2        1 49U      0.116000
     24 N46         8.7740   -1.7600   -0.4260 n1        1 49U     -0.305000
     25 N47         8.6650   -0.9690    1.8730 n3        1 49U     -0.332000
     26 C27         6.6010    0.6950   -0.4170 c1        1 49U     -0.118000
     27 C26         5.3560    1.2150   -0.7070 c1        1 49U     -0.123000
     28 H47        -6.2070   -3.2630   -2.7120 hc        1 49U      0.080250
     29 H47A       -5.3870   -2.3090   -3.7640 hc        1 49U      0.080250
     30 H45        -3.9120   -1.8540   -2.0680 hc        1 49U      0.081750
     31 H45A       -4.9280   -2.4930   -0.9680 hc        1 49U      0.081750
     32 H44        -5.7930   -0.4180   -0.3990 hc        1 49U      0.085000
     33 H49        -6.9270    0.5390   -1.8710 hc        1 49U      0.081750
     34 H49A       -5.7400    0.4960   -2.9870 hc        1 49U      0.081750
     35 H48        -7.2030   -1.2680   -3.7940 hc        1 49U      0.080250
     36 H48A       -7.5860   -1.7340   -2.3060 hc        1 49U      0.080250
     37 H21        -4.4030    1.4100   -1.6870 hc        1 49U      0.099500
     38 H21A       -3.4450    0.1730   -1.7390 hc        1 49U      0.099500
     39 H5         -3.7300   -0.0150    0.7240 hc        1 49U      0.107000
     40 H5A        -4.3050    1.4610    0.6460 hc        1 49U      0.107000
     41 H1         -0.1400    2.5980    1.8780 h1        1 49U      0.123000
     42 H2          0.7950    1.1620    3.4460 hc        1 49U      0.114500
     43 H2A         0.9640   -0.0000    2.3390 hc        1 49U      0.114500
     44 H3         -0.9130   -0.9670    2.9820 hc        1 49U      0.097000
     45 H3A        -0.8830   -0.0200    4.2610 hc        1 49U      0.097000
     46 H4         -2.6360    0.0100    2.6840 h1        1 49U      0.086000
     47 H4A        -2.1620    1.3070    3.4600 h1        1 49U      0.086000
     48 HN23        2.5280    1.7840    1.1000 hn        1 49U      0.251000
     49 H24         2.3160    0.2860   -1.1890 h1        1 49U      0.107500
     50 H24A        2.9410    1.7480   -1.4340 h1        1 49U      0.107500
     51 H30         3.5050   -1.1610    0.6080 ha        1 49U      0.160000
     52 H29         5.6450   -2.0420    1.1000 ha        1 49U      0.150000
     53 HN46        8.3950   -1.8530   -1.2940 DU        1 49U      0.150000
     54 HN47        9.4660   -1.3910    2.0720 hn        1 49U      0.193000
     55 HN4A        8.2110   -0.4730    2.5450 hn        1 49U      0.193000
     56 H27         7.4130    1.1830   -0.6870 ha        1 49U      0.138000
     57 H26         5.2810    2.0430   -1.1670 ha        1 49U      0.135000
@<TRIPOS>BOND
     1    1    2 1   
     2    1    5 1   
     3    1   28 1   
     4    1   29 1   
     5    2    3 1   
     6    2   30 1   
     7    2   31 1   
     8    3    4 1   
     9    3    6 1   
    10    3   32 1   
    11    4    5 1   
    12    4   33 1   
    13    4   34 1   
    14    5   35 1   
    15    5   36 1   
    16    6    7 1   
    17    6   37 1   
    18    6   38 1   
    19    7    8 1   
    20    7   39 1   
    21    7   40 1   
    22    8    9 1   
    23   10   11 1   
    24   10   16 1   
    25   11   12 1   
    26   11   14 1   
    27   11   41 1   
    28   12   13 1   
    29   14   15 1   
    30   14   42 1   
    31   14   43 1   
    32   15   16 1   
    33   15   44 1   
    34   15   45 1   
    35   16   46 1   
    36   16   47 1   
    37   17   18 1   
    38   17   48 1   
    39   18   19 1   
    40   18   49 1   
    41   18   50 1   
    42   19   20 1   
    43   19   27 1   
    44   20   21 1   
    45   20   51 1   
    46   21   52 1   
    47   22   23 1   
    48   22   26 1   
    49   23   24 1   
    50   23   25 1   
    51   25   54 1   
    52   25   55 1   
    53   26   56 1   
    54   27   57 1   
@<TRIPOS>SUBSTRUCTURE
     1 49U         1 TEMP              0 ****  ****    0 ROOT
