@<TRIPOS>MOLECULE
49Z
   34    33     1     0     0
SMALL
bcc


@<TRIPOS>ATOM
      1 C16         1.0110    0.7080    1.2320 c2        1 49Z     -0.181000
      2 C17         2.5360    0.7350    5.1650 c1        1 49Z      0.265000
      3 C14         0.1900   -0.2220    1.7230 c2        1 49Z     -0.149000
      4 C13         1.7670    0.2530    4.2080 c2        1 49Z     -0.491000
      5 C4         -2.7930   -1.6810    8.7440 c3        1 49Z     -0.250000
      6 C5         -3.7830   -2.2660    7.8330 c1        1 49Z      0.065000
      7 C7         -0.3920   -0.2100    3.0560 c2        1 49Z     -0.103000
      8 C6          0.3330    0.0190    4.1870 c2        1 49Z      0.123000
      9 C3         -1.4360   -2.2500    8.4090 c2        1 49Z     -0.307000
     10 C2         -3.1740   -3.1720    6.9330 c2        1 49Z     -0.533000
     11 C12        -1.8590   -0.4690    3.1240 c3        1 49Z     -0.157000
     12 C10        -3.8370   -3.8440    5.9610 c2        1 49Z      0.189000
     13 C15        -2.1440   -1.8750    3.6610 c3        1 49Z     -0.085000
     14 N9         -3.5300   -2.1990    3.9000 n3        1 49Z     -0.376000
     15 F8         -0.2800    0.0200    5.4070 f         1 49Z     -0.139000
     16 S1         -1.4470   -3.2760    7.2190 ss        1 49Z      0.846000
     17 H1         -0.1380   -1.0730    1.0970 ha        1 49Z      0.135000
     18 H2          1.3990    0.6530    0.2050 ha        1 49Z      0.129000
     19 H3          1.3330    1.5880    1.8060 ha        1 49Z      0.129000
     20 H4          2.2860   -0.0100    3.2530 ha        1 49Z      0.223000
     21 H5         -2.8010   -0.5550    8.6500 hc        1 49Z      0.208000
     22 H6         -3.0790   -1.8960    9.8160 hc        1 49Z      0.208000
     23 H7         -0.4550   -1.9920   10.2830 hc        1 49Z      0.142333
     24 H8         -0.1400   -0.6940    9.0620 hc        1 49Z      0.142333
     25 H9          0.6670   -2.3150    8.8860 hc        1 49Z      0.142333
     26 H10        -2.3340    0.2980    3.7950 hc        1 49Z      0.105500
     27 H11        -2.3160   -0.3530    2.1050 hc        1 49Z      0.105500
     28 H12        -3.9890   -2.4620    3.0490 hn        1 49Z      0.160500
     29 H13        -4.9290   -3.7130    5.8320 ha        1 49Z      0.169000
     30 H14        -3.3440   -4.5580    5.2800 ha        1 49Z      0.169000
     31 H15        -1.6040   -1.9860    4.6490 h1        1 49Z      0.083500
     32 H16        -1.7080   -2.6310    2.9490 h1        1 49Z      0.083500
     33 H92        -4.0180   -1.4150    4.2920 hn        1 49Z      0.160500
     34 C11        -0.2810   -1.8030    9.1880 c3        1 49Z     -0.218000
@<TRIPOS>BOND
     1    1    3 1   
     2    1   18 1   
     3    1   19 1   
     4    2    4 1   
     5    3    7 1   
     6    3   17 1   
     7    4    8 1   
     8    4   20 1   
     9    5    6 1   
    10    5    9 1   
    11    5   21 1   
    12    5   22 1   
    13    6   10 1   
    14    7    8 1   
    15    7   11 1   
    16    8   15 1   
    17    9   16 1   
    18    9   34 1   
    19   10   12 1   
    20   10   16 1   
    21   11   13 1   
    22   11   26 1   
    23   11   27 1   
    24   12   29 1   
    25   12   30 1   
    26   13   14 1   
    27   13   31 1   
    28   13   32 1   
    29   14   28 1   
    30   14   33 1   
    31   23   34 1   
    32   24   34 1   
    33   25   34 1   
@<TRIPOS>SUBSTRUCTURE
     1 49Z         1 TEMP              0 ****  ****    0 ROOT
