@<TRIPOS>MOLECULE
49Z
   34    33     1     0     0
SMALL
bcc


@<TRIPOS>ATOM
      1 C16         0.9670    0.7690    1.2780 c2        1 49Z     -0.181000
      2 C17         2.4770    0.8230    5.2160 c1        1 49Z      0.265000
      3 C14         0.1720   -0.1870    1.7620 c2        1 49Z     -0.149000
      4 C13         1.7260    0.3230    4.2550 c2        1 49Z     -0.491000
      5 C4         -2.7900   -1.7670    8.7660 c3        1 49Z     -0.250000
      6 C5         -3.7580   -2.3770    7.8500 c1        1 49Z      0.065000
      7 C7         -0.4140   -0.1990    3.0930 c2        1 49Z     -0.103000
      8 C6          0.2990    0.0470    4.2270 c2        1 49Z      0.123000
      9 C3         -1.4140   -2.2920    8.4340 c2        1 49Z     -0.307000
     10 C2         -3.1180   -3.2600    6.9470 c2        1 49Z     -0.533000
     11 C12        -1.8730   -0.5010    3.1540 c3        1 49Z     -0.157000
     12 C10        -3.7580   -3.9480    5.9700 c2        1 49Z      0.189000
     13 C15        -2.1170   -1.9180    3.6840 c3        1 49Z     -0.085000
     14 N9         -3.4940   -2.2840    3.9180 n8        1 49Z     -0.376000
     15 F8         -0.3160    0.0240    5.4450 f         1 49Z     -0.139000
     16 S1         -1.3900   -3.3130    7.2390 ss        1 49Z      0.846000
     17 H1         -0.1280   -1.0440    1.1310 ha        1 49Z      0.135000
     18 H2          1.3590    0.7300    0.2520 ha        1 49Z      0.129000
     19 H3          1.2600    1.6550    1.8570 ha        1 49Z      0.129000
     20 H4          2.2560    0.0800    3.3000 ha        1 49Z      0.223000
     21 H5         -2.8310   -0.6400    8.6770 hc        1 49Z      0.208000
     22 H6         -3.0720   -1.9950    9.8370 hc        1 49Z      0.208000
     23 H7         -0.1680   -0.7010    9.0980 hc        1 49Z      0.142333
     24 H8         -0.4480   -2.0130   10.3120 hc        1 49Z      0.142333
     25 H9          0.6880   -2.2960    8.9170 hc        1 49Z      0.142333
     26 H10        -2.3730    0.2480    3.8280 hc        1 49Z      0.105500
     27 H11        -2.3300   -0.3950    2.1350 hc        1 49Z      0.105500
     28 H12        -3.9420   -2.5580    3.0640 hn        1 49Z      0.161000
     29 H13        -3.2410   -4.6430    5.2880 ha        1 49Z      0.169000
     30 H14        -4.8530   -3.8490    5.8380 ha        1 49Z      0.169000
     31 H15        -1.5770   -2.0170    4.6730 h1        1 49Z      0.083500
     32 H16        -1.6570   -2.6580    2.9700 h1        1 49Z      0.083500
     33 H92        -4.0060   -1.5170    4.3120 hn        1 49Z      0.161000
     34 C11        -0.2760   -1.8150    9.2190 c3        1 49Z     -0.218000
@<TRIPOS>BOND
     1    1    3 1   
     2    1   18 1   
     3    1   19 1   
     4    2    4 1   
     5    3    7 1   
     6    3   17 1   
     7    4    8 1   
     8    4   20 1   
     9    5    6 1   
    10    5    9 1   
    11    5   21 1   
    12    5   22 1   
    13    6   10 1   
    14    7    8 1   
    15    7   11 1   
    16    8   15 1   
    17    9   16 1   
    18    9   34 1   
    19   10   12 1   
    20   10   16 1   
    21   11   13 1   
    22   11   26 1   
    23   11   27 1   
    24   12   29 1   
    25   12   30 1   
    26   13   14 1   
    27   13   31 1   
    28   13   32 1   
    29   14   28 1   
    30   14   33 1   
    31   23   34 1   
    32   24   34 1   
    33   25   34 1   
@<TRIPOS>SUBSTRUCTURE
     1 49Z         1 TEMP              0 ****  ****    0 ROOT
