@<TRIPOS>MOLECULE
4A0
   49    52     1     0     0
SMALL
bcc


@<TRIPOS>ATOM
      1 C20         0.1220   -0.3290   -0.1350 ca        1 4A0     -0.145000
      2 C21         1.5130   -0.2070   -0.0580 ca        1 4A0     -0.045000
      3 C17        -0.6570   -0.2160    1.0130 ca        1 4A0     -0.061000
      4 C18         2.1330    0.0360    1.1650 ca        1 4A0     -0.192000
      5 C5         -0.0570    0.0180    2.2560 ca        1 4A0     -0.214300
      6 C9          1.3450    0.1520    2.3180 ca        1 4A0      0.140100
      7 C10        -3.8710    1.5560    9.5930 c3        1 4A0     -0.073733
      8 C11        -4.4670    3.9210    9.0890 c3        1 4A0     -0.073733
      9 C12        -2.3630    3.4000   10.3200 c3        1 4A0     -0.073733
     10 C6         -3.7710    2.3880    7.2490 c3        1 4A0     -0.067067
     11 C8         -1.6630    1.8700    8.4820 c3        1 4A0     -0.067067
     12 C7         -2.2630    4.2370    7.9780 c3        1 4A0     -0.067067
     13 C2         -4.5200    2.4870    8.5740 c3        1 4A0     -0.061033
     14 C4         -2.4170    1.9660    9.8040 c3        1 4A0     -0.061033
     15 C3         -3.0130    4.3290    9.3010 c3        1 4A0     -0.061033
     16 C1         -2.3080    2.7950    7.4440 c3        1 4A0     -0.047000
     17 C16        -0.8740    0.0480    3.4990 c3        1 4A0      0.190100
     18 C15        -1.5340    2.7720    6.1260 c3        1 4A0     -0.100400
     19 C19        -1.6340    1.4290    5.4160 c3        1 4A0      0.102800
     20 N13        -0.7720    1.3710    4.1970 ny        1 4A0     -0.767000
     21 O14         1.8800    0.4280    3.5580 oh        1 4A0     -0.549100
     22 H1         -0.3580   -0.5200   -1.1080 ha        1 4A0      0.164000
     23 H2          2.1250   -0.3040   -0.9700 ha        1 4A0      0.164000
     24 H3         -1.7510   -0.3260    0.9450 ha        1 4A0      0.148000
     25 H4          3.2270    0.1310    1.2300 ha        1 4A0      0.160000
     26 H7         -4.9540    4.6100    8.3520 hc        1 4A0      0.052033
     27 H8         -5.0270    3.9970   10.0550 hc        1 4A0      0.052033
     28 H9         -1.3000    3.7050   10.4920 hc        1 4A0      0.052033
     29 H10        -2.9050    3.4710   11.2980 hc        1 4A0      0.052033
     30 H11        -3.8290    1.3330    6.8770 hc        1 4A0      0.039033
     31 H12        -4.2510    3.0560    6.4890 hc        1 4A0      0.039033
     32 H13        -0.5930    2.1610    8.6350 hc        1 4A0      0.039033
     33 H14        -1.6890    0.8090    8.1220 hc        1 4A0      0.039033
     34 H15        -2.7300    4.9290    7.2310 hc        1 4A0      0.039033
     35 H16        -1.1970    4.5490    8.1240 hc        1 4A0      0.039033
     36 H17        -5.5890    2.1840    8.4150 hc        1 4A0      0.064033
     37 H18        -1.9370    1.2790   10.5520 hc        1 4A0      0.064033
     38 H19        -2.9700    5.3870    9.6750 hc        1 4A0      0.064033
     39 H20        -0.5000   -0.7370    4.2210 hx        1 4A0      0.106200
     40 H21        -1.9620   -0.1450    3.2740 hx        1 4A0      0.106200
     41 H22        -1.9420    3.5800    5.4590 hc        1 4A0      0.062200
     42 H23        -0.4600    3.0160    6.3470 hc        1 4A0      0.062200
     43 H24        -2.6970    1.2390    5.0930 hx        1 4A0      0.105200
     44 H25        -1.3100    0.5960    6.1030 hx        1 4A0      0.105200
     45 H26        -1.0420    2.1190    3.5500 hn        1 4A0      0.455300
     46 H28         2.8450    0.3470    3.5040 ho        1 4A0      0.459000
     47 H5         -4.4250    1.6140   10.5650 hc        1 4A0      0.052033
     48 H132        0.2110    1.5280    4.4620 hn        1 4A0      0.455300
     49 H6         -3.9220    0.4970    9.2320 hc        1 4A0      0.052033
@<TRIPOS>BOND
     1    1    2 ar  
     2    1    3 ar  
     3    1   22 1   
     4    2    4 ar  
     5    2   23 1   
     6    3    5 ar  
     7    3   24 1   
     8    4    6 ar  
     9    4   25 1   
    10    5    6 ar  
    11    5   17 1   
    12    6   21 1   
    13    7   13 1   
    14    7   14 1   
    15    7   47 1   
    16    7   49 1   
    17    8   13 1   
    18    8   15 1   
    19    8   26 1   
    20    8   27 1   
    21    9   14 1   
    22    9   15 1   
    23    9   28 1   
    24    9   29 1   
    25   10   13 1   
    26   10   16 1   
    27   10   30 1   
    28   10   31 1   
    29   11   14 1   
    30   11   16 1   
    31   11   32 1   
    32   11   33 1   
    33   12   15 1   
    34   12   16 1   
    35   12   34 1   
    36   12   35 1   
    37   13   36 1   
    38   14   37 1   
    39   15   38 1   
    40   16   18 1   
    41   17   20 1   
    42   17   39 1   
    43   17   40 1   
    44   18   19 1   
    45   18   41 1   
    46   18   42 1   
    47   19   20 1   
    48   19   43 1   
    49   19   44 1   
    50   20   45 1   
    51   20   48 1   
    52   21   46 1   
@<TRIPOS>SUBSTRUCTURE
     1 4A0         1 TEMP              0 ****  ****    0 ROOT
