@<TRIPOS>MOLECULE
4A0
   49    52     1     0     0
SMALL
bcc


@<TRIPOS>ATOM
      1 C20         0.1260   -0.3250   -0.1350 ca        1 4A0     -0.145000
      2 C21         1.5160   -0.1940   -0.0600 ca        1 4A0     -0.045000
      3 C17        -0.6520   -0.2150    1.0140 ca        1 4A0     -0.061000
      4 C18         2.1360    0.0540    1.1610 ca        1 4A0     -0.192000
      5 C5         -0.0510    0.0250    2.2560 ca        1 4A0     -0.214300
      6 C9          1.3490    0.1670    2.3150 ca        1 4A0      0.140100
      7 C10        -3.8680    1.5500    9.5950 c3        1 4A0     -0.073733
      8 C11        -4.4730    3.9130    9.0900 c3        1 4A0     -0.073733
      9 C12        -2.3670    3.4000   10.3200 c3        1 4A0     -0.073733
     10 C6         -3.7720    2.3820    7.2500 c3        1 4A0     -0.067067
     11 C8         -1.6620    1.8720    8.4820 c3        1 4A0     -0.067067
     12 C7         -2.2710    4.2370    7.9780 c3        1 4A0     -0.067067
     13 C2         -4.5210    2.4780    8.5760 c3        1 4A0     -0.061033
     14 C4         -2.4160    1.9660    9.8050 c3        1 4A0     -0.061033
     15 C3         -3.0210    4.3270    9.3010 c3        1 4A0     -0.061033
     16 C1         -2.3110    2.7950    7.4440 c3        1 4A0     -0.047000
     17 C16        -0.8660    0.0510    3.5000 c3        1 4A0      0.190100
     18 C15        -1.5380    2.7750    6.1260 c3        1 4A0     -0.100400
     19 C19        -1.6310    1.4300    5.4170 c3        1 4A0      0.102800
     20 N13        -0.7720    1.3760    4.1970 n4        1 4A0     -0.767000
     21 O14         1.8850    0.4480    3.5540 oh        1 4A0     -0.549100
     22 H1         -0.3560   -0.5200   -1.1060 ha        1 4A0      0.164000
     23 H2          2.1270   -0.2880   -0.9740 ha        1 4A0      0.164000
     24 H3         -1.7460   -0.3320    0.9480 ha        1 4A0      0.148000
     25 H4          3.2300    0.1570    1.2240 ha        1 4A0      0.160000
     26 H7         -5.0340    3.9870   10.0560 hc        1 4A0      0.052033
     27 H8         -4.9630    4.5990    8.3530 hc        1 4A0      0.052033
     28 H9         -2.9090    3.4700   11.2980 hc        1 4A0      0.052033
     29 H10        -1.3050    3.7090   10.4910 hc        1 4A0      0.052033
     30 H11        -4.2550    3.0480    6.4900 hc        1 4A0      0.039033
     31 H12        -3.8270    1.3260    6.8780 hc        1 4A0      0.039033
     32 H13        -1.6840    0.8110    8.1230 hc        1 4A0      0.039033
     33 H14        -0.5930    2.1680    8.6340 hc        1 4A0      0.039033
     34 H15        -2.7410    4.9260    7.2310 hc        1 4A0      0.039033
     35 H16        -1.2060    4.5530    8.1230 hc        1 4A0      0.039033
     36 H17        -5.5900    2.1710    8.4170 hc        1 4A0      0.064033
     37 H18        -1.9330    1.2810   10.5530 hc        1 4A0      0.064033
     38 H19        -2.9820    5.3850    9.6750 hc        1 4A0      0.064033
     39 H20        -0.4870   -0.7310    4.2230 hx        1 4A0      0.106200
     40 H21        -1.9530   -0.1480    3.2780 hx        1 4A0      0.106200
     41 H22        -0.4650    3.0230    6.3460 hc        1 4A0      0.062200
     42 H23        -1.9500    3.5790    5.4590 hc        1 4A0      0.062200
     43 H24        -1.3020    0.5990    6.1040 hx        1 4A0      0.105200
     44 H25        -2.6950    1.2340    5.0950 hx        1 4A0      0.105200
     45 H26         0.2110    1.5390    4.4600 hn        1 4A0      0.455300
     46 H28         2.8510    0.3730    3.4980 ho        1 4A0      0.459000
     47 H5         -3.9150    0.4910    9.2340 hc        1 4A0      0.052033
     48 H132       -1.0470    2.1210    3.5490 hn        1 4A0      0.455300
     49 H6         -4.4220    1.6070   10.5670 hc        1 4A0      0.052033
@<TRIPOS>BOND
     1    1    2 ar  
     2    1    3 ar  
     3    1   22 1   
     4    2    4 ar  
     5    2   23 1   
     6    3    5 ar  
     7    3   24 1   
     8    4    6 ar  
     9    4   25 1   
    10    5    6 ar  
    11    5   17 1   
    12    6   21 1   
    13    7   13 1   
    14    7   14 1   
    15    7   47 1   
    16    7   49 1   
    17    8   13 1   
    18    8   15 1   
    19    8   26 1   
    20    8   27 1   
    21    9   14 1   
    22    9   15 1   
    23    9   28 1   
    24    9   29 1   
    25   10   13 1   
    26   10   16 1   
    27   10   30 1   
    28   10   31 1   
    29   11   14 1   
    30   11   16 1   
    31   11   32 1   
    32   11   33 1   
    33   12   15 1   
    34   12   16 1   
    35   12   34 1   
    36   12   35 1   
    37   13   36 1   
    38   14   37 1   
    39   15   38 1   
    40   16   18 1   
    41   17   20 1   
    42   17   39 1   
    43   17   40 1   
    44   18   19 1   
    45   18   41 1   
    46   18   42 1   
    47   19   20 1   
    48   19   43 1   
    49   19   44 1   
    50   20   45 1   
    51   20   48 1   
    52   21   46 1   
@<TRIPOS>SUBSTRUCTURE
     1 4A0         1 TEMP              0 ****  ****    0 ROOT
