@<TRIPOS>MOLECULE
4A1
   29    27     1     0     0
SMALL
bcc


@<TRIPOS>ATOM
      1 C01         1.2740    1.6700    0.6860 c2        1 4A1     -0.231000
      2 C02         2.4070    1.5720    1.3670 c2        1 4A1     -0.231000
      3 C1         -1.8640    1.0100    4.2650 c2        1 4A1     -0.179000
      4 N1         -4.2110    1.7870    4.0000 n2        1 4A1     -0.177000
      5 O1         -1.5440   -1.2720    4.8480 o         1 4A1     -0.450000
      6 S1         -2.1470   -1.5750    0.5320 s6        1 4A1      2.821000
      7 C2         -3.0290    2.0200    4.3780 c2        1 4A1      0.107000
      8 O2         -3.1280   -0.7620    3.3140 o         1 4A1     -0.450000
      9 C3         -2.5920    3.3300    5.0380 c3        1 4A1     -0.143000
     10 O3         -2.1200   -1.9730   -0.8170 o         1 4A1     -0.954000
     11 C4         -1.1690    3.7430    4.8790 c2        1 4A1     -0.103000
     12 O4         -1.3190   -0.4890    0.8740 o         1 4A1     -0.954000
     13 C5         -0.1810    2.8850    4.4960 c2        1 4A1     -0.118000
     14 C6         -0.7570    1.6340    4.2410 c1        1 4A1      0.178000
     15 C8         -1.8730   -2.8920    1.5310 c3        1 4A1     -0.956000
     16 H1         -0.8110   -3.2410    1.4800 h1        1 4A1      0.171000
     17 H2          0.4700    0.9170    0.7420 ha        1 4A1      0.115500
     18 H3          1.0660    2.5100    0.0090 ha        1 4A1      0.115500
     19 H4          3.2110    2.3170    1.3000 ha        1 4A1      0.115500
     20 H5          2.6250    0.7270    2.0340 ha        1 4A1      0.115500
     21 H6         -3.3070   -1.3350    0.8340 hs        1 4A1     -0.473000
     22 H8         -2.8010    3.2150    6.1430 hc        1 4A1      0.148500
     23 H9         -3.2520    4.1590    4.6550 hc        1 4A1      0.148500
     24 H10        -0.9490    4.8060    5.0690 ha        1 4A1      0.175000
     25 H11         0.8750    3.1340    4.3450 ha        1 4A1      0.202000
     26 H12        -2.5070   -3.7780    1.2820 h1        1 4A1      0.171000
     27 H13        -2.0680   -2.6620    2.6160 h1        1 4A1      0.171000
     28 H121       -4.4440    0.9000    3.5890 hn        1 4A1      0.247000
     29 C7         -2.2200   -0.5140    4.1390 c2        1 4A1      0.417000
@<TRIPOS>BOND
     1    1    2 1   
     2    1   17 1   
     3    1   18 1   
     4    2   19 1   
     5    2   20 1   
     6    3    7 1   
     7    3   14 1   
     8    3   29 1   
     9    4    7 1   
    10    4   28 1   
    11    5   29 1   
    12    6   10 1   
    13    6   12 1   
    14    6   15 1   
    15    6   21 1   
    16    7    9 1   
    17    8   29 1   
    18    9   11 1   
    19    9   22 1   
    20    9   23 1   
    21   11   13 1   
    22   11   24 1   
    23   13   14 1   
    24   13   25 1   
    25   15   16 1   
    26   15   26 1   
    27   15   27 1   
@<TRIPOS>SUBSTRUCTURE
     1 4A1         1 TEMP              0 ****  ****    0 ROOT
