@<TRIPOS>MOLECULE
4A1
   28    27     1     0     0
SMALL
bcc


@<TRIPOS>ATOM
      1 C01         1.1240    1.0870    0.1450 c2        1 4A1     -0.228500
      2 C02         1.8220    1.3240   -0.9580 c2        1 4A1     -0.228500
      3 C1         -1.8770    0.7100    5.1310 c2        1 4A1     -0.179000
      4 N1         -3.0720   -0.0040    3.1450 n7        1 4A1     -0.819000
      5 O1         -0.4530   -1.1820    5.4690 o         1 4A1     -0.555000
      6 S1         -2.4740   -0.4540    1.7140 s6        1 4A1      2.796000
      7 C2         -2.4980    1.0090    3.9420 c2        1 4A1      0.023000
      8 O2         -2.6640   -1.4880    5.6110 o         1 4A1     -0.555000
      9 C3         -2.6650    2.4300    3.4810 c3        1 4A1     -0.139000
     10 O3         -3.3840   -1.3310    1.0660 o         1 4A1     -0.960000
     11 C4         -1.9170    3.4060    4.3080 c2        1 4A1     -0.137000
     12 O4         -2.1070    0.6810    0.9320 o         1 4A1     -0.960000
     13 C5         -1.3160    3.0530    5.4660 c2        1 4A1     -0.198000
     14 C6         -1.5470    1.7560    6.0340 c1        1 4A1     -0.010000
     15 C8         -1.0580   -1.3150    2.0630 c3        1 4A1     -0.983000
     16 H1         -0.1630   -0.8530    1.5750 h1        1 4A1      0.172667
     17 H2          1.5980    0.7790    1.0880 ha        1 4A1      0.114000
     18 H3          0.0270    1.1820    0.1940 ha        1 4A1      0.114000
     19 H4          2.9140    1.2280   -1.0040 ha        1 4A1      0.114000
     20 H5          1.3510    1.6310   -1.9010 ha        1 4A1      0.114000
     21 H6         -3.5630   -0.6710    3.7220 hn        1 4A1      0.290000
     22 H8         -3.7590    2.7010    3.4850 hc        1 4A1      0.127000
     23 H9         -2.3110    2.5140    2.4110 hc        1 4A1      0.127000
     24 H10        -1.9170    4.4410    3.9340 ha        1 4A1      0.111000
     25 H11        -0.7240    3.7690    6.0550 ha        1 4A1      0.131000
     26 H12        -1.1170   -2.3730    1.7070 h1        1 4A1      0.172667
     27 H13        -0.7940   -1.3890    3.1610 h1        1 4A1      0.172667
     28 C7         -1.6400   -0.7600    5.4710 c2        1 4A1      0.373000
@<TRIPOS>BOND
     1    1    2 1   
     2    1   17 1   
     3    1   18 1   
     4    2   19 1   
     5    2   20 1   
     6    3    7 1   
     7    3   14 1   
     8    3   28 1   
     9    4    6 1   
    10    4    7 1   
    11    4   21 1   
    12    5   28 1   
    13    6   10 1   
    14    6   12 1   
    15    6   15 1   
    16    7    9 1   
    17    8   28 1   
    18    9   11 1   
    19    9   22 1   
    20    9   23 1   
    21   11   13 1   
    22   11   24 1   
    23   13   14 1   
    24   13   25 1   
    25   15   16 1   
    26   15   26 1   
    27   15   27 1   
@<TRIPOS>SUBSTRUCTURE
     1 4A1         1 TEMP              0 ****  ****    0 ROOT
