@<TRIPOS>MOLECULE
4A1
   28    27     1     0     0
SMALL
bcc


@<TRIPOS>ATOM
      1 C01         0.6810   -1.3770   -0.9200 c2        1 4A1     -0.228500
      2 C02         1.2680   -1.3760   -2.1090 c2        1 4A1     -0.228500
      3 C1         -1.9660    0.7710    5.3670 c2        1 4A1     -0.190000
      4 N1         -2.2700    0.6150    2.9580 n3        1 4A1     -0.783000
      5 O1         -1.8260   -1.4160    6.3380 o         1 4A1     -0.561500
      6 S1         -1.4020    1.1450    1.6900 s6        1 4A1      2.787000
      7 C2         -2.4150    1.3000    4.1730 c2        1 4A1      0.030000
      8 O2         -0.6100   -1.0020    4.5130 o         1 4A1     -0.561500
      9 C3         -3.0510    2.6660    4.1200 c3        1 4A1     -0.134000
     10 O3         -1.7490    0.3960    0.5310 o         1 4A1     -0.960000
     11 C4         -3.3320    3.2460    5.4540 c2        1 4A1     -0.157000
     12 O4         -1.5280    2.5530    1.5320 o         1 4A1     -0.960000
     13 C5         -2.8830    2.6720    6.5920 c2        1 4A1     -0.184000
     14 C6         -1.9340    1.6050    6.5080 c1        1 4A1     -0.016000
     15 C8          0.2090    0.7940    2.0670 c3        1 4A1     -0.988000
     16 H1          0.3370    0.1600    2.9980 h1        1 4A1      0.175333
     17 H2         -0.2870   -0.8870   -0.7270 ha        1 4A1      0.114000
     18 H3          1.1240   -1.8730   -0.0440 ha        1 4A1      0.114000
     19 H4          0.8280   -0.8820   -2.9850 ha        1 4A1      0.114000
     20 H5          2.2320   -1.8660   -2.2990 ha        1 4A1      0.114000
     21 H6         -2.3230   -0.3810    3.1040 hn        1 4A1      0.276000
     22 H8         -4.0260    2.5820    3.5600 hc        1 4A1      0.125000
     23 H9         -2.3990    3.3740    3.5290 hc        1 4A1      0.125000
     24 H10        -3.8860    4.1960    5.4480 ha        1 4A1      0.112000
     25 H11        -3.1310    3.0680    7.5870 ha        1 4A1      0.132000
     26 H12         0.8160    1.7140    2.2420 h1        1 4A1      0.175333
     27 H13         0.7050    0.2170    1.2470 h1        1 4A1      0.175333
     28 C7         -1.4160   -0.6520    5.4310 c2        1 4A1      0.382000
@<TRIPOS>BOND
     1    1    2 1   
     2    1   17 1   
     3    1   18 1   
     4    2   19 1   
     5    2   20 1   
     6    3    7 1   
     7    3   14 1   
     8    3   28 1   
     9    4    6 1   
    10    4    7 1   
    11    4   21 1   
    12    5   28 1   
    13    6   10 1   
    14    6   12 1   
    15    6   15 1   
    16    7    9 1   
    17    8   28 1   
    18    9   11 1   
    19    9   22 1   
    20    9   23 1   
    21   11   13 1   
    22   11   24 1   
    23   13   14 1   
    24   13   25 1   
    25   15   16 1   
    26   15   26 1   
    27   15   27 1   
@<TRIPOS>SUBSTRUCTURE
     1 4A1         1 TEMP              0 ****  ****    0 ROOT
