@<TRIPOS>MOLECULE
4A2
   49    45     1     0     0
SMALL
bcc


@<TRIPOS>ATOM
      1 FAA        -3.9540   -2.3140    0.3170 f         1 4A2     -0.168000
      2 CAC        -2.7270   -1.7710    0.1950 c3        1 4A2      0.465000
      3 FAB        -1.9970   -2.0670    1.2820 f         1 4A2     -0.168000
      4 FAG        -2.1220   -2.2690   -0.9000 f         1 4A2     -0.168000
      5 CAD        -2.8380   -0.2730    0.0620 c2        1 4A2     -0.163000
      6 CAE        -4.0720    0.3290    0.0160 c1        1 4A2     -0.088000
      7 CAF        -4.1660    1.7160   -0.1950 c1        1 4A2     -0.123000
      8 CAK        -2.9910    2.4830   -0.3580 c1        1 4A2     -0.123000
      9 CAJ        -1.7490    1.8660   -0.3100 c1        1 4A2     -0.116000
     10 CAI        -1.6590    0.5060   -0.1030 c2        1 4A2     -0.009000
     11 CAH        -0.3260   -0.1810   -0.2510 c3        1 4A2     -0.033000
     12 NAP         0.5600    0.1490    0.9600 n3        1 4A2     -0.193000
     13 CAO         0.2130    1.0170    2.0500 c2        1 4A2     -0.079000
     14 CAN        -0.8090    1.9500    2.2160 c2        1 4A2     -0.126000
     15 CAM        -0.8490    2.7290    3.3490 c1        1 4A2     -0.110000
     16 CAW         0.1480    2.5840    4.3470 c1        1 4A2     -0.091000
     17 CAV         0.8790    3.4690    5.3400 c2        1 4A2      0.359000
     18 OAL         1.5900    4.3600    4.9430 o         1 4A2     -0.555500
     19 OBG         0.6810    3.3180    6.6050 o         1 4A2     -0.555500
     20 CAX         1.1520    1.6700    4.1860 c1        1 4A2     -0.090000
     21 CAY         1.1980    0.8780    3.0400 c1        1 4A2     -0.049000
     22 NAZ         2.1620   -0.0650    2.5750 n3        1 4A2     -0.213000
     23 CBA         1.8280   -0.4080    1.2430 c2        1 4A2      0.203000
     24 NBB         2.5920   -1.1400    0.3890 n1        1 4A2     -0.272000
     25 CBC         2.1150   -1.4210   -0.9630 c1        1 4A2      0.069000
     26 CBD         1.6130   -2.6780   -1.2610 c2        1 4A2     -0.167000
     27 CBE         1.3500   -3.0280   -2.5820 c1        1 4A2      0.076000
     28 FBF         1.0350   -4.2840   -2.8770 f         1 4A2     -0.110000
     29 CAS         1.5910   -2.1190   -3.6030 c2        1 4A2     -0.020000
     30 OAT         1.2210   -2.4410   -4.9440 os        1 4A2     -0.217000
     31 CAU         2.3160   -2.7620   -5.7900 c3        1 4A2     -0.075000
     32 CAR         2.0920   -0.8650   -3.3050 c1        1 4A2     -0.104000
     33 CAQ         2.3550   -0.5140   -1.9800 c1        1 4A2     -0.172000
     34 HAE        -4.9250   -0.2420    0.0680 ha        1 4A2      0.146000
     35 HAF        -5.0520    2.1550   -0.2290 ha        1 4A2      0.135500
     36 HAK        -3.0520    3.4550   -0.5040 ha        1 4A2      0.135500
     37 HAJ        -0.9420    2.3920   -0.4210 ha        1 4A2      0.165000
     38 HAH1        0.0810    0.1080   -1.0110 h1        1 4A2      0.116000
     39 HAH2       -0.4620   -1.1210   -0.2990 h1        1 4A2      0.116000
     40 HAN        -1.5470    2.0250    1.5240 ha        1 4A2      0.126000
     41 HAM        -1.5740    3.2750    3.5040 ha        1 4A2      0.163000
     42 HAX         1.8410    1.5610    4.8930 ha        1 4A2      0.170000
     43 HAZ         2.9270   -0.3750    3.0630 hn        1 4A2      0.233000
     44 HBD         1.5670   -3.3680   -0.5530 ha        1 4A2      0.159000
     45 HAQ         2.7380    0.4420   -1.7550 ha        1 4A2      0.150000
     46 HAR         2.2630   -0.2180   -4.0310 ha        1 4A2      0.143000
     47 HAU1        2.8730   -1.9750   -5.9120 h1        1 4A2      0.077333
     48 HAU2        1.9810   -3.0550   -6.6450 h1        1 4A2      0.077333
     49 HAU3        2.8500   -3.4820   -5.3840 h1        1 4A2      0.077333
@<TRIPOS>BOND
     1    1    2 1   
     2    2    3 1   
     3    2    4 1   
     4    2    5 1   
     5    5    6 1   
     6    5   10 1   
     7    6   34 1   
     8    7    8 1   
     9    7   35 1   
    10    8   36 1   
    11    9   10 1   
    12    9   37 1   
    13   10   11 1   
    14   11   12 1   
    15   11   38 1   
    16   11   39 1   
    17   12   13 1   
    18   12   23 1   
    19   13   14 1   
    20   13   21 1   
    21   14   15 1   
    22   14   40 1   
    23   15   41 1   
    24   16   17 1   
    25   16   20 1   
    26   17   18 1   
    27   17   19 1   
    28   20   42 1   
    29   21   22 1   
    30   22   23 1   
    31   22   43 1   
    32   23   24 1   
    33   25   26 1   
    34   25   33 1   
    35   26   27 1   
    36   26   44 1   
    37   27   29 1   
    38   29   30 1   
    39   29   32 1   
    40   30   31 1   
    41   31   47 1   
    42   31   48 1   
    43   31   49 1   
    44   32   46 1   
    45   33   45 1   
@<TRIPOS>SUBSTRUCTURE
     1 4A2         1 TEMP              0 ****  ****    0 ROOT
