@<TRIPOS>MOLECULE
4A2
   49    52     1     0     0
SMALL
bcc


@<TRIPOS>ATOM
      1 FAA         0.2380   -0.2240   -1.0540 f         1 4A2     -0.241633
      2 CAC         1.5910   -0.1110   -0.8280 c3        1 4A2      0.686200
      3 FAB         1.7450   -0.6430    0.4310 f         1 4A2     -0.241633
      4 FAG         2.1330   -1.0610   -1.6600 f         1 4A2     -0.241633
      5 CAD         2.1530    1.2960   -1.0080 ca        1 4A2     -0.168300
      6 CAE         1.3220    2.2670   -1.5740 ca        1 4A2     -0.091000
      7 CAF         1.7870    3.5660   -1.7570 ca        1 4A2     -0.146000
      8 CAK         3.0850    3.8950   -1.3710 ca        1 4A2     -0.094000
      9 CAJ         3.9160    2.9280   -0.8090 ca        1 4A2     -0.122000
     10 CAI         3.4670    1.6150   -0.6240 ca        1 4A2     -0.043300
     11 CAH         4.3380    0.5540   -0.0040 c3        1 4A2      0.055600
     12 NAP         5.7520    0.7730    0.1170 na        1 4A2     -0.134300
     13 CAO         6.2640    1.7460    1.0400 ca        1 4A2     -0.109200
     14 CAN         5.8560    2.0640    2.3290 ca        1 4A2     -0.134000
     15 CAM         6.6110    3.0040    3.0410 ca        1 4A2     -0.105000
     16 CAW         7.7420    3.6120    2.4930 ca        1 4A2     -0.119600
     17 CAV         8.5310    4.6370    3.3050 c         1 4A2      0.910200
     18 OAL         8.1030    4.9260    4.4550 o         1 4A2     -0.820800
     19 OBG         9.5630    5.1320    2.7720 o         1 4A2     -0.820800
     20 CAX         8.1680    3.2930    1.1940 ca        1 4A2     -0.085000
     21 CAY         7.4300    2.3660    0.4720 ca        1 4A2     -0.112200
     22 NAZ         7.5900    1.9110   -0.8730 na        1 4A2     -0.287300
     23 CBA         6.5700    0.9000   -1.0830 cc        1 4A2      0.545300
     24 NBB         6.3510    0.1570   -2.1470 nf        1 4A2     -0.677100
     25 CBC         7.1890    0.2060   -3.2720 ca        1 4A2      0.173400
     26 CBD         7.5400   -1.0230   -3.8790 ca        1 4A2     -0.143000
     27 CBE         8.2870   -1.0470   -5.0620 ca        1 4A2      0.105900
     28 FBF         8.6170   -2.2310   -5.6300 f         1 4A2     -0.137900
     29 CAS         8.7000    0.1700   -5.6630 ca        1 4A2      0.060100
     30 OAT         9.4290    0.0350   -6.8310 os        1 4A2     -0.319900
     31 CAU         9.9350    1.2430   -7.3840 c3        1 4A2      0.115700
     32 CAR         8.3500    1.3830   -5.0710 ca        1 4A2     -0.167000
     33 CAQ         7.6070    1.4030   -3.8940 ca        1 4A2     -0.152000
     34 HAE         0.2950    2.0020   -1.8730 ha        1 4A2      0.143000
     35 HAF         1.1290    4.3270   -2.2030 ha        1 4A2      0.134000
     36 HAK         3.4590    4.9220   -1.5060 ha        1 4A2      0.141000
     37 HAJ         4.9370    3.2160   -0.5020 ha        1 4A2      0.170000
     38 HAH1        4.2020   -0.4020   -0.5940 h1        1 4A2      0.089200
     39 HAH2        3.9510    0.3760    1.0460 h1        1 4A2      0.089200
     40 HAN         4.9710    1.5960    2.7800 ha        1 4A2      0.125000
     41 HAM         6.3190    3.2900    4.0660 ha        1 4A2      0.163000
     42 HAX         9.0690    3.7860    0.7950 ha        1 4A2      0.169000
     43 HAZ         8.5140    1.6690   -1.1590 hn        1 4A2      0.266700
     44 HBD         7.2260   -1.9780   -3.4300 ha        1 4A2      0.160000
     45 HAQ         7.3310    2.3770   -3.4620 ha        1 4A2      0.153000
     46 HAR         8.6570    2.3350   -5.5270 ha        1 4A2      0.137000
     47 HAU1       10.5250    0.8960   -8.2700 h1        1 4A2      0.040700
     48 HAU2        9.0980    1.9100   -7.7060 h1        1 4A2      0.040700
     49 HAU3       10.5950    1.7710   -6.6540 h1        1 4A2      0.040700
@<TRIPOS>BOND
     1    1    2 1   
     2    2    3 1   
     3    2    4 1   
     4    2    5 1   
     5    5    6 ar  
     6    5   10 ar  
     7    6    7 ar  
     8    6   34 1   
     9    7    8 ar  
    10    7   35 1   
    11    8    9 ar  
    12    8   36 1   
    13    9   10 ar  
    14    9   37 1   
    15   10   11 1   
    16   11   12 1   
    17   11   38 1   
    18   11   39 1   
    19   12   13 1   
    20   12   23 1   
    21   13   14 ar  
    22   13   21 ar  
    23   14   15 ar  
    24   14   40 1   
    25   15   16 ar  
    26   15   41 1   
    27   16   17 1   
    28   16   20 ar  
    29   17   18 1   
    30   17   19 1   
    31   20   21 ar  
    32   20   42 1   
    33   21   22 1   
    34   22   23 1   
    35   22   43 1   
    36   23   24 2   
    37   24   25 1   
    38   25   26 ar  
    39   25   33 ar  
    40   26   27 ar  
    41   26   44 1   
    42   27   28 1   
    43   27   29 ar  
    44   29   30 1   
    45   29   32 ar  
    46   30   31 1   
    47   31   47 1   
    48   31   48 1   
    49   31   49 1   
    50   32   33 ar  
    51   32   46 1   
    52   33   45 1   
@<TRIPOS>SUBSTRUCTURE
     1 4A2         1 TEMP              0 ****  ****    0 ROOT
