@<TRIPOS>MOLECULE
4A2
   49    52     1     0     0
SMALL
bcc


@<TRIPOS>ATOM
      1 FAA         0.2520   -0.2620   -1.0410 f         1 4A2     -0.241633
      2 CAC         1.6050   -0.1400   -0.8190 c3        1 4A2      0.686200
      3 FAB         1.7650   -0.6720    0.4390 f         1 4A2     -0.241633
      4 FAG         2.1510   -1.0860   -1.6530 f         1 4A2     -0.241633
      5 CAD         2.1580    1.2700   -0.9980 ca        1 4A2     -0.168300
      6 CAE         1.3180    2.2360   -1.5610 ca        1 4A2     -0.091000
      7 CAF         1.7740    3.5390   -1.7450 ca        1 4A2     -0.146000
      8 CAK         3.0720    3.8760   -1.3610 ca        1 4A2     -0.094000
      9 CAJ         3.9100    2.9140   -0.8020 ca        1 4A2     -0.122000
     10 CAI         3.4700    1.5980   -0.6180 ca        1 4A2     -0.043300
     11 CAH         4.3490    0.5420   -0.0000 c3        1 4A2      0.055600
     12 NAP         5.7620    0.7700    0.1180 na        1 4A2     -0.134300
     13 CAO         6.2700    1.7460    1.0390 ca        1 4A2     -0.109200
     14 CAN         5.8630    2.0600    2.3300 ca        1 4A2     -0.134000
     15 CAM         6.6140    3.0040    3.0410 ca        1 4A2     -0.105000
     16 CAW         7.7390    3.6190    2.4900 ca        1 4A2     -0.119600
     17 CAV         8.5240    4.6490    3.3010 c         1 4A2      0.910200
     18 OAL         8.0970    4.9350    4.4530 o         1 4A2     -0.820800
     19 OBG         9.5510    5.1520    2.7660 o         1 4A2     -0.820800
     20 CAX         8.1650    3.3040    1.1900 ca        1 4A2     -0.085000
     21 CAY         7.4310    2.3740    0.4690 ca        1 4A2     -0.112200
     22 NAZ         7.5900    1.9200   -0.8770 na        1 4A2     -0.287300
     23 CBA         6.5760    0.9030   -1.0850 cc        1 4A2      0.545300
     24 NBB         6.3590    0.1590   -2.1490 nf        1 4A2     -0.677100
     25 CBC         7.1940    0.2150   -3.2760 ca        1 4A2      0.173400
     26 CBD         7.5510   -1.0120   -3.8850 ca        1 4A2     -0.143000
     27 CBE         8.2950   -1.0290   -5.0700 ca        1 4A2      0.105900
     28 FBF         8.6310   -2.2110   -5.6400 f         1 4A2     -0.137900
     29 CAS         8.6980    0.1900   -5.6710 ca        1 4A2      0.060100
     30 OAT         9.4260    0.0610   -6.8410 os        1 4A2     -0.319900
     31 CAU         9.9210    1.2730   -7.3960 c3        1 4A2      0.115700
     32 CAR         8.3420    1.4010   -5.0760 ca        1 4A2     -0.167000
     33 CAQ         7.6030    1.4150   -3.8980 ca        1 4A2     -0.152000
     34 HAE         0.2930    1.9650   -1.8580 ha        1 4A2      0.143000
     35 HAF         1.1110    4.2950   -2.1880 ha        1 4A2      0.134000
     36 HAK         3.4380    4.9050   -1.4960 ha        1 4A2      0.141000
     37 HAJ         4.9300    3.2080   -0.4970 ha        1 4A2      0.170000
     38 HAH1        3.9670    0.3600    1.0510 h1        1 4A2      0.089200
     39 HAH2        4.2170   -0.4150   -0.5910 h1        1 4A2      0.089200
     40 HAN         4.9830    1.5850    2.7830 ha        1 4A2      0.125000
     41 HAM         6.3230    3.2870    4.0670 ha        1 4A2      0.163000
     42 HAX         9.0610    3.8040    0.7890 ha        1 4A2      0.169000
     43 HAZ         8.5150    1.6850   -1.1650 hn        1 4A2      0.266700
     44 HBD         7.2440   -1.9690   -3.4360 ha        1 4A2      0.160000
     45 HAQ         7.3220    2.3870   -3.4640 ha        1 4A2      0.153000
     46 HAR         8.6430    2.3560   -5.5320 ha        1 4A2      0.137000
     47 HAU1       10.5100    0.9310   -8.2840 h1        1 4A2      0.040700
     48 HAU2        9.0780    1.9340   -7.7150 h1        1 4A2      0.040700
     49 HAU3       10.5790    1.8060   -6.6670 h1        1 4A2      0.040700
@<TRIPOS>BOND
     1    1    2 1   
     2    2    3 1   
     3    2    4 1   
     4    2    5 1   
     5    5    6 ar  
     6    5   10 ar  
     7    6    7 ar  
     8    6   34 1   
     9    7    8 ar  
    10    7   35 1   
    11    8    9 ar  
    12    8   36 1   
    13    9   10 ar  
    14    9   37 1   
    15   10   11 1   
    16   11   12 1   
    17   11   38 1   
    18   11   39 1   
    19   12   13 1   
    20   12   23 1   
    21   13   14 ar  
    22   13   21 ar  
    23   14   15 ar  
    24   14   40 1   
    25   15   16 ar  
    26   15   41 1   
    27   16   17 1   
    28   16   20 ar  
    29   17   18 1   
    30   17   19 1   
    31   20   21 ar  
    32   20   42 1   
    33   21   22 1   
    34   22   23 1   
    35   22   43 1   
    36   23   24 2   
    37   24   25 1   
    38   25   26 ar  
    39   25   33 ar  
    40   26   27 ar  
    41   26   44 1   
    42   27   28 1   
    43   27   29 ar  
    44   29   30 1   
    45   29   32 ar  
    46   30   31 1   
    47   31   47 1   
    48   31   48 1   
    49   31   49 1   
    50   32   33 ar  
    51   32   46 1   
    52   33   45 1   
@<TRIPOS>SUBSTRUCTURE
     1 4A2         1 TEMP              0 ****  ****    0 ROOT
