@<TRIPOS>MOLECULE
4A2
   49    52     1     0     0
SMALL
bcc


@<TRIPOS>ATOM
      1 FAA         3.6180   -4.6120   -0.2310 f         1 4A2     -0.241633
      2 CAC         2.8840   -3.4850   -0.5250 c3        1 4A2      0.686200
      3 FAB         3.5930   -2.9100   -1.5530 f         1 4A2     -0.241633
      4 FAG         1.7600   -3.9890   -1.1360 f         1 4A2     -0.241633
      5 CAD         2.6140   -2.5700    0.6650 ca        1 4A2     -0.168300
      6 CAE         2.9340   -3.0420    1.9410 ca        1 4A2     -0.091000
      7 CAF         2.7080   -2.2450    3.0600 ca        1 4A2     -0.146000
      8 CAK         2.1640   -0.9720    2.9010 ca        1 4A2     -0.094000
      9 CAJ         1.8420   -0.5000    1.6300 ca        1 4A2     -0.122000
     10 CAI         2.0550   -1.2920    0.4950 ca        1 4A2     -0.043300
     11 CAH         1.7320   -0.8020   -0.8920 c3        1 4A2      0.055600
     12 NAP         0.9000    0.3560   -1.0630 na        1 4A2     -0.134300
     13 CAO         1.3800    1.6600   -0.7040 ca        1 4A2     -0.109200
     14 CAN         2.6350    2.2340   -0.8710 ca        1 4A2     -0.134000
     15 CAM         2.7940    3.5760   -0.5070 ca        1 4A2     -0.105000
     16 CAW         1.7400    4.3330    0.0070 ca        1 4A2     -0.119600
     17 CAV         1.9620    5.7930    0.3970 c         1 4A2      0.910200
     18 OAL         3.1250    6.2610    0.2670 o         1 4A2     -0.820800
     19 OBG         0.9660    6.4380    0.8270 o         1 4A2     -0.820800
     20 CAX         0.4660    3.7670    0.1730 ca        1 4A2     -0.085000
     21 CAY         0.2890    2.4360   -0.1790 ca        1 4A2     -0.112200
     22 NAZ        -0.8600    1.5970   -0.0550 na        1 4A2     -0.287300
     23 CBA        -0.4920    0.3170   -0.6320 cc        1 4A2      0.545300
     24 NBB        -1.2330   -0.7580   -0.7950 nf        1 4A2     -0.677100
     25 CBC        -2.5990   -0.7760   -0.4680 ca        1 4A2      0.173400
     26 CBD        -3.4790   -1.4100   -1.3760 ca        1 4A2     -0.143000
     27 CBE        -4.8360   -1.5560   -1.0690 ca        1 4A2      0.105900
     28 FBF        -5.6670   -2.1640   -1.9490 f         1 4A2     -0.137900
     29 CAS        -5.3400   -1.0660    0.1630 ca        1 4A2      0.060100
     30 OAT        -6.6930   -1.2640    0.3700 os        1 4A2     -0.319900
     31 CAU        -7.2280   -0.6870    1.5540 c3        1 4A2      0.115700
     32 CAR        -4.4730   -0.4460    1.0630 ca        1 4A2     -0.167000
     33 CAQ        -3.1240   -0.3020    0.7540 ca        1 4A2     -0.152000
     34 HAE         3.3680   -4.0480    2.0600 ha        1 4A2      0.143000
     35 HAF         2.9620   -2.6200    4.0620 ha        1 4A2      0.134000
     36 HAK         1.9890   -0.3310    3.7790 ha        1 4A2      0.141000
     37 HAJ         1.4210    0.5150    1.5280 ha        1 4A2      0.170000
     38 HAH1        2.7160   -0.5660   -1.4010 h1        1 4A2      0.089200
     39 HAH2        1.2390   -1.6490   -1.4590 h1        1 4A2      0.089200
     40 HAN         3.4770    1.6580   -1.2760 ha        1 4A2      0.125000
     41 HAM         3.7750    4.0700   -0.6190 ha        1 4A2      0.163000
     42 HAX        -0.3460    4.3940    0.5740 ha        1 4A2      0.169000
     43 HAZ        -1.7310    1.9800   -0.3530 hn        1 4A2      0.266700
     44 HBD        -3.1060   -1.8020   -2.3350 ha        1 4A2      0.160000
     45 HAQ        -2.4620    0.1750    1.4940 ha        1 4A2      0.153000
     46 HAR        -4.8460   -0.0640    2.0240 ha        1 4A2      0.137000
     47 HAU1       -8.3200   -0.9210    1.4880 h1        1 4A2      0.040700
     48 HAU2       -6.7790   -1.1610    2.4610 h1        1 4A2      0.040700
     49 HAU3       -7.0610    0.4180    1.5690 h1        1 4A2      0.040700
@<TRIPOS>BOND
     1    1    2 1   
     2    2    3 1   
     3    2    4 1   
     4    2    5 1   
     5    5    6 ar  
     6    5   10 ar  
     7    6    7 ar  
     8    6   34 1   
     9    7    8 ar  
    10    7   35 1   
    11    8    9 ar  
    12    8   36 1   
    13    9   10 ar  
    14    9   37 1   
    15   10   11 1   
    16   11   12 1   
    17   11   38 1   
    18   11   39 1   
    19   12   13 1   
    20   12   23 1   
    21   13   14 ar  
    22   13   21 ar  
    23   14   15 ar  
    24   14   40 1   
    25   15   16 ar  
    26   15   41 1   
    27   16   17 1   
    28   16   20 ar  
    29   17   18 1   
    30   17   19 1   
    31   20   21 ar  
    32   20   42 1   
    33   21   22 1   
    34   22   23 1   
    35   22   43 1   
    36   23   24 2   
    37   24   25 1   
    38   25   26 ar  
    39   25   33 ar  
    40   26   27 ar  
    41   26   44 1   
    42   27   28 1   
    43   27   29 ar  
    44   29   30 1   
    45   29   32 ar  
    46   30   31 1   
    47   31   47 1   
    48   31   48 1   
    49   31   49 1   
    50   32   33 ar  
    51   32   46 1   
    52   33   45 1   
@<TRIPOS>SUBSTRUCTURE
     1 4A2         1 TEMP              0 ****  ****    0 ROOT
