@<TRIPOS>MOLECULE
4A2
   49    52     1     0     0
SMALL
bcc


@<TRIPOS>ATOM
      1 FAA         0.2510   -0.2610   -1.0480 f         1 4A2     -0.241633
      2 CAC         1.6040   -0.1390   -0.8240 c3        1 4A2      0.686200
      3 FAB         1.7620   -0.6710    0.4340 f         1 4A2     -0.241633
      4 FAG         2.1510   -1.0850   -1.6580 f         1 4A2     -0.241633
      5 CAD         2.1570    1.2710   -1.0030 ca        1 4A2     -0.168300
      6 CAE         1.3190    2.2370   -1.5680 ca        1 4A2     -0.091000
      7 CAF         1.7750    3.5400   -1.7510 ca        1 4A2     -0.146000
      8 CAK         3.0720    3.8770   -1.3660 ca        1 4A2     -0.094000
      9 CAJ         3.9090    2.9150   -0.8050 ca        1 4A2     -0.122000
     10 CAI         3.4690    1.5980   -0.6210 ca        1 4A2     -0.043300
     11 CAH         4.3470    0.5420   -0.0020 c3        1 4A2      0.055600
     12 NAP         5.7600    0.7700    0.1180 na        1 4A2     -0.134300
     13 CAO         6.2670    1.7460    1.0400 ca        1 4A2     -0.109200
     14 CAN         5.8590    2.0610    2.3300 ca        1 4A2     -0.134000
     15 CAM         6.6080    3.0050    3.0410 ca        1 4A2     -0.105000
     16 CAW         7.7350    3.6200    2.4920 ca        1 4A2     -0.119600
     17 CAV         8.5190    4.6490    3.3030 c         1 4A2      0.910200
     18 OAL         8.0900    4.9360    4.4550 o         1 4A2     -0.820800
     19 OBG         9.5460    5.1520    2.7690 o         1 4A2     -0.820800
     20 CAX         8.1620    3.3040    1.1930 ca        1 4A2     -0.085000
     21 CAY         7.4280    2.3740    0.4710 ca        1 4A2     -0.112200
     22 NAZ         7.5890    1.9200   -0.8750 na        1 4A2     -0.287300
     23 CBA         6.5750    0.9030   -1.0840 cc        1 4A2      0.545300
     24 NBB         6.3600    0.1590   -2.1480 nf        1 4A2     -0.677100
     25 CBC         7.1960    0.2140   -3.2750 ca        1 4A2      0.173400
     26 CBD         7.5540   -1.0130   -3.8820 ca        1 4A2     -0.143000
     27 CBE         8.2990   -1.0300   -5.0660 ca        1 4A2      0.105900
     28 FBF         8.6360   -2.2130   -5.6350 f         1 4A2     -0.137900
     29 CAS         8.7030    0.1890   -5.6670 ca        1 4A2      0.060100
     30 OAT         9.4320    0.0600   -6.8360 os        1 4A2     -0.319900
     31 CAU         9.9280    1.2710   -7.3910 c3        1 4A2      0.115700
     32 CAR         8.3470    1.4000   -5.0730 ca        1 4A2     -0.167000
     33 CAQ         7.6060    1.4140   -3.8960 ca        1 4A2     -0.152000
     34 HAE         0.2940    1.9660   -1.8670 ha        1 4A2      0.143000
     35 HAF         1.1130    4.2960   -2.1950 ha        1 4A2      0.134000
     36 HAK         3.4390    4.9060   -1.5000 ha        1 4A2      0.141000
     37 HAJ         4.9290    3.2080   -0.4980 ha        1 4A2      0.170000
     38 HAH1        3.9630    0.3610    1.0480 h1        1 4A2      0.089200
     39 HAH2        4.2160   -0.4140   -0.5930 h1        1 4A2      0.089200
     40 HAN         4.9780    1.5870    2.7820 ha        1 4A2      0.125000
     41 HAM         6.3170    3.2880    4.0670 ha        1 4A2      0.163000
     42 HAX         9.0580    3.8040    0.7930 ha        1 4A2      0.169000
     43 HAZ         8.5150    1.6840   -1.1620 hn        1 4A2      0.266700
     44 HBD         7.2460   -1.9700   -3.4330 ha        1 4A2      0.160000
     45 HAQ         7.3240    2.3860   -3.4630 ha        1 4A2      0.153000
     46 HAR         8.6470    2.3540   -5.5290 ha        1 4A2      0.137000
     47 HAU1       10.5180    0.9280   -8.2780 h1        1 4A2      0.040700
     48 HAU2        9.0860    1.9320   -7.7100 h1        1 4A2      0.040700
     49 HAU3       10.5860    1.8040   -6.6610 h1        1 4A2      0.040700
@<TRIPOS>BOND
     1    1    2 1   
     2    2    3 1   
     3    2    4 1   
     4    2    5 1   
     5    5    6 ar  
     6    5   10 ar  
     7    6    7 ar  
     8    6   34 1   
     9    7    8 ar  
    10    7   35 1   
    11    8    9 ar  
    12    8   36 1   
    13    9   10 ar  
    14    9   37 1   
    15   10   11 1   
    16   11   12 1   
    17   11   38 1   
    18   11   39 1   
    19   12   13 1   
    20   12   23 1   
    21   13   14 ar  
    22   13   21 ar  
    23   14   15 ar  
    24   14   40 1   
    25   15   16 ar  
    26   15   41 1   
    27   16   17 1   
    28   16   20 ar  
    29   17   18 1   
    30   17   19 1   
    31   20   21 ar  
    32   20   42 1   
    33   21   22 1   
    34   22   23 1   
    35   22   43 1   
    36   23   24 2   
    37   24   25 1   
    38   25   26 ar  
    39   25   33 ar  
    40   26   27 ar  
    41   26   44 1   
    42   27   28 1   
    43   27   29 ar  
    44   29   30 1   
    45   29   32 ar  
    46   30   31 1   
    47   31   47 1   
    48   31   48 1   
    49   31   49 1   
    50   32   33 ar  
    51   32   46 1   
    52   33   45 1   
@<TRIPOS>SUBSTRUCTURE
     1 4A2         1 TEMP              0 ****  ****    0 ROOT
