@<TRIPOS>MOLECULE
4A3
   17    17     1     0     0
SMALL
bcc


@<TRIPOS>ATOM
      1 C3         -0.0200    0.1070   -0.0390 ca        1 4A3     -0.164000
      2 C5         -0.0060   -0.0250    2.3850 ca        1 4A3     -0.113600
      3 C8         -0.7540   -0.0710    3.7090 c         1 4A3      0.909200
      4 O9          3.4610   -0.1520    1.1030 oh        1 4A3     -0.540100
      5 C2          1.3900    0.0500   -0.0860 ca        1 4A3      0.046600
      6 C4         -0.6980    0.0710    1.1730 ca        1 4A3     -0.114000
      7 C6          1.3860   -0.0870    2.3660 ca        1 4A3     -0.158000
      8 C7          2.0760   -0.0590    1.1500 ca        1 4A3      0.038100
      9 O10        -0.0710   -0.1460    4.7710 o         1 4A3     -0.831800
     10 O11        -2.0170   -0.0360    3.6790 o         1 4A3     -0.831800
     11 N1          2.0730    0.1630   -1.3220 nh        1 4A3     -0.783200
     12 H3         -0.5870    0.1880   -0.9770 ha        1 4A3      0.113000
     13 HO9         3.7730   -0.1270    2.0170 ho        1 4A3      0.413000
     14 H4         -1.7980    0.1170    1.2070 ha        1 4A3      0.152000
     15 H6          1.9230   -0.1630    3.3250 ha        1 4A3      0.154000
     16 HN11        1.6790   -0.4590   -2.0000 hn        1 4A3      0.354800
     17 HN12        3.0500   -0.0280   -1.2110 hn        1 4A3      0.354800
@<TRIPOS>BOND
     1    1    5 ar  
     2    1    6 ar  
     3    1   12 1   
     4    2    3 1   
     5    2    6 ar  
     6    2    7 ar  
     7    3    9 1   
     8    3   10 1   
     9    4    8 1   
    10    4   13 1   
    11    5    8 ar  
    12    5   11 1   
    13    6   14 1   
    14    7    8 ar  
    15    7   15 1   
    16   11   16 1   
    17   11   17 1   
@<TRIPOS>SUBSTRUCTURE
     1 4A3         1 TEMP              0 ****  ****    0 ROOT
