@<TRIPOS>MOLECULE
4A3
   17    17     1     0     0
SMALL
bcc


@<TRIPOS>ATOM
      1 C3         -0.0240   -0.0990   -0.0360 ca        1 4A3     -0.164000
      2 C5         -0.0020    0.0390    2.3880 ca        1 4A3     -0.113600
      3 C8         -0.7450    0.0890    3.7150 c         1 4A3      0.909200
      4 O9          3.4610    0.1580    1.0930 oh        1 4A3     -0.540100
      5 C2          1.3860   -0.0430   -0.0880 ca        1 4A3      0.046600
      6 C4         -0.6980   -0.0590    1.1790 ca        1 4A3     -0.114000
      7 C6          1.3900    0.0980    2.3640 ca        1 4A3     -0.158000
      8 C7          2.0760    0.0670    1.1450 ca        1 4A3      0.038100
      9 O10        -0.0580    0.1660    4.7730 o         1 4A3     -0.831800
     10 O11        -2.0080    0.0530    3.6880 o         1 4A3     -0.831800
     11 N1          2.0640   -0.1590   -1.3260 nh        1 4A3     -0.783200
     12 H3         -0.5950   -0.1790   -0.9720 ha        1 4A3      0.113000
     13 HO9         3.7760    0.1340    2.0060 ho        1 4A3      0.413000
     14 H4         -1.7980   -0.1030    1.2170 ha        1 4A3      0.152000
     15 H6          1.9310    0.1750    3.3200 ha        1 4A3      0.154000
     16 HN11        1.6680    0.4620   -2.0040 hn        1 4A3      0.354800
     17 HN12        3.0410    0.0300   -1.2200 hn        1 4A3      0.354800
@<TRIPOS>BOND
     1    1    5 ar  
     2    1    6 ar  
     3    1   12 1   
     4    2    3 1   
     5    2    6 ar  
     6    2    7 ar  
     7    3    9 1   
     8    3   10 1   
     9    4    8 1   
    10    4   13 1   
    11    5    8 ar  
    12    5   11 1   
    13    6   14 1   
    14    7    8 ar  
    15    7   15 1   
    16   11   16 1   
    17   11   17 1   
@<TRIPOS>SUBSTRUCTURE
     1 4A3         1 TEMP              0 ****  ****    0 ROOT
