@<TRIPOS>MOLECULE
4A3
   17    17     1     0     0
SMALL
bcc


@<TRIPOS>ATOM
      1 C3          0.9820    1.6970   -0.0270 ca        1 4A3     -0.164000
      2 C5         -0.8470    0.1000   -0.0440 ca        1 4A3     -0.113600
      3 C8         -2.3390   -0.2000   -0.0060 c         1 4A3      0.909200
      4 O9          2.3850   -1.6930   -0.1790 oh        1 4A3     -0.540100
      5 C2          1.9360    0.6590   -0.1040 ca        1 4A3      0.046600
      6 C4         -0.3790    1.4180    0.0020 ca        1 4A3     -0.114000
      7 C6          0.0740   -0.9420   -0.1180 ca        1 4A3     -0.158000
      8 C7          1.4460   -0.6700   -0.1390 ca        1 4A3      0.038100
      9 O10        -2.6980   -1.4100   -0.0610 o         1 4A3     -0.831800
     10 O11        -3.1370    0.7750    0.0830 o         1 4A3     -0.831800
     11 N1          3.3170    0.9590   -0.2080 nh        1 4A3     -0.783200
     12 H3          1.3240    2.7420    0.0070 ha        1 4A3      0.113000
     13 HO9         1.8930   -2.5180   -0.2910 ho        1 4A3      0.413000
     14 H4         -1.1220    2.2300    0.0620 ha        1 4A3      0.152000
     15 H6         -0.3020   -1.9770   -0.1540 ha        1 4A3      0.154000
     16 HN11        3.5860    1.6250    0.4900 hn        1 4A3      0.354800
     17 HN12        3.8720    0.1300   -0.1210 hn        1 4A3      0.354800
@<TRIPOS>BOND
     1    1    5 ar  
     2    1    6 ar  
     3    1   12 1   
     4    2    3 1   
     5    2    6 ar  
     6    2    7 ar  
     7    3    9 1   
     8    3   10 1   
     9    4    8 1   
    10    4   13 1   
    11    5    8 ar  
    12    5   11 1   
    13    6   14 1   
    14    7    8 ar  
    15    7   15 1   
    16   11   16 1   
    17   11   17 1   
@<TRIPOS>SUBSTRUCTURE
     1 4A3         1 TEMP              0 ****  ****    0 ROOT
