@<TRIPOS>MOLECULE
4A3
   17    17     1     0     0
SMALL
bcc


@<TRIPOS>ATOM
      1 C3         -0.0220   -0.0820   -0.0390 ca        1 4A3     -0.164000
      2 C5         -0.0050    0.0490    2.3860 ca        1 4A3     -0.113600
      3 C8         -0.7520    0.1060    3.7100 c         1 4A3      0.909200
      4 O9          3.4630    0.1200    1.1010 oh        1 4A3     -0.540100
      5 C2          1.3880   -0.0470   -0.0870 ca        1 4A3      0.046600
      6 C4         -0.6990   -0.0360    1.1740 ca        1 4A3     -0.114000
      7 C6          1.3870    0.0880    2.3650 ca        1 4A3     -0.158000
      8 C7          2.0760    0.0500    1.1490 ca        1 4A3      0.038100
      9 O10        -0.0670    0.1700    4.7710 o         1 4A3     -0.831800
     10 O11        -2.0150    0.0900    3.6800 o         1 4A3     -0.831800
     11 N1          2.0680   -0.1700   -1.3230 nv        1 4A3     -0.783200
     12 H3         -0.5920   -0.1530   -0.9770 ha        1 4A3      0.113000
     13 HO9         3.7750    0.0890    2.0150 ho        1 4A3      0.413000
     14 H4         -1.8000   -0.0640    1.2080 ha        1 4A3      0.152000
     15 H6          1.9270    0.1540    3.3240 ha        1 4A3      0.154000
     16 HN11        1.6840    0.4590   -2.0010 hn        1 4A3      0.354800
     17 HN12        3.0480    0.0040   -1.2130 hn        1 4A3      0.354800
@<TRIPOS>BOND
     1    1    5 ar  
     2    1    6 ar  
     3    1   12 1   
     4    2    3 1   
     5    2    6 ar  
     6    2    7 ar  
     7    3    9 1   
     8    3   10 1   
     9    4    8 1   
    10    4   13 1   
    11    5    8 ar  
    12    5   11 1   
    13    6   14 1   
    14    7    8 ar  
    15    7   15 1   
    16   11   16 1   
    17   11   17 1   
@<TRIPOS>SUBSTRUCTURE
     1 4A3         1 TEMP              0 ****  ****    0 ROOT
