@<TRIPOS>MOLECULE
4A3
   17    14     1     0     0
SMALL
bcc


@<TRIPOS>ATOM
      1 C3         -0.8820    0.0200   -1.2620 c1        1 4A3     -0.164000
      2 C5         -0.8800   -0.0560    1.1370 c1        1 4A3     -0.093000
      3 C8         -1.6340   -0.0500    2.4490 c1        1 4A3      0.358000
      4 O9          2.5760   -0.1810    0.1900 oh        1 4A3     -0.294000
      5 C2          0.5030   -0.0180   -1.2650 c1        1 4A3     -0.035000
      6 C4         -1.5740    0.0010   -0.0610 c2        1 4A3     -0.114000
      7 C6          0.5050   -0.0940    1.1350 c1        1 4A3     -0.158000
      8 C7          1.1970   -0.0750   -0.0660 c1        1 4A3     -0.007000
      9 O10        -1.9240    1.0420    3.0040 o         1 4A3     -0.566500
     10 O11        -1.9830   -1.1370    2.9790 o         1 4A3     -0.566500
     11 N1          1.2110   -0.0090   -2.4940 n3        1 4A3     -0.292000
     12 H3         -1.3710    0.0570   -2.1060 ha        1 4A3      0.113000
     13 HO9         2.9350    0.6320    0.2240 ho        1 4A3      0.212000
     14 H4         -2.5500    0.0210   -0.0600 ha        1 4A3      0.152000
     15 H6          0.9940   -0.1370    1.9790 ha        1 4A3      0.154000
     16 HN11        0.7600    0.1110   -3.2810 hn        1 4A3      0.150000
     17 HN12        2.1170   -0.1260   -2.5010 hn        1 4A3      0.150000
@<TRIPOS>BOND
     1    1    6 1   
     2    1   12 1   
     3    2    6 1   
     4    2    7 1   
     5    3    9 1   
     6    3   10 1   
     7    4    8 1   
     8    4   13 1   
     9    5    8 1   
    10    5   11 1   
    11    6   14 1   
    12    7   15 1   
    13   11   16 1   
    14   11   17 1   
@<TRIPOS>SUBSTRUCTURE
     1 4A3         1 TEMP              0 ****  ****    0 ROOT
