@<TRIPOS>MOLECULE
4A5
   21    21     1     0     0
SMALL
bcc


@<TRIPOS>ATOM
      1 C5          0.2040    0.4160   -0.9740 c2        1 4A5     -0.262000
      2 C4          1.5870    0.3430   -0.7700 c2        1 4A5     -0.178000
      3 C1          1.7400    0.0140    0.6470 c2        1 4A5     -0.249000
      4 C10        -3.0870   -1.4820    3.6010 cu        1 4A5      0.272000
      5 C8          4.4180   -0.6150    3.2190 c3        1 4A5     -0.184000
      6 C9          2.9930   -0.4900    2.7310 c3        1 4A5     -0.153000
      7 C6          2.9390   -0.1590    1.3030 c1        1 4A5     -0.154000
      8 N3          0.4120   -0.0790    1.1620 n2        1 4A5     -0.131000
      9 N2         -0.4430    0.1460    0.2550 n2        1 4A5     -0.156000
     10 O12        -3.7230   -2.4760    3.8750 o         1 4A5     -0.265000
     11 O13        -3.1320   -0.2110    4.1290 os        1 4A5     -0.312000
     12 Br1         2.9120    0.6040   -2.0140 br        1 4A5      0.029000
     13 H1         -0.3580    0.6340   -1.8760 h4        1 4A5      0.142000
     14 H2          4.9660    0.3440    3.0650 hc        1 4A5      0.053333
     15 H3          4.9530   -1.4140    2.6540 hc        1 4A5      0.053333
     16 H4          4.4410   -0.8690    4.3070 hc        1 4A5      0.053333
     17 H5          2.4530   -1.4600    2.9250 hc        1 4A5      0.070500
     18 H6          2.4660    0.3000    3.3360 hc        1 4A5      0.070500
     19 H7         -1.1080   -0.4860    3.3290 h1        1 4A5      0.176000
     20 H8         -2.4000   -0.0100    2.0710 h1        1 4A5      0.176000
     21 C7         -2.1750   -0.5140    3.0310 cx        1 4A5     -0.047000
@<TRIPOS>BOND
     1    1    2 1   
     2    1    9 1   
     3    1   13 1   
     4    2    3 1   
     5    2   12 1   
     6    3    7 1   
     7    3    8 1   
     8    4   10 1   
     9    4   11 1   
    10    4   21 1   
    11    5    6 1   
    12    5   14 1   
    13    5   15 1   
    14    5   16 1   
    15    6    7 1   
    16    6   17 1   
    17    6   18 1   
    18    8    9 1   
    19   11   21 1   
    20   19   21 1   
    21   20   21 1   
@<TRIPOS>SUBSTRUCTURE
     1 4A5         1 TEMP              0 ****  ****    0 ROOT
