@<TRIPOS>MOLECULE
4A7
   46    48     1     0     0
SMALL
bcc


@<TRIPOS>ATOM
      1 NAO         0.3300    0.4830    0.0780 nh        1 4A7     -0.764500
      2 CAS         1.7090    0.2260    0.0370 ca        1 4A7      0.146600
      3 CAK         2.4340    0.0830    1.2400 ca        1 4A7     -0.139000
      4 CAU         3.7980   -0.1870    1.2330 ca        1 4A7     -0.102300
      5 CAN         4.5370   -0.3090    2.5180 c3        1 4A7     -0.032100
      6 CAM         5.6990   -1.2690    2.3990 c3        1 4A7     -0.146400
      7 CAR         6.5280   -1.0340    1.1560 c         1 4A7      0.702500
      8 OAD         7.7530   -1.2550    1.1450 o         1 4A7     -0.630500
      9 NAY         5.8820   -0.5820    0.0020 n         1 4A7     -0.374000
     10 CAC         6.6210   -0.4140   -1.2220 c3        1 4A7      0.074300
     11 CAW         4.4970   -0.3230    0.0070 ca        1 4A7      0.054600
     12 CAI         3.7680   -0.1860   -1.1930 ca        1 4A7     -0.143000
     13 CAG         2.4060    0.0780   -1.1820 ca        1 4A7     -0.143000
     14 CAB        -1.8330    2.8130    2.8850 c3        1 4A7      0.118700
     15 CAV        -0.8140    3.3620    0.7950 ca        1 4A7      0.271100
     16 CAL        -0.7510    4.7120    1.1460 ca        1 4A7     -0.265000
     17 CAT        -0.2930    5.6330    0.1890 ca        1 4A7      0.221100
     18 OAP        -0.2600    6.9380    0.6160 os        1 4A7     -0.320900
     19 CAA         0.1970    7.9060   -0.3270 c3        1 4A7      0.110700
     20 CAH         0.0960    5.2060   -1.0920 ca        1 4A7     -0.261000
     21 CAJ         0.0130    3.8580   -1.4060 ca        1 4A7      0.043000
     22 CAX        -0.4500    2.9010   -0.4910 ca        1 4A7     -0.447500
     23 SAZ        -0.5960    1.2970   -0.9890 sy        1 4A7      1.530200
     24 OAE        -0.0830    1.2010   -2.3020 o         1 4A7     -0.653300
     25 OAF        -1.9260    0.8670   -0.8250 o         1 4A7     -0.653300
     26 H1         -0.0840    0.2220    0.9480 hn        1 4A7      0.455800
     27 H2          1.9210    0.1810    2.2100 ha        1 4A7      0.134000
     28 H3          4.9150    0.7080    2.8140 hc        1 4A7      0.059200
     29 H4          3.8520   -0.6600    3.3350 hc        1 4A7      0.059200
     30 H5          6.3750   -1.1750    3.2900 hc        1 4A7      0.081200
     31 H6          5.3290   -2.3290    2.3590 hc        1 4A7      0.081200
     32 H7          7.7220   -0.4620   -1.0070 h1        1 4A7      0.052700
     33 H8          6.3780    0.5800   -1.6820 h1        1 4A7      0.052700
     34 H9          6.3590   -1.2280   -1.9500 h1        1 4A7      0.052700
     35 H10         4.2680   -0.2960   -2.1680 ha        1 4A7      0.143000
     36 H11         1.8780    0.1710   -2.1480 ha        1 4A7      0.176000
     37 H12        -2.1870    1.8560    3.3460 h1        1 4A7      0.054367
     38 H13        -1.0880    3.3220    3.5430 h1        1 4A7      0.054367
     39 H14        -2.6950    3.4880    2.6630 h1        1 4A7      0.054367
     40 H15        -1.0440    5.0730    2.1410 ha        1 4A7      0.162000
     41 H16        -0.4700    7.9260   -1.2230 h1        1 4A7      0.052367
     42 H17         0.1290    8.8680    0.2410 h1        1 4A7      0.052367
     43 H18         1.2520    7.6950   -0.6240 h1        1 4A7      0.052367
     44 H19         0.4600    5.9220   -1.8410 ha        1 4A7      0.149000
     45 H20         0.3150    3.5190   -2.4160 ha        1 4A7      0.168000
     46 OAQ        -1.2060    2.3810    1.6790 os        1 4A7     -0.345900
@<TRIPOS>BOND
     1    1    2 1   
     2    1   23 1   
     3    1   26 1   
     4    2    3 ar  
     5    2   13 ar  
     6    3    4 ar  
     7    3   27 1   
     8    4    5 1   
     9    4   11 ar  
    10    5    6 1   
    11    5   28 1   
    12    5   29 1   
    13    6    7 1   
    14    6   30 1   
    15    6   31 1   
    16    7    8 2   
    17    7    9 1   
    18    9   10 1   
    19    9   11 1   
    20   10   32 1   
    21   10   33 1   
    22   10   34 1   
    23   11   12 ar  
    24   12   13 ar  
    25   12   35 1   
    26   13   36 1   
    27   14   37 1   
    28   14   38 1   
    29   14   39 1   
    30   14   46 1   
    31   15   16 ar  
    32   15   22 ar  
    33   15   46 1   
    34   16   17 ar  
    35   16   40 1   
    36   17   18 1   
    37   17   20 ar  
    38   18   19 1   
    39   19   41 1   
    40   19   42 1   
    41   19   43 1   
    42   20   21 ar  
    43   20   44 1   
    44   21   22 ar  
    45   21   45 1   
    46   22   23 1   
    47   23   24 2   
    48   23   25 2   
@<TRIPOS>SUBSTRUCTURE
     1 4A7         1 TEMP              0 ****  ****    0 ROOT
