@<TRIPOS>MOLECULE
4A8
   41    43     1     0     0
SMALL
bcc


@<TRIPOS>ATOM
      1 CAA        -0.0770    1.1060    0.0450 c3        1 4A8      0.109700
      2 OAO         1.3390    0.9380    0.0350 os        1 4A8     -0.318900
      3 CAQ         1.9370    0.6790    1.2440 ca        1 4A8      0.195100
      4 CAH         3.3390    0.5330    1.1960 ca        1 4A8     -0.211500
      5 CAK         4.0280    0.2650    2.3660 ca        1 4A8      0.024000
      6 CAG         1.2500    0.5630    2.4620 ca        1 4A8     -0.211500
      7 CAJ         1.9700    0.2930    3.6190 ca        1 4A8      0.024000
      8 CAR         3.3610    0.1340    3.5960 ca        1 4A8     -0.440500
      9 SAX         4.2200   -0.1590    5.0020 sy        1 4A8      1.525200
     10 OAE         5.5580    0.2580    4.8260 o         1 4A8     -0.652300
     11 OAF         3.5150    0.3930    6.0890 o         1 4A8     -0.652300
     12 NAN         4.2580   -1.7930    5.0940 nu        1 4A8     -0.773500
     13 CAP         3.2140   -2.6770    5.4100 ca        1 4A8      0.179600
     14 CAM         3.2240   -3.9790    4.8430 ca        1 4A8     -0.174000
     15 CAU         2.1920   -4.8440    5.1650 ca        1 4A8      0.036600
     16 NAW         1.9640   -6.1880    4.8010 n         1 4A8     -0.363000
     17 CAC         2.6080   -6.8800    3.7360 c3        1 4A8      0.096300
     18 CAS         0.7250   -6.5980    5.3890 c         1 4A8      0.780500
     19 OAD         0.2030   -7.7180    5.2580 o         1 4A8     -0.619500
     20 NAV         0.1740   -5.4900    6.1240 n         1 4A8     -0.328000
     21 CAB        -0.6640   -5.7030    7.2630 c3        1 4A8      0.080300
     22 CAT         1.1190   -4.4340    6.0480 ca        1 4A8     -0.040400
     23 CAL         1.1250   -3.1630    6.5990 ca        1 4A8     -0.089000
     24 CAI         2.1750   -2.2960    6.2840 ca        1 4A8     -0.189000
     25 H1         -0.3190    1.3050   -1.0300 h1        1 4A8      0.052033
     26 H2         -0.3640    1.9760    0.6840 h1        1 4A8      0.052033
     27 H3         -0.5800    0.1730    0.3980 h1        1 4A8      0.052033
     28 H4          3.8610    0.6370    0.2340 ha        1 4A8      0.153500
     29 H5          5.1290    0.1680    2.3410 ha        1 4A8      0.155500
     30 H6          0.1590    0.6840    2.5110 ha        1 4A8      0.153500
     31 H7          1.4370    0.2130    4.5840 ha        1 4A8      0.155500
     32 H8          5.1000   -2.2640    4.8450 hn        1 4A8      0.453800
     33 H9          4.0310   -4.2990    4.1680 ha        1 4A8      0.144000
     34 H10         2.3970   -6.3910    2.7460 h1        1 4A8      0.053367
     35 H11         2.2330   -7.9390    3.7130 h1        1 4A8      0.053367
     36 H12         3.7170   -6.8760    3.9110 h1        1 4A8      0.053367
     37 H13        -0.0690   -5.8640    8.2040 h1        1 4A8      0.054700
     38 H14        -1.3160   -4.7990    7.3970 h1        1 4A8      0.054700
     39 H15        -1.3030   -6.6060    7.0730 h1        1 4A8      0.054700
     40 H16         0.3270   -2.8340    7.2800 ha        1 4A8      0.147000
     41 H17         2.1760   -1.2940    6.7500 ha        1 4A8      0.173000
@<TRIPOS>BOND
     1    1    2 1   
     2    1   25 1   
     3    1   26 1   
     4    1   27 1   
     5    2    3 1   
     6    3    4 ar  
     7    3    6 ar  
     8    4    5 ar  
     9    4   28 1   
    10    5    8 ar  
    11    5   29 1   
    12    6    7 ar  
    13    6   30 1   
    14    7    8 ar  
    15    7   31 1   
    16    8    9 1   
    17    9   10 2   
    18    9   11 2   
    19    9   12 1   
    20   12   13 1   
    21   12   32 1   
    22   13   14 ar  
    23   13   24 ar  
    24   14   15 ar  
    25   14   33 1   
    26   15   16 1   
    27   15   22 ar  
    28   16   17 1   
    29   16   18 1   
    30   17   34 1   
    31   17   35 1   
    32   17   36 1   
    33   18   19 2   
    34   18   20 1   
    35   20   21 1   
    36   20   22 1   
    37   21   37 1   
    38   21   38 1   
    39   21   39 1   
    40   22   23 ar  
    41   23   24 ar  
    42   23   40 1   
    43   24   41 1   
@<TRIPOS>SUBSTRUCTURE
     1 4A8         1 TEMP              0 ****  ****    0 ROOT
