@<TRIPOS>MOLECULE
4A8
   41    43     1     0     0
SMALL
bcc


@<TRIPOS>ATOM
      1 CAA        -0.0490    1.1050    0.0300 c3        1 4A8      0.109700
      2 OAO         1.3670    0.9430    0.0340 os        1 4A8     -0.318900
      3 CAQ         1.9530    0.6850    1.2500 ca        1 4A8      0.195100
      4 CAH         3.3570    0.5440    1.2160 ca        1 4A8     -0.211500
      5 CAK         4.0340    0.2770    2.3930 ca        1 4A8      0.024000
      6 CAG         1.2530    0.5640    2.4600 ca        1 4A8     -0.211500
      7 CAJ         1.9620    0.2950    3.6240 ca        1 4A8      0.024000
      8 CAR         3.3540    0.1420    3.6160 ca        1 4A8     -0.440500
      9 SAX         4.1990   -0.1510    5.0300 sy        1 4A8      1.525200
     10 OAE         5.5370    0.2730    4.8690 o         1 4A8     -0.652300
     11 OAF         3.4800    0.3960    6.1110 o         1 4A8     -0.652300
     12 NAN         4.2440   -1.7840    5.1200 nh        1 4A8     -0.773500
     13 CAP         3.2010   -2.6740    5.4230 ca        1 4A8      0.179600
     14 CAM         3.2230   -3.9750    4.8530 ca        1 4A8     -0.174000
     15 CAU         2.1920   -4.8460    5.1630 ca        1 4A8      0.036600
     16 NAW         1.9730   -6.1890    4.7930 n         1 4A8     -0.363000
     17 CAC         2.6320   -6.8760    3.7340 c3        1 4A8      0.096300
     18 CAS         0.7300   -6.6070    5.3670 c         1 4A8      0.780500
     19 OAD         0.2150   -7.7280    5.2290 o         1 4A8     -0.619500
     20 NAV         0.1660   -5.5030    6.0990 n         1 4A8     -0.328000
     21 CAB        -0.6820   -5.7210    7.2290 c3        1 4A8      0.080300
     22 CAT         1.1080   -4.4420    6.0350 ca        1 4A8     -0.040400
     23 CAL         1.1020   -3.1720    6.5890 ca        1 4A8     -0.089000
     24 CAI         2.1500   -2.2990    6.2870 ca        1 4A8     -0.189000
     25 H1         -0.5520    0.1700    0.3760 h1        1 4A8      0.052033
     26 H2         -0.2810    1.3060   -1.0470 h1        1 4A8      0.052033
     27 H3         -0.3460    1.9730    0.6670 h1        1 4A8      0.052033
     28 H4          3.8880    0.6520    0.2600 ha        1 4A8      0.153500
     29 H5          5.1350    0.1840    2.3800 ha        1 4A8      0.155500
     30 H6          0.1610    0.6800    2.4980 ha        1 4A8      0.153500
     31 H7          1.4190    0.2110    4.5830 ha        1 4A8      0.155500
     32 H8          5.0910   -2.2510    4.8790 hn        1 4A8      0.453800
     33 H9          4.0380   -4.2890    4.1860 ha        1 4A8      0.144000
     34 H10         2.2620   -7.9360    3.7050 h1        1 4A8      0.053367
     35 H11         3.7400   -6.8670    3.9210 h1        1 4A8      0.053367
     36 H12         2.4290   -6.3860    2.7420 h1        1 4A8      0.053367
     37 H13        -1.3150   -6.6270    7.0300 h1        1 4A8      0.054700
     38 H14        -0.0970   -5.8820    8.1750 h1        1 4A8      0.054700
     39 H15        -1.3400   -4.8210    7.3580 h1        1 4A8      0.054700
     40 H16         0.2950   -2.8480    7.2620 ha        1 4A8      0.147000
     41 H17         2.1430   -1.2980    6.7540 ha        1 4A8      0.173000
@<TRIPOS>BOND
     1    1    2 1   
     2    1   25 1   
     3    1   26 1   
     4    1   27 1   
     5    2    3 1   
     6    3    4 ar  
     7    3    6 ar  
     8    4    5 ar  
     9    4   28 1   
    10    5    8 ar  
    11    5   29 1   
    12    6    7 ar  
    13    6   30 1   
    14    7    8 ar  
    15    7   31 1   
    16    8    9 1   
    17    9   10 2   
    18    9   11 2   
    19    9   12 1   
    20   12   13 1   
    21   12   32 1   
    22   13   14 ar  
    23   13   24 ar  
    24   14   15 ar  
    25   14   33 1   
    26   15   16 1   
    27   15   22 ar  
    28   16   17 1   
    29   16   18 1   
    30   17   34 1   
    31   17   35 1   
    32   17   36 1   
    33   18   19 2   
    34   18   20 1   
    35   20   21 1   
    36   20   22 1   
    37   21   37 1   
    38   21   38 1   
    39   21   39 1   
    40   22   23 ar  
    41   23   24 ar  
    42   23   40 1   
    43   24   41 1   
@<TRIPOS>SUBSTRUCTURE
     1 4A8         1 TEMP              0 ****  ****    0 ROOT
