@<TRIPOS>MOLECULE
4AA
   18    18     1     0     0
SMALL
bcc


@<TRIPOS>ATOM
      1 OAB         0.5760    0.8240    0.3200 o         1 4AA     -0.482000
      2 CAH         1.4890    0.0590    0.0090 c         1 4AA      0.641700
      3 OAC         1.8040   -0.8380    0.9920 oh        1 4AA     -0.583100
      4 CAL         2.2260    0.0300   -1.2690 ca        1 4AA     -0.219600
      5 CAG         1.4840   -0.0390   -2.4540 ca        1 4AA     -0.065000
      6 CAF         2.1150   -0.0670   -3.6880 ca        1 4AA     -0.139000
      7 CAJ         3.5130   -0.0010   -3.7500 ca        1 4AA     -0.008600
      8 CLAE        4.2690   -0.0260   -5.2750 cl        1 4AA     -0.081400
      9 CAK         4.2730    0.0970   -2.5810 ca        1 4AA      0.064100
     10 OAD         5.6480    0.2020   -2.5700 oh        1 4AA     -0.503100
     11 CAI         3.6370    0.1020   -1.2970 ca        1 4AA      0.173600
     12 NAA         4.3860    0.1020   -0.1230 nh        1 4AA     -0.824200
     13 HAG         0.3830   -0.0670   -2.3930 ha        1 4AA      0.159000
     14 HAF         1.5240   -0.1330   -4.6140 ha        1 4AA      0.158000
     15 HAD         5.9630    0.1610   -3.4870 ho        1 4AA      0.438000
     16 HAA1        2.4480   -1.4830    0.6650 ho        1 4AA      0.440000
     17 HAA2        3.9480    0.5420    0.6560 hn        1 4AA      0.415800
     18 HAA3        5.3480    0.3360   -0.2410 hn        1 4AA      0.415800
@<TRIPOS>BOND
     1    1    2 2   
     2    2    3 1   
     3    2    4 1   
     4    3   16 1   
     5    4    5 ar  
     6    4   11 ar  
     7    5    6 ar  
     8    5   13 1   
     9    6    7 ar  
    10    6   14 1   
    11    7    8 1   
    12    7    9 ar  
    13    9   10 1   
    14    9   11 ar  
    15   10   15 1   
    16   11   12 1   
    17   12   17 1   
    18   12   18 1   
@<TRIPOS>SUBSTRUCTURE
     1 4AA         1 TEMP              0 ****  ****    0 ROOT
