@<TRIPOS>MOLECULE
4AA
   17    17     1     0     0
SMALL
bcc


@<TRIPOS>ATOM
      1 OAB         0.0810   -0.3280   -0.0600 o         1 4AA     -0.829800
      2 CAH         1.3080   -0.0440    0.0170 c         1 4AA      0.914200
      3 OAC         1.8870    0.2670    1.1000 o         1 4AA     -0.829800
      4 CAL         2.1130   -0.0480   -1.2780 ca        1 4AA     -0.158600
      5 CAG         1.4180    0.1610   -2.4690 ca        1 4AA     -0.087000
      6 CAF         2.0690    0.2300   -3.6970 ca        1 4AA     -0.178000
      7 CAJ         3.4550    0.0750   -3.7480 ca        1 4AA      0.020400
      8 CLAE        4.2350    0.1650   -5.2680 cl        1 4AA     -0.139400
      9 CAK         4.1800   -0.1470   -2.5710 ca        1 4AA      0.020100
     10 OAD         5.5640   -0.2220   -2.6350 oh        1 4AA     -0.520100
     11 CAI         3.5170   -0.2230   -1.3110 ca        1 4AA      0.120600
     12 NAA         4.2630   -0.5620   -0.1700 nh        1 4AA     -0.817200
     13 HAG         0.3220    0.2710   -2.4100 ha        1 4AA      0.157000
     14 HAF         1.4980    0.4030   -4.6190 ha        1 4AA      0.125000
     15 HAD         5.8020   -1.0860   -2.2670 ho        1 4AA      0.408000
     16 HAA1        3.7110   -0.5150    0.6730 hn        1 4AA      0.396800
     17 HAA2        5.0920   -0.0080   -0.0970 hn        1 4AA      0.396800
@<TRIPOS>BOND
     1    1    2 1   
     2    2    3 1   
     3    2    4 1   
     4    4    5 ar  
     5    4   11 ar  
     6    5    6 ar  
     7    5   13 1   
     8    6    7 ar  
     9    6   14 1   
    10    7    8 1   
    11    7    9 ar  
    12    9   10 1   
    13    9   11 ar  
    14   10   15 1   
    15   11   12 1   
    16   12   16 1   
    17   12   17 1   
@<TRIPOS>SUBSTRUCTURE
     1 4AA         1 TEMP              0 ****  ****    0 ROOT
