@<TRIPOS>MOLECULE
4AA
   17    17     1     0     0
SMALL
bcc


@<TRIPOS>ATOM
      1 OAB         0.0800   -0.3370   -0.0640 o         1 4AA     -0.829800
      2 CAH         1.3050   -0.0460    0.0140 c         1 4AA      0.914200
      3 OAC         1.8810    0.2720    1.0960 o         1 4AA     -0.829800
      4 CAL         2.1120   -0.0500   -1.2790 ca        1 4AA     -0.158600
      5 CAG         1.4180    0.1500   -2.4720 ca        1 4AA     -0.087000
      6 CAF         2.0710    0.2180   -3.7000 ca        1 4AA     -0.178000
      7 CAJ         3.4570    0.0700   -3.7480 ca        1 4AA      0.020400
      8 ClAE        4.2390    0.1580   -5.2670 cl        1 4AA     -0.139400
      9 CAK         4.1820   -0.1440   -2.5690 ca        1 4AA      0.020100
     10 OAD         5.5660   -0.2120   -2.6310 oh        1 4AA     -0.520100
     11 CAI         3.5180   -0.2180   -1.3100 ca        1 4AA      0.120600
     12 NAA         4.2630   -0.5500   -0.1660 nv        1 4AA     -0.817200
     13 HAG         0.3210    0.2550   -2.4160 ha        1 4AA      0.157000
     14 HAF         1.5000    0.3860   -4.6230 ha        1 4AA      0.125000
     15 HAD         5.8080   -1.0740   -2.2590 ho        1 4AA      0.408000
     16 HAA1        5.0890    0.0090   -0.0950 hn        1 4AA      0.396800
     17 HAA2        3.7100   -0.5030    0.6750 hn        1 4AA      0.396800
@<TRIPOS>BOND
     1    1    2 1   
     2    2    3 1   
     3    2    4 1   
     4    4    5 ar  
     5    4   11 ar  
     6    5    6 ar  
     7    5   13 1   
     8    6    7 ar  
     9    6   14 1   
    10    7    8 1   
    11    7    9 ar  
    12    9   10 1   
    13    9   11 ar  
    14   10   15 1   
    15   11   12 1   
    16   12   16 1   
    17   12   17 1   
@<TRIPOS>SUBSTRUCTURE
     1 4AA         1 TEMP              0 ****  ****    0 ROOT
