@<TRIPOS>MOLECULE
4AA
   17    17     1     0     0
SMALL
bcc


@<TRIPOS>ATOM
      1 OAB        -1.3570    0.3270   -3.3110 o         1 4AA     -0.829800
      2 CAH        -0.3080   -0.0390   -2.7140 c         1 4AA      0.914200
      3 OAC         0.7240   -0.4670   -3.3110 o         1 4AA     -0.829800
      4 CAL        -0.3110    0.0140   -1.1900 ca        1 4AA     -0.158600
      5 CAG        -1.5460   -0.0600   -0.5460 ca        1 4AA     -0.087000
      6 CAF        -1.6510   -0.0740    0.8420 ca        1 4AA     -0.178000
      7 CAJ        -0.4940   -0.0020    1.6180 ca        1 4AA      0.020400
      8 CLAE       -0.6460   -0.0240    3.3220 cl        1 4AA     -0.139400
      9 CAK         0.7610    0.0850    1.0020 ca        1 4AA      0.020100
     10 OAD         1.9020    0.0790    1.7910 oh        1 4AA     -0.520100
     11 CAI         0.8730    0.1040   -0.4200 ca        1 4AA      0.120600
     12 NAA         2.1370    0.3090   -0.9990 nh        1 4AA     -0.817200
     13 HAG        -2.4510   -0.1060   -1.1760 ha        1 4AA      0.157000
     14 HAF        -2.6360   -0.1420    1.3230 ha        1 4AA      0.125000
     15 HAD         2.3770    0.8960    1.5790 ho        1 4AA      0.408000
     16 HAA1        2.8230   -0.2990   -0.6000 hn        1 4AA      0.396800
     17 HAA2        2.1110    0.2320   -2.0030 hn        1 4AA      0.396800
@<TRIPOS>BOND
     1    1    2 1   
     2    2    3 1   
     3    2    4 1   
     4    4    5 ar  
     5    4   11 ar  
     6    5    6 ar  
     7    5   13 1   
     8    6    7 ar  
     9    6   14 1   
    10    7    8 1   
    11    7    9 ar  
    12    9   10 1   
    13    9   11 ar  
    14   10   15 1   
    15   11   12 1   
    16   12   16 1   
    17   12   17 1   
@<TRIPOS>SUBSTRUCTURE
     1 4AA         1 TEMP              0 ****  ****    0 ROOT
