@<TRIPOS>MOLECULE
4AA
   17    15     1     0     0
SMALL
bcc


@<TRIPOS>ATOM
      1 OAB        -1.2260    1.2160    2.8040 o         1 4AA     -0.565500
      2 CAH        -1.5450    0.3890    1.9100 c2        1 4AA      0.366000
      3 OAC        -2.4980   -0.4110    2.1040 o         1 4AA     -0.565500
      4 CAL        -0.7880    0.3600    0.6010 c2        1 4AA     -0.145000
      5 CAG        -1.2230    1.1280   -0.4680 c1        1 4AA     -0.085000
      6 CAF        -0.5520    1.0730   -1.6790 c1        1 4AA     -0.180000
      7 CAJ         0.5540    0.2500   -1.8220 c1        1 4AA     -0.088000
      8 CLAE        1.3740    0.1510   -3.3570 cl        1 4AA     -0.080000
      9 CAK         0.9900   -0.5170   -0.7530 c2        1 4AA     -0.041000
     10 OAD         2.0950   -1.3740   -0.9070 oh        1 4AA     -0.274000
     11 CAI         0.3190   -0.4620    0.4580 c2        1 4AA      0.091000
     12 NAA         0.7950   -1.2100    1.5670 n3        1 4AA     -0.325000
     13 HAG        -2.0020    1.7070   -0.3680 ha        1 4AA      0.156000
     14 HAF        -0.8540    1.6200   -2.4300 ha        1 4AA      0.124000
     15 HAD         2.6500   -1.0370   -1.5140 ho        1 4AA      0.204000
     16 HAA1        1.5090   -1.7720    1.4670 hn        1 4AA      0.203500
     17 HAA2        0.4020   -1.1110    2.3870 hn        1 4AA      0.203500
@<TRIPOS>BOND
     1    1    2 1   
     2    2    3 1   
     3    2    4 1   
     4    4    5 1   
     5    4   11 1   
     6    5   13 1   
     7    6    7 1   
     8    6   14 1   
     9    7    9 1   
    10    9   10 1   
    11    9   11 1   
    12   10   15 1   
    13   11   12 1   
    14   12   16 1   
    15   12   17 1   
@<TRIPOS>SUBSTRUCTURE
     1 4AA         1 TEMP              0 ****  ****    0 ROOT
