@<TRIPOS>MOLECULE
4AB
   33    34     1     0     0
SMALL
bcc


@<TRIPOS>ATOM
      1 N1         -0.0210    0.2000   -0.0860 nb        1 4AB     -0.831000
      2 C2          1.3590    0.1630   -0.0590 ca        1 4AB      0.913900
      3 N2          2.0240    0.2890   -1.2920 nv        1 4AB     -0.922500
      4 N3          2.1490    0.0560    1.0690 nb        1 4AB     -0.839000
      5 C4          1.5080    0.0560    2.2780 ca        1 4AB      0.730200
      6 NH4         2.2860    0.0650    3.4350 nv        1 4AB     -0.928500
      7 C4A         0.0750    0.1160    2.3690 ca        1 4AB     -0.314000
      8 C8A        -0.6480    0.2150    1.1300 ca        1 4AB      0.708200
      9 N5         -0.5800    0.0230    3.6280 nu        1 4AB     -0.660600
     10 N8         -2.0340    0.3610    1.1560 nu        1 4AB     -0.855900
     11 C6         -1.9260   -0.5290    3.5060 c3        1 4AB      0.168500
     12 C7         -2.7650    0.1130    2.3700 c3        1 4AB      0.176800
     13 C9         -2.6980   -0.4250    4.8410 c3        1 4AB      0.146100
     14 O9         -2.8810    0.9550    5.1220 oh        1 4AB     -0.598800
     15 C10        -4.0730   -1.1190    4.7650 c3        1 4AB      0.105100
     16 C11        -4.6890   -1.2540    6.1460 c3        1 4AB     -0.138100
     17 O10        -3.8600   -2.3930    4.1710 oh        1 4AB     -0.597800
     18 H22         2.9660   -0.0290   -1.3100 hn        1 4AB      0.417800
     19 H21         1.4840    0.0740   -2.0980 hn        1 4AB      0.417800
     20 HH41        3.2510   -0.1500    3.3250 hn        1 4AB      0.416800
     21 HH42        1.8560   -0.3290    4.2410 hn        1 4AB      0.416800
     22 H5         -0.6230    0.9360    4.0560 hn        1 4AB      0.373800
     23 H8         -2.5270    0.2000    0.3060 hn        1 4AB      0.433800
     24 H6         -1.8110   -1.6330    3.2840 h1        1 4AB      0.092700
     25 H71        -3.1700    1.1020    2.7340 h1        1 4AB      0.055700
     26 H72        -3.6360   -0.5700    2.1560 h1        1 4AB      0.055700
     27 H9         -2.0900   -0.9130    5.6540 h1        1 4AB      0.059700
     28 H9O1       -3.1510    1.0200    6.0460 ho        1 4AB      0.405000
     29 H10        -4.7560   -0.5110    4.1040 h1        1 4AB      0.048700
     30 H113       -4.8280   -0.2470    6.6060 hc        1 4AB      0.047033
     31 H112       -4.0340   -1.8700    6.8080 hc        1 4AB      0.047033
     32 H111       -5.6870   -1.7510    6.0760 hc        1 4AB      0.047033
     33 H1O1       -4.6860   -2.8840    4.2570 ho        1 4AB      0.406000
@<TRIPOS>BOND
     1    1    2 ar  
     2    1    8 ar  
     3    2    3 1   
     4    2    4 ar  
     5    3   18 1   
     6    3   19 1   
     7    4    5 ar  
     8    5    6 1   
     9    5    7 ar  
    10    6   20 1   
    11    6   21 1   
    12    7    8 ar  
    13    7    9 1   
    14    8   10 1   
    15    9   11 1   
    16    9   22 1   
    17   10   12 1   
    18   10   23 1   
    19   11   12 1   
    20   11   13 1   
    21   11   24 1   
    22   12   25 1   
    23   12   26 1   
    24   13   14 1   
    25   13   15 1   
    26   13   27 1   
    27   14   28 1   
    28   15   16 1   
    29   15   17 1   
    30   15   29 1   
    31   16   30 1   
    32   16   31 1   
    33   16   32 1   
    34   17   33 1   
@<TRIPOS>SUBSTRUCTURE
     1 4AB         1 TEMP              0 ****  ****    0 ROOT
