@<TRIPOS>MOLECULE
4AB
   35    36     1     0     0
SMALL
bcc


@<TRIPOS>ATOM
      1 N1          0.0280    0.0140   -0.1080 nb        1 4AB     -0.746000
      2 C2          1.3900    0.2070   -0.0180 ca        1 4AB      0.755900
      3 N2          2.0870    0.3500   -1.3330 n4        1 4AB     -0.811300
      4 N3          2.1510    0.2970    1.0880 nb        1 4AB     -0.690000
      5 C4          1.4790    0.1350    2.2830 ca        1 4AB      0.377200
      6 NH4         2.3140    0.2020    3.4930 n4        1 4AB     -0.801300
      7 C4A         0.0860   -0.1000    2.3820 ca        1 4AB      0.021000
      8 C8A        -0.6430   -0.1210    1.0700 ca        1 4AB      0.724200
      9 N5         -0.5560   -0.4150    3.5470 nh        1 4AB     -0.698600
     10 N8         -1.9920   -0.2740    1.0790 nh        1 4AB     -0.798900
     11 C6         -1.9580   -0.8300    3.5170 c3        1 4AB      0.189500
     12 C7         -2.7370   -0.2470    2.3150 c3        1 4AB      0.168800
     13 C9         -2.6920   -0.4670    4.8360 c3        1 4AB      0.122100
     14 O9         -2.5440    0.9340    5.0060 oh        1 4AB     -0.629800
     15 C10        -4.1790   -0.8800    4.7840 c3        1 4AB      0.116100
     16 C11        -4.7440   -1.0160    6.1830 c3        1 4AB     -0.146100
     17 O10        -4.2460   -2.0910    4.0460 oh        1 4AB     -0.627800
     18 H22         1.9600   -0.5180   -1.8730 hn        1 4AB      0.492467
     19 H21         1.6670    1.1360   -1.8520 hn        1 4AB      0.492467
     20 HH41        2.2160   -0.6780    4.0180 hn        1 4AB      0.480800
     21 HH42        2.0130    0.9930    4.0760 hn        1 4AB      0.480800
     22 H5         -0.2920    0.0790    4.3780 hn        1 4AB      0.448800
     23 H8         -2.5050   -0.3330    0.2190 hn        1 4AB      0.500800
     24 H6         -1.9580   -1.9640    3.4420 h1        1 4AB      0.129700
     25 H71        -3.6750   -0.8670    2.1780 h1        1 4AB      0.119700
     26 H72        -3.0340    0.8200    2.5470 h1        1 4AB      0.119700
     27 H9         -2.1880   -1.0010    5.6920 h1        1 4AB      0.071700
     28 H9O1       -3.1640    1.2170    5.6940 ho        1 4AB      0.448000
     29 H10        -4.7520   -0.0940    4.2080 h1        1 4AB      0.062700
     30 H113       -4.2460   -1.8520    6.7320 hc        1 4AB      0.069033
     31 H112       -4.5980   -0.0700    6.7580 hc        1 4AB      0.069033
     32 H111       -5.8400   -1.2290    6.1330 hc        1 4AB      0.069033
     33 H1O1       -4.9430   -2.6420    4.4260 ho        1 4AB      0.445000
     34 H23         3.0920    0.5270   -1.1940 hn        1 4AB      0.492467
     35 HH43        3.3090    0.3320    3.2470 hn        1 4AB      0.480800
@<TRIPOS>BOND
     1    1    2 ar  
     2    1    8 ar  
     3    2    3 1   
     4    2    4 ar  
     5    3   18 1   
     6    3   19 1   
     7    3   34 1   
     8    4    5 ar  
     9    5    6 1   
    10    5    7 ar  
    11    6   20 1   
    12    6   21 1   
    13    6   35 1   
    14    7    8 ar  
    15    7    9 1   
    16    8   10 1   
    17    9   11 1   
    18    9   22 1   
    19   10   12 1   
    20   10   23 1   
    21   11   12 1   
    22   11   13 1   
    23   11   24 1   
    24   12   25 1   
    25   12   26 1   
    26   13   14 1   
    27   13   15 1   
    28   13   27 1   
    29   14   28 1   
    30   15   16 1   
    31   15   17 1   
    32   15   29 1   
    33   16   30 1   
    34   16   31 1   
    35   16   32 1   
    36   17   33 1   
@<TRIPOS>SUBSTRUCTURE
     1 4AB         1 TEMP              0 ****  ****    0 ROOT
