@<TRIPOS>MOLECULE
4AB
   33    34     1     0     0
SMALL
bcc


@<TRIPOS>ATOM
      1 N1          0.0350    0.1320   -0.0440 nb        1 4AB     -0.807000
      2 C2          1.4030    0.3040    0.0400 ca        1 4AB      0.892900
      3 N2          2.0690    0.7290   -1.1270 nh        1 4AB     -0.916500
      4 N3          2.1590    0.1770    1.1860 nb        1 4AB     -0.816000
      5 C4          1.4990   -0.1370    2.3390 ca        1 4AB      0.674200
      6 NH4         2.2630   -0.3460    3.5040 nh        1 4AB     -0.916500
      7 C4A         0.0760   -0.3410    2.3680 ca        1 4AB     -0.249000
      8 C8A        -0.6110   -0.1920    1.1130 ca        1 4AB      0.680200
      9 N5         -0.5980   -0.5970    3.5880 nh        1 4AB     -0.690600
     10 N8         -1.9910   -0.4520    1.0580 nh        1 4AB     -0.834900
     11 C6         -2.0180   -0.9340    3.4940 c3        1 4AB      0.139500
     12 C7         -2.7230   -0.2740    2.2870 c3        1 4AB      0.188800
     13 C9         -2.7390   -0.5160    4.8020 c3        1 4AB      0.152100
     14 O9         -2.8800    0.8920    4.9110 oh        1 4AB     -0.606800
     15 C10        -4.1700   -1.0880    4.8670 c3        1 4AB      0.141100
     16 C11        -4.8050   -0.7840    6.2100 c3        1 4AB     -0.131100
     17 O10        -4.0500   -2.4900    4.6470 oh        1 4AB     -0.608800
     18 H22         3.0500    0.5620   -1.1400 hn        1 4AB      0.415800
     19 H21         1.5980    0.5290   -1.9800 hn        1 4AB      0.415800
     20 HH41        1.8510    0.0530    4.3200 hn        1 4AB      0.401800
     21 HH42        3.2320   -0.1200    3.4140 hn        1 4AB      0.401800
     22 H5         -0.1280   -1.3300    4.0940 hn        1 4AB      0.379800
     23 H8         -2.4650   -0.1170    0.2440 hn        1 4AB      0.425800
     24 H6         -2.1550   -2.0560    3.3960 h1        1 4AB      0.075700
     25 H71        -2.8970    0.8180    2.5180 h1        1 4AB      0.056700
     26 H72        -3.7250   -0.7720    2.1550 h1        1 4AB      0.056700
     27 H9         -2.1580   -0.9050    5.6870 h1        1 4AB      0.049700
     28 H9O1       -1.9970    1.2700    4.8120 ho        1 4AB      0.423000
     29 H10        -4.7900   -0.6400    4.0400 h1        1 4AB      0.045700
     30 H113       -4.7600    0.3150    6.4010 hc        1 4AB      0.050033
     31 H112       -5.8720   -1.1120    6.2160 hc        1 4AB      0.050033
     32 H111       -4.2630   -1.3160    7.0270 hc        1 4AB      0.050033
     33 H1O1       -4.8850   -2.8870    4.9200 ho        1 4AB      0.408000
@<TRIPOS>BOND
     1    1    2 ar  
     2    1    8 ar  
     3    2    3 1   
     4    2    4 ar  
     5    3   18 1   
     6    3   19 1   
     7    4    5 ar  
     8    5    6 1   
     9    5    7 ar  
    10    6   20 1   
    11    6   21 1   
    12    7    8 ar  
    13    7    9 1   
    14    8   10 1   
    15    9   11 1   
    16    9   22 1   
    17   10   12 1   
    18   10   23 1   
    19   11   12 1   
    20   11   13 1   
    21   11   24 1   
    22   12   25 1   
    23   12   26 1   
    24   13   14 1   
    25   13   15 1   
    26   13   27 1   
    27   14   28 1   
    28   15   16 1   
    29   15   17 1   
    30   15   29 1   
    31   16   30 1   
    32   16   31 1   
    33   16   32 1   
    34   17   33 1   
@<TRIPOS>SUBSTRUCTURE
     1 4AB         1 TEMP              0 ****  ****    0 ROOT
