@<TRIPOS>MOLECULE
4AB
   33    31     1     0     0
SMALL
bcc


@<TRIPOS>ATOM
      1 N1          1.3150    0.7800   -3.2200 n1        1 4AB     -0.625800
      2 C2          2.7040    0.9520   -3.1880 c1        1 4AB      0.569600
      3 N2          3.4240    1.1810   -4.4070 n3        1 4AB     -0.781400
      4 N3          3.4080    0.8330   -1.9620 n1        1 4AB     -0.634800
      5 C4          2.7300    0.5490   -0.8000 c1        1 4AB      0.252800
      6 NH4         3.4440    0.4460    0.4330 n3        1 4AB     -0.788400
      7 C4A         1.3760    0.3800   -0.8240 c1        1 4AB     -0.194200
      8 C8A         0.6470    0.5030   -2.0910 c1        1 4AB      0.564600
      9 N5          0.5900   -0.0100    0.3900 n3        1 4AB     -0.639800
     10 N8         -0.8900    0.4160   -2.0390 n3        1 4AB     -0.720800
     11 C6         -0.7210   -0.3520    0.2000 c3        1 4AB      0.178500
     12 C7         -1.4470    0.3810   -0.8480 c3        1 4AB      0.177800
     13 C9         -1.4870   -0.1240    1.5760 c3        1 4AB      0.141100
     14 O9         -2.5390    0.7170    1.3760 oh        1 4AB     -0.601800
     15 C10        -1.9910   -1.4400    2.0930 c3        1 4AB      0.107100
     16 C11        -2.8800   -1.2030    3.2620 c3        1 4AB     -0.138100
     17 O10        -0.8960   -2.2430    2.4910 oh        1 4AB     -0.594800
     18 H22         3.0690    0.9280   -5.1930 hn        1 4AB      0.415800
     19 H21         4.2470    1.5550   -4.3830 hn        1 4AB      0.415800
     20 HH41        3.3850    1.1260    1.0620 hn        1 4AB      0.414300
     21 HH42        3.9980   -0.2520    0.5740 hn        1 4AB      0.414300
     22 H5          0.6460    0.6580    1.0170 hn        1 4AB      0.370800
     23 H8         -1.2540    1.1080   -2.5300 hn        1 4AB      0.436800
     24 H6         -0.7600   -1.3410   -0.0230 h1        1 4AB      0.100700
     25 H71        -2.3440   -0.0330   -0.9420 h1        1 4AB      0.051200
     26 H72        -1.5660    1.2940   -0.5470 h1        1 4AB      0.051200
     27 H9         -0.8670    0.2750    2.2350 h1        1 4AB      0.059700
     28 H9O1       -2.5410    1.3410    2.0030 ho        1 4AB      0.406000
     29 H10        -2.4820   -1.8880    1.4010 h1        1 4AB      0.046700
     30 H113       -3.1630   -2.0460    3.6260 hc        1 4AB      0.046700
     31 H112       -3.6620   -0.6920    2.9760 hc        1 4AB      0.046700
     32 H111       -2.4060   -0.7130    3.9260 hc        1 4AB      0.046700
     33 H1O1       -1.0890   -3.0850    2.3560 ho        1 4AB      0.406000
@<TRIPOS>BOND
     1    1    8 3   
     2    2    3 1   
     3    2    4 3   
     4    3   18 1   
     5    3   19 1   
     6    5    6 1   
     7    5    7 3   
     8    6   20 1   
     9    6   21 1   
    10    7    9 1   
    11    8   10 1   
    12    9   11 1   
    13    9   22 1   
    14   10   12 1   
    15   10   23 1   
    16   11   12 1   
    17   11   13 1   
    18   11   24 1   
    19   12   25 1   
    20   12   26 1   
    21   13   14 1   
    22   13   15 1   
    23   13   27 1   
    24   14   28 1   
    25   15   16 1   
    26   15   17 1   
    27   15   29 1   
    28   16   30 1   
    29   16   31 1   
    30   16   32 1   
    31   17   33 1   
@<TRIPOS>SUBSTRUCTURE
     1 4AB         1 TEMP              0 ****  ****    0 ROOT
