@<TRIPOS>MOLECULE
4AB
   33    34     1     0     0
SMALL
bcc


@<TRIPOS>ATOM
      1 N1         -1.4080    0.0520   -2.6230 nb        1 4AB     -0.809000
      2 C2         -0.5010   -0.1720   -3.6400 ca        1 4AB      0.894900
      3 N2         -1.0260   -0.4560   -4.9160 nh        1 4AB     -0.914500
      4 N3          0.8720   -0.1850   -3.5040 nb        1 4AB     -0.818000
      5 C4          1.3730   -0.0920   -2.2380 ca        1 4AB      0.669200
      6 NH4         2.7650   -0.2200   -2.0550 nh        1 4AB     -0.917500
      7 C4A         0.5170    0.0630   -1.0970 ca        1 4AB     -0.261000
      8 C8A        -0.8930    0.1990   -1.3670 ca        1 4AB      0.700200
      9 N5          1.0180    0.1790    0.2250 nh        1 4AB     -0.665600
     10 N8         -1.7660    0.5480   -0.3360 nh        1 4AB     -0.850900
     11 C6          0.0410   -0.2060    1.2440 c3        1 4AB      0.128500
     12 C7         -1.3080    0.5210    1.0270 c3        1 4AB      0.205800
     13 C9          0.5910    0.0660    2.6640 c3        1 4AB      0.116100
     14 O9          1.1360    1.3590    2.8420 oh        1 4AB     -0.586800
     15 C10        -0.4860   -0.1760    3.7430 c3        1 4AB      0.109100
     16 C11         0.1510   -0.1970    5.1200 c3        1 4AB     -0.126100
     17 O10        -1.2110   -1.3670    3.4840 oh        1 4AB     -0.599800
     18 H22        -0.3970   -0.3170   -5.6750 hn        1 4AB      0.415800
     19 H21        -1.9540   -0.1330   -5.0760 hn        1 4AB      0.415800
     20 HH41        3.2880   -0.2980   -2.9030 hn        1 4AB      0.400300
     21 HH42        3.1390    0.4740   -1.4430 hn        1 4AB      0.400300
     22 H5          1.8560   -0.3600    0.3500 hn        1 4AB      0.382800
     23 H8         -2.7340    0.3520   -0.4760 hn        1 4AB      0.436800
     24 H6         -0.1780   -1.3190    1.2060 h1        1 4AB      0.048700
     25 H71        -2.0780    0.0090    1.6750 h1        1 4AB      0.057700
     26 H72        -1.2120    1.5920    1.3710 h1        1 4AB      0.057700
     27 H9          1.4590   -0.6310    2.8540 h1        1 4AB      0.065700
     28 H9O1        0.6440    1.9720    2.2820 ho        1 4AB      0.415000
     29 H10        -1.2630    0.6390    3.6900 h1        1 4AB      0.076700
     30 H113       -0.6380   -0.2870    5.9040 hc        1 4AB      0.050700
     31 H112        0.8510   -1.0610    5.2170 hc        1 4AB      0.050700
     32 H111        0.7240    0.7490    5.2770 hc        1 4AB      0.050700
     33 H1O1       -0.6190   -2.1090    3.6540 ho        1 4AB      0.402000
@<TRIPOS>BOND
     1    1    2 ar  
     2    1    8 ar  
     3    2    3 1   
     4    2    4 ar  
     5    3   18 1   
     6    3   19 1   
     7    4    5 ar  
     8    5    6 1   
     9    5    7 ar  
    10    6   20 1   
    11    6   21 1   
    12    7    8 ar  
    13    7    9 1   
    14    8   10 1   
    15    9   11 1   
    16    9   22 1   
    17   10   12 1   
    18   10   23 1   
    19   11   12 1   
    20   11   13 1   
    21   11   24 1   
    22   12   25 1   
    23   12   26 1   
    24   13   14 1   
    25   13   15 1   
    26   13   27 1   
    27   14   28 1   
    28   15   16 1   
    29   15   17 1   
    30   15   29 1   
    31   16   30 1   
    32   16   31 1   
    33   16   32 1   
    34   17   33 1   
@<TRIPOS>SUBSTRUCTURE
     1 4AB         1 TEMP              0 ****  ****    0 ROOT
