@<TRIPOS>MOLECULE
4AC
   38    39     1     0     0
SMALL
bcc


@<TRIPOS>ATOM
      1 OP3         2.7530   -0.3890   -5.0780 oh        1 4AC     -0.786400
      2 P           3.4880   -1.1970   -3.8580 p5        1 4AC      1.430800
      3 OP1         4.7500   -1.7940   -4.3350 o         1 4AC     -0.844000
      4 OP2         2.3510   -1.9100   -3.2290 o         1 4AC     -0.844000
      5 O5'         3.8500    0.0850   -2.8880 os        1 4AC     -0.582200
      6 C5'         2.7840    0.7310   -2.2580 c3        1 4AC      0.179400
      7 C4'         2.9360    0.6310   -0.7330 c3        1 4AC      0.088100
      8 O4'         2.5560    1.8770   -0.1220 os        1 4AC     -0.406600
      9 C3'         2.0740   -0.4850   -0.1060 c3        1 4AC      0.110100
     10 O3'         2.7830   -1.1750    0.9050 oh        1 4AC     -0.593800
     11 C2'         0.8440    0.2630    0.4450 c3        1 4AC      0.076100
     12 O2'         0.5280   -0.2340    1.7320 oh        1 4AC     -0.624800
     13 C1'         1.2930    1.7590    0.5440 c3        1 4AC      0.287500
     14 N1          0.2880    2.7050    0.0840 n         1 4AC     -0.338400
     15 C2         -0.7160    3.0790    1.0530 c         1 4AC      0.740500
     16 O2         -0.7220    2.4860    2.1730 o         1 4AC     -0.722100
     17 N3         -1.6690    4.0500    0.7480 ne        1 4AC     -0.749100
     18 C4         -1.6370    4.5720   -0.5040 cf        1 4AC      0.565200
     19 N4         -2.6040    5.5460   -0.8860 n         1 4AC     -0.487400
     20 C5         -0.7070    4.1640   -1.4950 cf        1 4AC     -0.594700
     21 C6          0.2830    3.2110   -1.1740 c1        1 4AC     -0.049900
     22 C7         -3.3920    6.3560   -0.0970 c         1 4AC      0.661100
     23 O7         -3.2750    6.5130    1.1310 o         1 4AC     -0.580100
     24 CM7        -4.4630    7.1410   -0.8440 c3        1 4AC     -0.188100
     25 H5'         2.8100    1.8240   -2.5360 h1        1 4AC      0.047200
     26 H5''        1.8060    0.2850   -2.5860 h1        1 4AC      0.047200
     27 H4'         4.0200    0.4950   -0.4690 h1        1 4AC      0.075700
     28 H3'         1.8030   -1.2740   -0.8640 h1        1 4AC      0.141700
     29 HO3'        2.7910   -0.6050    1.6840 ho        1 4AC      0.393000
     30 H2'        -0.0330    0.1310   -0.2400 h1        1 4AC      0.067700
     31 HO2'       -0.0820    0.4100    2.1270 ho        1 4AC      0.437000
     32 H1'         1.5130    2.0090    1.6310 h2        1 4AC      0.066700
     33 H4         -2.7350    5.6070   -1.8700 hn        1 4AC      0.302500
     34 H5         -0.7130    4.5710   -2.5090 ha        1 4AC      0.114000
     35 H6          1.8150   -0.3220   -4.9400 ho        1 4AC      0.422000
     36 HM71       -5.0190    7.7730   -0.1110 hc        1 4AC      0.046367
     37 HM72       -5.1810    6.4450   -1.3390 hc        1 4AC      0.046367
     38 HM73       -4.0030    7.8020   -1.6160 hc        1 4AC      0.046367
@<TRIPOS>BOND
     1    1    2 1   
     2    1   35 1   
     3    2    3 1   
     4    2    4 1   
     5    2    5 1   
     6    5    6 1   
     7    6    7 1   
     8    6   25 1   
     9    6   26 1   
    10    7    8 1   
    11    7    9 1   
    12    7   27 1   
    13    8   13 1   
    14    9   10 1   
    15    9   11 1   
    16    9   28 1   
    17   10   29 1   
    18   11   12 1   
    19   11   13 1   
    20   11   30 1   
    21   12   31 1   
    22   13   14 1   
    23   13   32 1   
    24   14   15 1   
    25   14   21 2   
    26   15   16 2   
    27   15   17 1   
    28   17   18 2   
    29   18   19 1   
    30   18   20 1   
    31   19   22 1   
    32   19   33 1   
    33   20   21 2   
    34   20   34 1   
    35   22   23 2   
    36   22   24 1   
    37   24   36 1   
    38   24   37 1   
    39   24   38 1   
@<TRIPOS>SUBSTRUCTURE
     1 4AC         1 TEMP              0 ****  ****    0 ROOT
