@<TRIPOS>MOLECULE
4AC
   38    38     1     0     0
SMALL
bcc


@<TRIPOS>ATOM
      1 OP3         0.6540    5.2640    3.1630 o         1 4AC     -0.730167
      2 P           0.3740    4.3970    4.3650 p5        1 4AC      1.343900
      3 OP1        -1.1010    4.4660    4.7030 o         1 4AC     -0.730167
      4 OP2         1.1880    4.8930    5.5480 o         1 4AC     -0.730167
      5 O5'         0.7780    2.8780    4.0370 os        1 4AC     -0.600200
      6 C5'         0.7790    2.4470    2.6630 c3        1 4AC      0.173400
      7 C4'         0.8260    0.9150    2.6100 c3        1 4AC      0.054100
      8 O4'        -0.0340    0.4680    1.7560 os        1 4AC     -0.436600
      9 C3'         2.2060    0.4340    2.0840 c3        1 4AC      0.273100
     10 O3'         2.9110   -0.1430    3.0770 oh        1 4AC     -0.988800
     11 C2'         1.8900   -0.5950    0.9820 c3        1 4AC      0.034100
     12 O2'         2.6800   -1.8380    1.1950 oh        1 4AC     -0.644800
     13 C1'         0.6190   -0.8420    1.1080 c3        1 4AC      0.273500
     14 N1          0.0470   -1.0960   -0.1610 n         1 4AC     -0.349400
     15 C2         -1.3230   -0.6640   -0.4440 c         1 4AC      0.783500
     16 O2         -1.9960   -0.1440    0.4380 o         1 4AC     -0.616100
     17 N3         -1.9100   -0.9020   -1.7710 ne        1 4AC     -0.631800
     18 C4         -1.2020   -1.6660   -2.7290 c1        1 4AC      0.491500
     19 N4         -1.7950   -1.9250   -4.0480 n2        1 4AC     -0.573400
     20 C5          0.1600   -2.1470   -2.4240 ce        1 4AC     -0.531700
     21 C6          0.7460   -1.8910   -1.0990 ce        1 4AC      0.319800
     22 C7         -3.1110   -1.4160   -4.3630 c2        1 4AC      0.624300
     23 O7         -3.7290   -0.7720   -3.5320 o         1 4AC     -0.589300
     24 CM7        -3.7050   -1.6300   -5.7740 c3        1 4AC     -0.185100
     25 H5'        -0.0290    2.7620    2.2250 h1        1 4AC      0.021700
     26 H5''        1.5700    2.8180    2.2010 h1        1 4AC      0.021700
     27 H4'         0.6510    0.5390    3.4950 h1        1 4AC      0.045700
     28 H3'         2.7050    1.1870    1.7080 h1        1 4AC     -0.040300
     29 HO3'        3.7110    0.2230    3.1210 ho        1 4AC      0.431000
     30 H2'         2.0790   -0.2160    0.0940 h1        1 4AC      0.028700
     31 HO2'        3.5060   -1.7330    0.8470 ho        1 4AC      0.436000
     32 H1'         0.4830   -1.6130    1.7000 h2        1 4AC      0.099700
     33 H4         -1.3500   -2.4200   -4.6510 hn        1 4AC      0.481400
     34 H5          0.6370   -2.6910   -3.0690 ha        1 4AC      0.169000
     35 H6          1.5910   -2.3320   -0.8390 h4        1 4AC      0.107800
     36 HM71       -4.4560   -2.2700   -5.7220 hc        1 4AC      0.055033
     37 HM72       -4.0330   -0.7630   -6.1300 hc        1 4AC      0.055033
     38 HM73       -3.0160   -1.9840   -6.3660 hc        1 4AC      0.055033
@<TRIPOS>BOND
     1    1    2 1   
     2    2    3 1   
     3    2    4 1   
     4    2    5 1   
     5    5    6 1   
     6    6    7 1   
     7    6   25 1   
     8    6   26 1   
     9    7    8 1   
    10    7    9 1   
    11    7   27 1   
    12    8   13 1   
    13    9   10 1   
    14    9   11 1   
    15    9   28 1   
    16   10   29 1   
    17   11   12 1   
    18   11   13 1   
    19   11   30 1   
    20   12   31 1   
    21   13   14 1   
    22   13   32 1   
    23   14   15 1   
    24   14   21 2   
    25   15   16 2   
    26   15   17 1   
    27   17   18 2   
    28   18   20 2   
    29   19   22 2   
    30   19   33 1   
    31   20   21 1   
    32   20   34 1   
    33   21   35 1   
    34   22   23 1   
    35   22   24 1   
    36   24   36 1   
    37   24   37 1   
    38   24   38 1   
@<TRIPOS>SUBSTRUCTURE
     1 4AC         1 TEMP              0 ****  ****    0 ROOT
