@<TRIPOS>MOLECULE
4AD
   52    54     1     0     0
SMALL
bcc


@<TRIPOS>ATOM
      1 O2P         3.3770   -0.3270   -1.7460 o         1 4AD     -0.850300
      2 P           2.0340   -0.0920   -2.2560 p5        1 4AD      1.749500
      3 O1P         1.7760    0.2380   -3.7670 oh        1 4AD     -0.733400
      4 O3P         1.3530    1.2400   -1.6190 os        1 4AD     -0.624500
      5 C           1.3110    1.7750   -0.3870 c         1 4AD      0.717100
      6 O           0.2880    1.6340    0.2760 o         1 4AD     -0.483000
      7 CA          2.5400    2.5880    0.0320 c3        1 4AD      0.189700
      8 N           2.1530    3.5540    1.1500 n4        1 4AD     -0.859600
      9 CB          3.5800    1.6730    0.4750 c2        1 4AD     -0.623200
     10 CG          4.8640    1.8080   -0.0630 c2        1 4AD      0.593300
     11 OD1         5.4380    2.7870   -0.5640 o         1 4AD     -0.614300
     12 ND2         5.6810    0.5300   -0.0990 n4        1 4AD     -0.735400
     13 O5'         0.9580   -1.2120   -1.9480 os        1 4AD     -0.597200
     14 C5'         1.1880   -2.1660   -0.9280 c3        1 4AD      0.168400
     15 C4'         1.3600   -3.5610   -1.5340 c3        1 4AD      0.070100
     16 C3'         1.0260   -4.6680   -0.5110 c3        1 4AD      0.129100
     17 O3'        -0.0930   -5.4150   -0.9020 oh        1 4AD     -0.567800
     18 C2'         2.3210   -5.5050   -0.3740 c3        1 4AD      0.085100
     19 O2'         2.1260   -6.7360   -1.0350 oh        1 4AD     -0.588800
     20 C1'         3.4030   -4.7120   -1.1750 c3        1 4AD      0.232800
     21 O4'         2.7150   -3.7370   -1.9700 os        1 4AD     -0.419600
     22 N9          4.3980   -4.0460   -0.3560 na        1 4AD     -0.289000
     23 C4          5.1350   -4.5940    0.7090 ca        1 4AD      0.459800
     24 N3          5.0350   -5.7990    1.3420 nb        1 4AD     -0.743000
     25 C2          5.9420   -5.9460    2.3370 ca        1 4AD      0.698900
     26 N1          6.9070   -5.0910    2.7680 nb        1 4AD     -0.766000
     27 C6          7.0140   -3.8750    2.1420 ca        1 4AD      0.740200
     28 N6          7.9240   -2.9310    2.5780 nh        1 4AD     -0.930500
     29 C5          6.1150   -3.5700    1.0650 ca        1 4AD     -0.219200
     30 N7          5.9700   -2.4590    0.2220 nc        1 4AD     -0.627100
     31 C8          4.9690   -2.7800   -0.6140 cd        1 4AD      0.415700
     32 HA          2.8790    3.2370   -0.8350 hx        1 4AD      0.131700
     33 HN1         3.0150    3.8780    1.5980 hn        1 4AD      0.451467
     34 HN2         1.6270    4.3480    0.7840 hn        1 4AD      0.451467
     35 HN3         1.5780    3.0660    1.8430 hn        1 4AD      0.451467
     36 HB1         0.8720    0.3360   -4.0700 ho        1 4AD      0.516000
     37 HB2         3.2980    0.8070    1.0790 ha        1 4AD      0.151000
     38 HD21        6.6290    0.7260   -0.4260 hn        1 4AD      0.463467
     39 HD22        5.7180    0.0890    0.8190 hn        1 4AD      0.463467
     40 H5'1        2.1030   -1.8700   -0.3460 h1        1 4AD      0.068200
     41 H5'2        0.2670   -2.1570   -0.2770 h1        1 4AD      0.068200
     42 H4'         0.7280   -3.6580   -2.4610 h1        1 4AD      0.115700
     43 H3'         0.7410   -4.2310    0.4870 h1        1 4AD      0.091700
     44 H2          0.1700   -6.0240   -1.6080 ho        1 4AD      0.435000
     45 H2'         2.5790   -5.6490    0.7050 h1        1 4AD      0.102700
     46 H1          2.5360   -7.4250   -0.4960 ho        1 4AD      0.439000
     47 H1'         3.9290   -5.3870   -1.9170 h2        1 4AD      0.119700
     48 H3          5.9030   -6.9170    2.8810 h5        1 4AD      0.068100
     49 HN61        8.6150   -3.2190    3.2340 hn        1 4AD      0.432800
     50 HN62        8.2040   -2.2520    1.9110 hn        1 4AD      0.432800
     51 H8          4.5900   -2.1570   -1.4410 h5        1 4AD      0.107800
     52 HD23        5.2160   -0.1140   -0.7590 hn        1 4AD      0.463467
@<TRIPOS>BOND
     1    1    2 2   
     2    2    3 1   
     3    2    4 1   
     4    2   13 1   
     5    3   36 1   
     6    4    5 1   
     7    5    6 2   
     8    5    7 1   
     9    7    8 1   
    10    7    9 1   
    11    7   32 1   
    12    8   33 1   
    13    8   34 1   
    14    8   35 1   
    15    9   10 2   
    16    9   37 1   
    17   10   11 1   
    18   10   12 1   
    19   12   38 1   
    20   12   39 1   
    21   12   52 1   
    22   13   14 1   
    23   14   15 1   
    24   14   40 1   
    25   14   41 1   
    26   15   16 1   
    27   15   21 1   
    28   15   42 1   
    29   16   17 1   
    30   16   18 1   
    31   16   43 1   
    32   17   44 1   
    33   18   19 1   
    34   18   20 1   
    35   18   45 1   
    36   19   46 1   
    37   20   21 1   
    38   20   22 1   
    39   20   47 1   
    40   22   23 1   
    41   22   31 1   
    42   23   24 ar  
    43   23   29 ar  
    44   24   25 ar  
    45   25   26 ar  
    46   25   48 1   
    47   26   27 ar  
    48   27   28 1   
    49   27   29 ar  
    50   28   49 1   
    51   28   50 1   
    52   29   30 1   
    53   30   31 2   
    54   31   51 1   
@<TRIPOS>SUBSTRUCTURE
     1 4AD         1 TEMP              0 ****  ****    0 ROOT
