@<TRIPOS>MOLECULE
4AD
   51    53     1     0     0
SMALL
bcc


@<TRIPOS>ATOM
      1 O2P         3.5280   -2.3380   -1.0120 o         1 4AD     -0.786500
      2 P           2.2410   -1.7070   -1.3930 p5        1 4AD      1.497800
      3 O1P         1.1210   -2.1150   -2.2260 o         1 4AD     -0.786500
      4 O3P         2.8630   -0.2110   -1.9040 os        1 4AD     -0.553500
      5 C           4.1030    0.2260   -1.8100 c         1 4AD      0.720100
      6 O           4.7660    0.4590   -2.8190 o         1 4AD     -0.507000
      7 CA          4.6460    0.5770   -0.3960 c3        1 4AD      0.033500
      8 N           5.1740   -0.6490    0.2610 n4        1 4AD     -0.864600
      9 CB          5.6780    1.6920   -0.5390 c3        1 4AD     -0.178400
     10 CG          6.2180    2.1550    0.7990 c         1 4AD      0.659100
     11 OD1         6.2940    1.3710    1.7770 o         1 4AD     -0.661100
     12 ND2         6.6520    3.4420    0.9180 n         1 4AD     -0.645000
     13 O5'         1.7200   -1.0780    0.0200 os        1 4AD     -0.599200
     14 C5'         0.3910   -0.6390    0.0890 c3        1 4AD      0.163400
     15 C4'        -0.4060   -1.5200    1.0600 c3        1 4AD      0.070100
     16 C3'        -1.2420   -2.6120    0.3590 c3        1 4AD      0.119100
     17 O3'        -1.0320   -3.8720    0.9470 oh        1 4AD     -0.571800
     18 C2'        -2.7040   -2.1210    0.4580 c3        1 4AD      0.084100
     19 O2'        -3.4730   -3.1130    1.1010 oh        1 4AD     -0.592800
     20 C1'        -2.6520   -0.8540    1.3770 c3        1 4AD      0.221800
     21 O4'        -1.3020   -0.6830    1.8120 os        1 4AD     -0.415600
     22 N9         -3.1310    0.3520    0.7390 na        1 4AD     -0.287000
     23 C4         -4.3990    0.5110    0.1620 ca        1 4AD      0.451800
     24 N3         -5.4210   -0.3820   -0.0140 nb        1 4AD     -0.757000
     25 C2         -6.4930    0.1730   -0.6260 ca        1 4AD      0.689900
     26 N1         -6.6890    1.4420   -1.0730 nb        1 4AD     -0.796000
     27 C6         -5.6680    2.3470   -0.8920 ca        1 4AD      0.763200
     28 N6         -5.8060    3.6530   -1.2820 nh        1 4AD     -0.957500
     29 C5         -4.4570    1.9060   -0.2580 ca        1 4AD     -0.226200
     30 N7         -3.2570    2.5550    0.0680 nc        1 4AD     -0.552100
     31 C8         -2.5000    1.6160    0.6560 cd        1 4AD      0.423700
     32 HA          3.7790    0.9430    0.2360 hx        1 4AD      0.128700
     33 HN1         5.3880   -0.4500    1.2440 hn        1 4AD      0.478467
     34 HN2         4.4380   -1.4190    0.1650 hn        1 4AD      0.478467
     35 HN3         6.0180   -0.9650   -0.2140 hn        1 4AD      0.478467
     36 HB1         5.1770    2.5300   -1.0960 hc        1 4AD      0.107700
     37 HB2         6.5400    1.3490   -1.1770 hc        1 4AD      0.107700
     38 HD21        7.0250    3.7550    1.7830 hn        1 4AD      0.327000
     39 HD22        6.6000    4.0760    0.1620 hn        1 4AD      0.327000
     40 H5'1        0.4010    0.4140    0.4930 h1        1 4AD      0.055200
     41 H5'2       -0.0710   -0.6450   -0.9370 h1        1 4AD      0.055200
     42 H4'         0.2840   -1.9710    1.8250 h1        1 4AD      0.099700
     43 H3'        -0.9360   -2.7460   -0.7180 h1        1 4AD      0.132700
     44 H2         -1.5140   -3.8990    1.7840 ho        1 4AD      0.416000
     45 H2'        -3.1100   -1.8930   -0.5620 h1        1 4AD      0.087700
     46 H1         -4.3990   -2.9270    0.8930 ho        1 4AD      0.433000
     47 H1'        -3.2590   -1.0230    2.3190 h2        1 4AD      0.098700
     48 H3         -7.3520   -0.5120   -0.7960 h5        1 4AD      0.051100
     49 HN61       -5.0190    4.2500   -1.2240 hn        1 4AD      0.447300
     50 HN62       -6.6040    3.9430   -1.7910 hn        1 4AD      0.447300
     51 H8         -1.4860    1.7560    1.0530 h5        1 4AD      0.081800
@<TRIPOS>BOND
     1    1    2 1   
     2    2    3 1   
     3    2    4 1   
     4    2   13 1   
     5    4    5 1   
     6    5    6 2   
     7    5    7 1   
     8    7    8 1   
     9    7    9 1   
    10    7   32 1   
    11    8   33 1   
    12    8   34 1   
    13    8   35 1   
    14    9   10 1   
    15    9   36 1   
    16    9   37 1   
    17   10   11 2   
    18   10   12 1   
    19   12   38 1   
    20   12   39 1   
    21   13   14 1   
    22   14   15 1   
    23   14   40 1   
    24   14   41 1   
    25   15   16 1   
    26   15   21 1   
    27   15   42 1   
    28   16   17 1   
    29   16   18 1   
    30   16   43 1   
    31   17   44 1   
    32   18   19 1   
    33   18   20 1   
    34   18   45 1   
    35   19   46 1   
    36   20   21 1   
    37   20   22 1   
    38   20   47 1   
    39   22   23 1   
    40   22   31 1   
    41   23   24 ar  
    42   23   29 ar  
    43   24   25 ar  
    44   25   26 ar  
    45   25   48 1   
    46   26   27 ar  
    47   27   28 1   
    48   27   29 ar  
    49   28   49 1   
    50   28   50 1   
    51   29   30 1   
    52   30   31 2   
    53   31   51 1   
@<TRIPOS>SUBSTRUCTURE
     1 4AD         1 TEMP              0 ****  ****    0 ROOT
