@<TRIPOS>MOLECULE
4AD
   52    54     1     0     0
SMALL
bcc


@<TRIPOS>ATOM
      1 O2P         3.3200   -0.2740   -1.6890 o         1 4AD     -0.850300
      2 P           1.9590   -0.0180   -2.1390 p5        1 4AD      1.749500
      3 O1P         1.6440    0.3620   -3.6260 oh        1 4AD     -0.733400
      4 O3P         1.3090    1.2950   -1.4330 os        1 4AD     -0.624500
      5 C           1.3180    1.7890   -0.1830 c         1 4AD      0.717100
      6 O           0.3200    1.6300    0.5140 o         1 4AD     -0.483000
      7 CA          2.5660    2.5840    0.2140 c3        1 4AD      0.189700
      8 N           2.2270    3.5150    1.3770 nz        1 4AD     -0.859600
      9 CB          3.6180    1.6520    0.5860 c2        1 4AD     -0.623200
     10 CG          4.8800    1.8000    0.0040 c2        1 4AD      0.593300
     11 OD1         5.4400    2.7930   -0.4870 o         1 4AD     -0.614300
     12 ND2         5.6900    0.5220   -0.1060 nz        1 4AD     -0.735400
     13 O5'         0.8900   -1.1440   -1.8250 os        1 4AD     -0.597200
     14 C5'         1.1560   -2.1310   -0.8460 c3        1 4AD      0.168400
     15 C4'         1.2980   -3.5070   -1.5030 c3        1 4AD      0.070100
     16 C3'         1.0000   -4.6450   -0.5040 c3        1 4AD      0.129100
     17 O3'        -0.1380   -5.3750   -0.8750 oh        1 4AD     -0.567800
     18 C2'         2.2940   -5.4900   -0.4460 c3        1 4AD      0.085100
     19 O2'         2.0680   -6.6990   -1.1390 oh        1 4AD     -0.588800
     20 C1'         3.3480   -4.6750   -1.2620 c3        1 4AD      0.232800
     21 O4'         2.6340   -3.6720   -1.9970 os        1 4AD     -0.419600
     22 N9          4.3770   -4.0400   -0.4620 na        1 4AD     -0.289000
     23 C4          5.1530   -4.6240    0.5550 ca        1 4AD      0.459800
     24 N3          5.0720   -5.8490    1.1520 nb        1 4AD     -0.743000
     25 C2          6.0170   -6.0320    2.1050 ca        1 4AD      0.698900
     26 N1          7.0020   -5.1950    2.5260 nb        1 4AD     -0.766000
     27 C6          7.0900   -3.9590    1.9360 ca        1 4AD      0.740200
     28 N6          8.0210   -3.0330    2.3660 nv        1 4AD     -0.930500
     29 C5          6.1510   -3.6160    0.9060 ca        1 4AD     -0.219200
     30 N7          5.9780   -2.4780    0.1050 nc        1 4AD     -0.627100
     31 C8          4.9440   -2.7680   -0.7010 cd        1 4AD      0.415700
     32 HA          2.8740    3.2600   -0.6430 hx        1 4AD      0.131700
     33 HN1         1.6910    4.3220    1.0580 hn        1 4AD      0.451467
     34 HN2         3.1080    3.8200    1.8020 hn        1 4AD      0.451467
     35 HN3         1.6760    3.0060    2.0750 hn        1 4AD      0.451467
     36 HB1         3.3560    0.7670    1.1720 ha        1 4AD      0.151000
     37 HB2         0.7290    0.4720   -3.8910 ho        1 4AD      0.516000
     38 HD21        5.1970   -0.0990   -0.7680 hn        1 4AD      0.463467
     39 HD22        6.6250    0.7240   -0.4630 hn        1 4AD      0.463467
     40 H5'1        2.0940   -1.8580   -0.2910 h1        1 4AD      0.068200
     41 H5'2        0.2620   -2.1410   -0.1590 h1        1 4AD      0.068200
     42 H4'         0.6300   -3.5710   -2.4070 h1        1 4AD      0.115700
     43 H3'         0.7550   -4.2400    0.5170 h1        1 4AD      0.091700
     44 H2          0.0950   -5.9620   -1.6110 ho        1 4AD      0.435000
     45 H2'         2.5940   -5.6700    0.6170 h1        1 4AD      0.102700
     46 H1          2.4960   -7.4070   -0.6390 ho        1 4AD      0.439000
     47 H1'         3.8420   -5.3280   -2.0470 h2        1 4AD      0.119700
     48 H3          5.9950   -7.0210    2.6180 h5        1 4AD      0.068100
     49 HN61        8.2780   -2.3330    1.7110 hn        1 4AD      0.432800
     50 HN62        8.7360   -3.3440    2.9850 hn        1 4AD      0.432800
     51 H8          4.5350   -2.1170   -1.4910 h5        1 4AD      0.107800
     52 HD23        5.7600    0.0500    0.7950 hn        1 4AD      0.463467
@<TRIPOS>BOND
     1    1    2 2   
     2    2    3 1   
     3    2    4 1   
     4    2   13 1   
     5    3   37 1   
     6    4    5 1   
     7    5    6 2   
     8    5    7 1   
     9    7    8 1   
    10    7    9 1   
    11    7   32 1   
    12    8   33 1   
    13    8   34 1   
    14    8   35 1   
    15    9   10 2   
    16    9   36 1   
    17   10   11 1   
    18   10   12 1   
    19   12   38 1   
    20   12   39 1   
    21   12   52 1   
    22   13   14 1   
    23   14   15 1   
    24   14   40 1   
    25   14   41 1   
    26   15   16 1   
    27   15   21 1   
    28   15   42 1   
    29   16   17 1   
    30   16   18 1   
    31   16   43 1   
    32   17   44 1   
    33   18   19 1   
    34   18   20 1   
    35   18   45 1   
    36   19   46 1   
    37   20   21 1   
    38   20   22 1   
    39   20   47 1   
    40   22   23 1   
    41   22   31 1   
    42   23   24 ar  
    43   23   29 ar  
    44   24   25 ar  
    45   25   26 ar  
    46   25   48 1   
    47   26   27 ar  
    48   27   28 1   
    49   27   29 ar  
    50   28   49 1   
    51   28   50 1   
    52   29   30 1   
    53   30   31 2   
    54   31   51 1   
@<TRIPOS>SUBSTRUCTURE
     1 4AD         1 TEMP              0 ****  ****    0 ROOT
