@<TRIPOS>MOLECULE
4AD
   53    55     1     0     0
SMALL
bcc


@<TRIPOS>ATOM
      1 O2P         3.6900    0.1540   -0.2200 o         1 4AD     -0.802300
      2 P           2.9540    0.0140   -1.4590 p5        1 4AD      1.711500
      3 O1P         3.6550    0.0320   -2.8640 oh        1 4AD     -0.735400
      4 O3P         1.9490    1.2760   -1.6930 os        1 4AD     -0.618500
      5 C           1.3950    2.1910   -0.8850 c         1 4AD      0.732100
      6 O           0.4240    1.9080   -0.1870 o         1 4AD     -0.485000
      7 CA          1.9730    3.5990   -1.0500 c3        1 4AD      0.189700
      8 N           0.9010    4.6290   -0.7300 n4        1 4AD     -0.860600
      9 CB          3.1470    3.7700   -0.1790 c2        1 4AD     -0.567200
     10 CG          3.7840    4.9970   -0.1790 c2        1 4AD      0.539300
     11 OD1         3.4240    6.0980   -0.6520 o         1 4AD     -0.666300
     12 ND2         5.1260    5.0790    0.5380 n4        1 4AD     -0.733400
     13 O5'         1.9700   -1.2220   -1.6150 os        1 4AD     -0.593200
     14 C5'         1.7430   -2.0930   -0.5260 c3        1 4AD      0.177400
     15 C4'         1.9130   -3.5280   -1.0250 c3        1 4AD      0.115100
     16 C3'         1.0890   -4.5450   -0.2130 c3        1 4AD      0.087100
     17 O3'         0.0890   -5.0440   -1.0770 oh        1 4AD     -0.582800
     18 C2'         2.0750   -5.6720    0.1700 c3        1 4AD      0.080100
     19 O2'         1.6570   -6.9340   -0.2700 oh        1 4AD     -0.560800
     20 C1'         3.4240   -5.2620   -0.5130 c3        1 4AD      0.218800
     21 O4'         3.3030   -3.8870   -0.9120 os        1 4AD     -0.433600
     22 N9          4.5910   -5.3960    0.3350 na        1 4AD     -0.257000
     23 C4          5.4100   -6.5350    0.3940 ca        1 4AD      0.462800
     24 N3          5.3650   -7.7250   -0.2540 nb        1 4AD     -0.610000
     25 C2          6.3550   -8.5840    0.1000 ca        1 4AD      0.679900
     26 N1          7.3620   -8.3980    1.0040 nb        1 4AD     -0.671000
     27 C6          7.3990   -7.2030    1.6420 ca        1 4AD      0.525200
     28 N6          8.4600   -6.9470    2.6330 n4        1 4AD     -0.816300
     29 C5          6.4510   -6.1940    1.3910 ca        1 4AD     -0.137200
     30 N7          6.2470   -4.8960    1.8710 nc        1 4AD     -0.584100
     31 C8          5.1490   -4.4560    1.2260 cd        1 4AD      0.512700
     32 HA          2.2310    3.7680   -2.1420 hx        1 4AD      0.123700
     33 HN1         0.1220    4.5540   -1.3860 hn        1 4AD      0.465133
     34 HN2         1.3270    5.5670   -0.7950 hn        1 4AD      0.465133
     35 HN3         0.5530    4.4790    0.2220 hn        1 4AD      0.465133
     36 HB1         3.4990    2.9090    0.3960 ha        1 4AD      0.181000
     37 HB2         3.1320   -0.1700   -3.6410 ho        1 4AD      0.514000
     38 HD21        5.7920    4.4520    0.0860 hn        1 4AD      0.454133
     39 HD22        5.0210    4.8050    1.5150 hn        1 4AD      0.454133
     40 H5'1        0.6750   -1.9520   -0.1940 h1        1 4AD      0.077200
     41 H5'2        2.4630   -1.8530    0.3030 h1        1 4AD      0.077200
     42 H4'         1.6410   -3.5860   -2.1180 h1        1 4AD      0.120700
     43 H3'         0.6340   -4.0850    0.7030 h1        1 4AD      0.074700
     44 H2         -0.5220   -5.5680   -0.5400 ho        1 4AD      0.438000
     45 H2'         2.1710   -5.7730    1.2850 h1        1 4AD      0.107700
     46 H1          1.3750   -6.8620   -1.1970 ho        1 4AD      0.432000
     47 H1'         3.6020   -5.8830   -1.4440 h2        1 4AD      0.119700
     48 H3          6.3520   -9.5780   -0.4120 h5        1 4AD      0.108100
     49 HN61        8.9120   -6.0520    2.4060 hn        1 4AD      0.480133
     50 HN62        8.0300   -6.8830    3.5650 hn        1 4AD      0.480133
     51 H8          4.7070   -3.4510    1.3410 h5        1 4AD      0.109800
     52 HD23        5.4700    6.0430    0.4850 hn        1 4AD      0.454133
     53 H63         9.1610   -7.7020    2.6310 hn        1 4AD      0.480133
@<TRIPOS>BOND
     1    1    2 2   
     2    2    3 1   
     3    2    4 1   
     4    2   13 1   
     5    3   37 1   
     6    4    5 1   
     7    5    6 2   
     8    5    7 1   
     9    7    8 1   
    10    7    9 1   
    11    7   32 1   
    12    8   33 1   
    13    8   34 1   
    14    8   35 1   
    15    9   10 2   
    16    9   36 1   
    17   10   11 1   
    18   10   12 1   
    19   12   38 1   
    20   12   39 1   
    21   12   52 1   
    22   13   14 1   
    23   14   15 1   
    24   14   40 1   
    25   14   41 1   
    26   15   16 1   
    27   15   21 1   
    28   15   42 1   
    29   16   17 1   
    30   16   18 1   
    31   16   43 1   
    32   17   44 1   
    33   18   19 1   
    34   18   20 1   
    35   18   45 1   
    36   19   46 1   
    37   20   21 1   
    38   20   22 1   
    39   20   47 1   
    40   22   23 1   
    41   22   31 1   
    42   23   24 ar  
    43   23   29 ar  
    44   24   25 ar  
    45   25   26 ar  
    46   25   48 1   
    47   26   27 ar  
    48   27   28 1   
    49   27   29 ar  
    50   28   49 1   
    51   28   50 1   
    52   28   53 1   
    53   29   30 1   
    54   30   31 2   
    55   31   51 1   
@<TRIPOS>SUBSTRUCTURE
     1 4AD         1 TEMP              0 ****  ****    0 ROOT
