@<TRIPOS>MOLECULE
4AE
   52    55     1     0     0
SMALL
bcc


@<TRIPOS>ATOM
      1 CAA         0.7420   -1.1730   -0.5350 c3        1 4AE      0.112700
      2 OAS         2.0620   -0.8850   -0.0900 os        1 4AE     -0.325900
      3 CAU         2.1780   -0.3790    1.1900 ca        1 4AE      0.108100
      4 CAK         1.0950   -0.1060    2.0360 ca        1 4AE     -0.158000
      5 CAM         1.3290    0.4140    3.3070 ca        1 4AE     -0.123000
      6 CAJ         3.5010   -0.1380    1.6090 ca        1 4AE     -0.158000
      7 CAL         3.7330    0.3730    2.8790 ca        1 4AE     -0.123000
      8 CAV         2.6470    0.6450    3.7210 ca        1 4AE      0.060100
      9 OAT         2.7990    1.0750    5.0400 os        1 4AE     -0.254200
     10 CAX         3.8770    1.9300    5.2750 ca        1 4AE      0.046100
     11 CAQ         3.9830    3.1240    4.5460 ca        1 4AE     -0.119000
     12 CBB         5.0030    3.9990    4.8820 ca        1 4AE     -0.021400
     13 NBD         5.3320    5.2850    4.3880 n         1 4AE     -0.330000
     14 CAC         5.0290    5.7170    3.0610 c3        1 4AE      0.079300
     15 CAZ         6.5440    5.6880    5.0550 c         1 4AE      0.772500
     16 OAD         7.1730    6.7350    4.8370 o         1 4AE     -0.611500
     17 NBC         6.8280    4.7440    6.1040 n         1 4AE     -0.336000
     18 CAB         8.1330    4.6090    6.6700 c3        1 4AE      0.079300
     19 CBA         5.9260    3.6660    5.9470 ca        1 4AE      0.016600
     20 CAP         5.8190    2.4770    6.6520 ca        1 4AE     -0.175000
     21 CAW         4.7700    1.5810    6.3240 ca        1 4AE      0.176600
     22 NAR         4.6160    0.3720    7.0130 nh        1 4AE     -0.761500
     23 SBE         5.0740   -0.0160    8.5350 sy        1 4AE      1.518200
     24 OAE         4.9120   -1.4120    8.6650 o         1 4AE     -0.649800
     25 OAF         6.3490    0.5090    8.8250 o         1 4AE     -0.649800
     26 CAY         3.9370    0.7610    9.4970 ca        1 4AE     -0.395500
     27 CAN         4.1630    2.0580    9.9760 ca        1 4AE     -0.010000
     28 CAH         3.2310    2.6910   10.7930 ca        1 4AE     -0.156500
     29 CAG         2.0530    2.0310   11.1440 ca        1 4AE     -0.061000
     30 CAI         1.8150    0.7370   10.6810 ca        1 4AE     -0.156500
     31 CAO         2.7510    0.1100    9.8640 ca        1 4AE     -0.010000
     32 H1          0.2610   -1.9380    0.1220 h1        1 4AE      0.045367
     33 H2          0.8980   -1.5800   -1.5660 h1        1 4AE      0.045367
     34 H3          0.1250   -0.2420   -0.5680 h1        1 4AE      0.045367
     35 H4          0.0620   -0.2950    1.7130 ha        1 4AE      0.149000
     36 H5          0.4940    0.6330    3.9880 ha        1 4AE      0.150500
     37 H6          4.3330   -0.3620    0.9260 ha        1 4AE      0.149000
     38 H7          4.7600    0.5670    3.2230 ha        1 4AE      0.150500
     39 H8          3.2670    3.3400    3.7410 ha        1 4AE      0.161000
     40 H9          5.4980    5.0570    2.2810 h1        1 4AE      0.055033
     41 H10         3.9140    5.7000    2.9260 h1        1 4AE      0.055033
     42 H11         5.4100    6.7660    2.9310 h1        1 4AE      0.055033
     43 H12         8.7750    3.8990    6.0800 h1        1 4AE      0.057700
     44 H13         8.0320    4.2200    7.7180 h1        1 4AE      0.057700
     45 H14         8.6210    5.6210    6.6860 h1        1 4AE      0.057700
     46 H15         6.5480    2.2350    7.4450 ha        1 4AE      0.184000
     47 H16         4.0510   -0.2790    6.5040 hn        1 4AE      0.466800
     48 H17         5.1020    2.5750    9.7070 ha        1 4AE      0.152500
     49 H18         3.4250    3.7100   11.1610 ha        1 4AE      0.143500
     50 H19         1.3130    2.5300   11.7890 ha        1 4AE      0.138000
     51 H20         0.8900    0.2110   10.9610 ha        1 4AE      0.143500
     52 H21         2.5710   -0.9210    9.5100 ha        1 4AE      0.152500
@<TRIPOS>BOND
     1    1    2 1   
     2    1   32 1   
     3    1   33 1   
     4    1   34 1   
     5    2    3 1   
     6    3    4 ar  
     7    3    6 ar  
     8    4    5 ar  
     9    4   35 1   
    10    5    8 ar  
    11    5   36 1   
    12    6    7 ar  
    13    6   37 1   
    14    7    8 ar  
    15    7   38 1   
    16    8    9 1   
    17    9   10 1   
    18   10   11 ar  
    19   10   21 ar  
    20   11   12 ar  
    21   11   39 1   
    22   12   13 1   
    23   12   19 ar  
    24   13   14 1   
    25   13   15 1   
    26   14   40 1   
    27   14   41 1   
    28   14   42 1   
    29   15   16 2   
    30   15   17 1   
    31   17   18 1   
    32   17   19 1   
    33   18   43 1   
    34   18   44 1   
    35   18   45 1   
    36   19   20 ar  
    37   20   21 ar  
    38   20   46 1   
    39   21   22 1   
    40   22   23 1   
    41   22   47 1   
    42   23   24 2   
    43   23   25 2   
    44   23   26 1   
    45   26   27 ar  
    46   26   31 ar  
    47   27   28 ar  
    48   27   48 1   
    49   28   29 ar  
    50   28   49 1   
    51   29   30 ar  
    52   29   50 1   
    53   30   31 ar  
    54   30   51 1   
    55   31   52 1   
@<TRIPOS>SUBSTRUCTURE
     1 4AE         1 TEMP              0 ****  ****    0 ROOT
