@<TRIPOS>MOLECULE
4AE
   52    55     1     0     0
SMALL
bcc


@<TRIPOS>ATOM
      1 CAA         0.7340   -1.1560   -0.5400 c3        1 4AE      0.112700
      2 OAS         2.0550   -0.8620   -0.0990 os        1 4AE     -0.325900
      3 CAU         2.1730   -0.3630    1.1840 ca        1 4AE      0.108100
      4 CAK         1.0920   -0.1020    2.0350 ca        1 4AE     -0.157500
      5 CAM         1.3290    0.4120    3.3080 ca        1 4AE     -0.123000
      6 CAJ         3.4960   -0.1170    1.5980 ca        1 4AE     -0.157500
      7 CAL         3.7310    0.3880    2.8700 ca        1 4AE     -0.123000
      8 CAV         2.6460    0.6490    3.7180 ca        1 4AE      0.060100
      9 OAT         2.8010    1.0720    5.0400 os        1 4AE     -0.254200
     10 CAX         3.8760    1.9310    5.2750 ca        1 4AE      0.046100
     11 CAQ         3.9730    3.1300    4.5540 ca        1 4AE     -0.119000
     12 CBB         4.9900    4.0080    4.8900 ca        1 4AE     -0.021400
     13 NBD         5.3110    5.2980    4.4030 n         1 4AE     -0.330000
     14 CAC         5.0000    5.7370    3.0790 c3        1 4AE      0.079300
     15 CAZ         6.5230    5.7040    5.0680 c         1 4AE      0.772500
     16 OAD         7.1460    6.7550    4.8540 o         1 4AE     -0.611500
     17 NBC         6.8160    4.7550    6.1100 n         1 4AE     -0.336000
     18 CAB         8.1240    4.6230    6.6690 c3        1 4AE      0.079300
     19 CBA         5.9190    3.6730    5.9500 ca        1 4AE      0.016600
     20 CAP         5.8210    2.4800    6.6480 ca        1 4AE     -0.175000
     21 CAW         4.7750    1.5800    6.3190 ca        1 4AE      0.176600
     22 NAR         4.6290    0.3660    7.0010 nu        1 4AE     -0.761500
     23 SBE         5.0960   -0.0280    8.5190 sy        1 4AE      1.518200
     24 OAE         4.9410   -1.4250    8.6410 o         1 4AE     -0.649800
     25 OAF         6.3690    0.5010    8.8070 o         1 4AE     -0.649800
     26 CAY         3.9580    0.7370    9.4900 ca        1 4AE     -0.395500
     27 CAN         4.1810    2.0320    9.9760 ca        1 4AE     -0.010000
     28 CAH         3.2490    2.6560   10.8010 ca        1 4AE     -0.156500
     29 CAG         2.0750    1.9890   11.1520 ca        1 4AE     -0.061000
     30 CAI         1.8410    0.6960   10.6810 ca        1 4AE     -0.156500
     31 CAO         2.7770    0.0780    9.8570 ca        1 4AE     -0.010000
     32 H1          0.1120   -0.2280   -0.5650 h1        1 4AE      0.045367
     33 H2          0.8890   -1.5550   -1.5740 h1        1 4AE      0.045367
     34 H3          0.2610   -1.9280    0.1140 h1        1 4AE      0.045367
     35 H4          0.0590   -0.2950    1.7160 ha        1 4AE      0.149000
     36 H5          0.4950    0.6220    3.9940 ha        1 4AE      0.150500
     37 H6          4.3270   -0.3320    0.9110 ha        1 4AE      0.149000
     38 H7          4.7580    0.5860    3.2120 ha        1 4AE      0.150500
     39 H8          3.2520    3.3470    3.7520 ha        1 4AE      0.161000
     40 H9          5.3750    6.7890    2.9550 h1        1 4AE      0.055033
     41 H10         5.4690    5.0840    2.2940 h1        1 4AE      0.055033
     42 H11         3.8850    5.7150    2.9490 h1        1 4AE      0.055033
     43 H12         8.6070    5.6370    6.6900 h1        1 4AE      0.057700
     44 H13         8.0290    4.2270    7.7150 h1        1 4AE      0.057700
     45 H14         8.7680    3.9200    6.0730 h1        1 4AE      0.057700
     46 H15         6.5540    2.2360    7.4360 ha        1 4AE      0.184000
     47 H16         4.0660   -0.2840    6.4900 hn        1 4AE      0.466800
     48 H17         5.1160    2.5550    9.7070 ha        1 4AE      0.152500
     49 H18         3.4390    3.6740   11.1740 ha        1 4AE      0.143500
     50 H19         1.3350    2.4810   11.8020 ha        1 4AE      0.138000
     51 H20         0.9200    0.1640   10.9620 ha        1 4AE      0.143500
     52 H21         2.6000   -0.9510    9.4980 ha        1 4AE      0.152500
@<TRIPOS>BOND
     1    1    2 1   
     2    1   32 1   
     3    1   33 1   
     4    1   34 1   
     5    2    3 1   
     6    3    4 ar  
     7    3    6 ar  
     8    4    5 ar  
     9    4   35 1   
    10    5    8 ar  
    11    5   36 1   
    12    6    7 ar  
    13    6   37 1   
    14    7    8 ar  
    15    7   38 1   
    16    8    9 1   
    17    9   10 1   
    18   10   11 ar  
    19   10   21 ar  
    20   11   12 ar  
    21   11   39 1   
    22   12   13 1   
    23   12   19 ar  
    24   13   14 1   
    25   13   15 1   
    26   14   40 1   
    27   14   41 1   
    28   14   42 1   
    29   15   16 2   
    30   15   17 1   
    31   17   18 1   
    32   17   19 1   
    33   18   43 1   
    34   18   44 1   
    35   18   45 1   
    36   19   20 ar  
    37   20   21 ar  
    38   20   46 1   
    39   21   22 1   
    40   22   23 1   
    41   22   47 1   
    42   23   24 2   
    43   23   25 2   
    44   23   26 1   
    45   26   27 ar  
    46   26   31 ar  
    47   27   28 ar  
    48   27   48 1   
    49   28   29 ar  
    50   28   49 1   
    51   29   30 ar  
    52   29   50 1   
    53   30   31 ar  
    54   30   51 1   
    55   31   52 1   
@<TRIPOS>SUBSTRUCTURE
     1 4AE         1 TEMP              0 ****  ****    0 ROOT
