@<TRIPOS>MOLECULE
4AF
   27    25     1     0     0
SMALL
bcc


@<TRIPOS>ATOM
      1 C11        -3.4830    0.5900    3.1710 c3        1 4AF     -0.265000
      2 C8         -2.0860    0.1360    3.0930 c2        1 4AF      0.275000
      3 O2         -1.5170   -0.1530    4.0620 o         1 4AF     -0.329000
      4 C7         -1.3380    0.1440    1.7180 c2        1 4AF     -0.190000
      5 C9         -0.6600    1.2940    1.2990 c2        1 4AF     -0.097000
      6 C10         0.1170    1.2650    0.1300 c1        1 4AF     -0.136000
      7 C6         -1.2420   -1.0210    0.9790 c1        1 4AF     -0.076000
      8 C5         -0.4730   -1.0490   -0.1770 c1        1 4AF     -0.157000
      9 C4          0.2120    0.1140   -0.6000 c1        1 4AF      0.011000
     10 C3          0.9120    0.1330   -1.9630 c3        1 4AF     -0.129000
     11 C1          2.2880   -0.4830   -1.8280 c3        1 4AF     -0.127000
     12 C2          2.4330   -1.6100   -2.8160 c2        1 4AF      0.308000
     13 OX1         2.9860   -2.7130   -2.4570 o         1 4AF     -0.573000
     14 O           2.0450   -1.4650   -3.9760 o         1 4AF     -0.573000
     15 N           3.2760    0.5030   -2.0860 n3        1 4AF     -0.322000
     16 H111       -3.6820    1.1450    2.4150 hc        1 4AF      0.096000
     17 H112       -3.6100    1.0840    3.9670 hc        1 4AF      0.096000
     18 H113       -4.0570   -0.1580    3.1700 hc        1 4AF      0.096000
     19 H9         -0.7290    2.1270    1.8270 ha        1 4AF      0.117000
     20 H10         0.5770    2.0440   -0.1530 ha        1 4AF      0.145000
     21 H6         -1.7050   -1.8090    1.2660 ha        1 4AF      0.139000
     22 H5         -0.4030   -1.9170   -0.7280 ha        1 4AF      0.143000
     23 H31         1.0000    1.0750   -2.2810 hc        1 4AF      0.103500
     24 H32         0.3720   -0.3950   -2.6250 hc        1 4AF      0.103500
     25 H1          2.4050   -0.8410   -0.8890 h1        1 4AF      0.086000
     26 HN1         3.2440    0.7370   -2.9450 hn        1 4AF      0.127500
     27 HN2         3.1210    1.2240   -1.5730 hn        1 4AF      0.127500
@<TRIPOS>BOND
     1    1    2 1   
     2    1   16 1   
     3    1   17 1   
     4    1   18 1   
     5    2    3 1   
     6    2    4 1   
     7    4    5 1   
     8    4    7 1   
     9    5    6 1   
    10    5   19 1   
    11    6   20 1   
    12    7   21 1   
    13    8    9 1   
    14    8   22 1   
    15    9   10 1   
    16   10   11 1   
    17   10   23 1   
    18   10   24 1   
    19   11   12 1   
    20   11   15 1   
    21   11   25 1   
    22   12   13 1   
    23   12   14 1   
    24   15   26 1   
    25   15   27 1   
@<TRIPOS>SUBSTRUCTURE
     1 4AF         1 TEMP              0 ****  ****    0 ROOT
