@<TRIPOS>MOLECULE
4AF
   27    27     1     0     0
SMALL
bcc


@<TRIPOS>ATOM
      1 C11         4.6940    1.2410    0.7030 c3        1 4AF     -0.198100
      2 C8          4.1070    0.0460    0.0120 c         1 4AF      0.585700
      3 O2          4.8420   -0.8830   -0.3580 o         1 4AF     -0.570100
      4 C7          2.6520    0.0320   -0.1940 ca        1 4AF     -0.212600
      5 C9          2.0440   -1.1210   -0.7120 ca        1 4AF     -0.081500
      6 C10         0.6680   -1.1650   -0.9160 ca        1 4AF     -0.153000
      7 C6          1.8480    1.1390    0.1160 ca        1 4AF     -0.081500
      8 C5          0.4760    1.0950   -0.0930 ca        1 4AF     -0.153000
      9 C4         -0.1350   -0.0590   -0.6110 ca        1 4AF      0.013700
     10 C3         -1.6020   -0.0840   -0.8460 c3        1 4AF     -0.046100
     11 C1         -2.4170   -0.0290    0.4520 c3        1 4AF      0.022500
     12 C2         -3.8730    0.4240    0.0890 c         1 4AF      0.887600
     13 OX1        -3.9950    1.4430   -0.6450 o         1 4AF     -0.838300
     14 O          -4.8350   -0.2400    0.5670 o         1 4AF     -0.838300
     15 N          -2.3400   -1.2580    1.2280 n3        1 4AF     -0.887800
     16 H111        5.7910    1.1000    0.8600 hc        1 4AF      0.057033
     17 H112        4.5340    2.1540    0.0790 hc        1 4AF      0.057033
     18 H113        4.2010    1.3890    1.6940 hc        1 4AF      0.057033
     19 H9          2.6730   -1.9920   -0.9530 ha        1 4AF      0.128000
     20 H10         0.2030   -2.0810   -1.3120 ha        1 4AF      0.141000
     21 H6          2.3000    2.0550    0.5250 ha        1 4AF      0.128000
     22 H5         -0.1520    1.9650    0.1540 ha        1 4AF      0.141000
     23 H31        -1.8980    0.8220   -1.4490 hc        1 4AF      0.066200
     24 H32        -1.8850   -0.9930   -1.4380 hc        1 4AF      0.066200
     25 H1         -1.9880    0.7890    1.1020 h1        1 4AF      0.043700
     26 HN1        -3.0290   -1.1890    1.9600 hn        1 4AF      0.332800
     27 HN2        -2.6310   -2.0230    0.6430 hn        1 4AF      0.332800
@<TRIPOS>BOND
     1    1    2 1   
     2    1   16 1   
     3    1   17 1   
     4    1   18 1   
     5    2    3 2   
     6    2    4 1   
     7    4    5 ar  
     8    4    7 ar  
     9    5    6 ar  
    10    5   19 1   
    11    6    9 ar  
    12    6   20 1   
    13    7    8 ar  
    14    7   21 1   
    15    8    9 ar  
    16    8   22 1   
    17    9   10 1   
    18   10   11 1   
    19   10   23 1   
    20   10   24 1   
    21   11   12 1   
    22   11   15 1   
    23   11   25 1   
    24   12   13 1   
    25   12   14 1   
    26   15   26 1   
    27   15   27 1   
@<TRIPOS>SUBSTRUCTURE
     1 4AF         1 TEMP              0 ****  ****    0 ROOT
