@<TRIPOS>MOLECULE
4AG
  108   107     1     0     0
SMALL
bcc


@<TRIPOS>ATOM
      1 C01         0.0590    0.1230    0.3530 c3        1 4AG     -0.092100
      2 C02         1.5410    0.3930    0.3960 c3        1 4AG     -0.080400
      3 C03         2.1450   -0.0260    1.7190 c3        1 4AG     -0.079400
      4 C04         3.6330    0.2470    1.7570 c3        1 4AG     -0.079400
      5 C05         4.2350   -0.1720    3.0810 c3        1 4AG     -0.079400
      6 C06         5.7240    0.1000    3.1190 c3        1 4AG     -0.079400
      7 C07         6.3250   -0.3190    4.4430 c3        1 4AG     -0.079400
      8 C08         7.8140   -0.0460    4.4810 c3        1 4AG     -0.079400
      9 C09         8.4160   -0.4660    5.8050 c3        1 4AG     -0.079400
     10 C10         9.9040   -0.1940    5.8430 c3        1 4AG     -0.079400
     11 C11        10.5060   -0.6120    7.1670 c3        1 4AG     -0.079400
     12 C12        11.9940   -0.3410    7.2040 c3        1 4AG     -0.079400
     13 C13        12.5950   -0.7580    8.5290 c3        1 4AG     -0.079400
     14 C14        14.0840   -0.4900    8.5590 c3        1 4AG     -0.079400
     15 C15        14.6740   -0.8910    9.8960 c3        1 4AG     -0.127400
     16 C16        16.1640   -0.7570    9.8850 c         1 4AG      0.637100
     17 O17        16.6500   -0.2210   11.0490 os        1 4AG     -0.455900
     18 C18        18.0750   -0.0990   11.1600 c3        1 4AG      0.136400
     19 C20        17.5000    1.4130   13.1410 c3        1 4AG      0.122400
     20 O21        18.2150   -0.8930   13.3860 os        1 4AG     -0.435900
     21 C22        18.9190   -0.9930   14.5590 c         1 4AG      0.642100
     22 C23        18.5680   -2.2300   15.3250 c3        1 4AG     -0.126400
     23 C24        19.7730   -2.7740   16.0630 c3        1 4AG     -0.079400
     24 C25        19.3790   -3.9380   16.9460 c3        1 4AG     -0.078400
     25 C26        20.5810   -4.4990   17.6750 c3        1 4AG     -0.079400
     26 C27        20.1910   -5.6610   18.5630 c3        1 4AG     -0.079400
     27 C28        21.3920   -6.2210   19.2940 c3        1 4AG     -0.079400
     28 C29        21.0020   -7.3830   20.1820 c3        1 4AG     -0.079400
     29 C30        22.2030   -7.9420   20.9140 c3        1 4AG     -0.079400
     30 C31        21.8130   -9.1040   21.8020 c3        1 4AG     -0.079400
     31 C32        23.0130   -9.6620   22.5360 c3        1 4AG     -0.079400
     32 C33        22.6230  -10.8240   23.4240 c3        1 4AG     -0.079400
     33 C34        23.8230  -11.3820   24.1580 c3        1 4AG     -0.079400
     34 C35        23.4330  -12.5430   25.0470 c3        1 4AG     -0.079400
     35 C36        24.6330  -13.1020   25.7820 c3        1 4AG     -0.080400
     36 C37        24.2490  -14.2590   26.6680 c3        1 4AG     -0.092100
     37 O38        19.7170   -0.0980   14.8420 o         1 4AG     -0.543000
     38 C6         18.3960    0.2960   12.6010 c3        1 4AG      0.102100
     39 O39        16.9720   -1.0640    9.0080 o         1 4AG     -0.536000
     40 O8         16.2880    0.9340   13.6800 oh        1 4AG     -0.595800
     41 H011       -0.3650    0.4400   -0.6300 hc        1 4AG      0.032700
     42 H012       -0.4670    0.6860    1.1620 hc        1 4AG      0.032700
     43 H013       -0.1470   -0.9650    0.4930 hc        1 4AG      0.032700
     44 H021        2.0490   -0.1600   -0.4380 hc        1 4AG      0.038700
     45 H022        1.7300    1.4870    0.2290 hc        1 4AG      0.038700
     46 H031        1.6390    0.5270    2.5540 hc        1 4AG      0.039700
     47 H032        1.9580   -1.1190    1.8870 hc        1 4AG      0.039700
     48 H041        4.1380   -0.3060    0.9220 hc        1 4AG      0.039700
     49 H042        3.8200    1.3400    1.5890 hc        1 4AG      0.039700
     50 H051        3.7300    0.3810    3.9160 hc        1 4AG      0.039700
     51 H052        4.0490   -1.2660    3.2490 hc        1 4AG      0.039700
     52 H061        5.9100    1.1940    2.9510 hc        1 4AG      0.039700
     53 H062        6.2290   -0.4530    2.2840 hc        1 4AG      0.039700
     54 H071        6.1390   -1.4130    4.6120 hc        1 4AG      0.039700
     55 H072        5.8200    0.2340    5.2780 hc        1 4AG      0.039700
     56 H081        8.0010    1.0470    4.3120 hc        1 4AG      0.039700
     57 H082        8.3190   -0.6000    3.6460 hc        1 4AG      0.039700
     58 H091        7.9110    0.0880    6.6400 hc        1 4AG      0.039700
     59 H092        8.2290   -1.5590    5.9740 hc        1 4AG      0.039700
     60 H101       10.0910    0.9000    5.6730 hc        1 4AG      0.040700
     61 H102       10.4090   -0.7480    5.0080 hc        1 4AG      0.040700
     62 H111       10.3180   -1.7050    7.3360 hc        1 4AG      0.039700
     63 H112       10.0010   -0.0570    8.0010 hc        1 4AG      0.039700
     64 H121       12.1820    0.7520    7.0330 hc        1 4AG      0.042700
     65 H122       12.4990   -0.8970    6.3700 hc        1 4AG      0.042700
     66 H131       12.0930   -0.1980    9.3620 hc        1 4AG      0.041700
     67 H132       12.4040   -1.8500    8.7010 hc        1 4AG      0.041700
     68 H141       14.5950   -1.0610    7.7390 hc        1 4AG      0.057700
     69 H142       14.2770    0.6000    8.3750 hc        1 4AG      0.057700
     70 H151       14.4370   -1.9660   10.1190 hc        1 4AG      0.079700
     71 H152       14.2430   -0.2650   10.7210 hc        1 4AG      0.079700
     72 H181       18.5550   -1.0760   10.8930 h1        1 4AG      0.068200
     73 H182       18.4180    0.7030   10.4560 h1        1 4AG      0.068200
     74 H6         19.4740    0.6200   12.6450 h1        1 4AG      0.087700
     75 H201       17.2930    2.1460   12.3160 h1        1 4AG      0.056700
     76 H202       18.0090    1.9290   14.0000 h1        1 4AG      0.056700
     77 H8         15.9110    0.3120   13.0430 ho        1 4AG      0.416000
     78 H231       18.1510   -3.0010   14.6250 hc        1 4AG      0.081200
     79 H232       17.7560   -1.9500   16.0500 hc        1 4AG      0.081200
     80 H241       20.2300   -1.9580   16.6840 hc        1 4AG      0.057700
     81 H242       20.5500   -3.1030   15.3250 hc        1 4AG      0.057700
     82 H251       18.9080   -4.7430   16.3220 hc        1 4AG      0.041700
     83 H252       18.6100   -3.6040   17.6910 hc        1 4AG      0.041700
     84 H261       21.3500   -4.8360   16.9300 hc        1 4AG      0.042700
     85 H262       21.0540   -3.6920   18.2960 hc        1 4AG      0.042700
     86 H271       19.4220   -5.3240   19.3070 hc        1 4AG      0.040200
     87 H272       19.7190   -6.4670   17.9420 hc        1 4AG      0.040200
     88 H281       22.1620   -6.5580   18.5490 hc        1 4AG      0.040200
     89 H282       21.8640   -5.4150   19.9150 hc        1 4AG      0.040200
     90 H291       20.5310   -8.1900   19.5610 hc        1 4AG      0.039700
     91 H292       20.2320   -7.0460   20.9250 hc        1 4AG      0.039700
     92 H301       22.9730   -8.2790   20.1710 hc        1 4AG      0.039700
     93 H302       22.6740   -7.1350   21.5350 hc        1 4AG      0.039700
     94 H311       21.3430   -9.9110   21.1810 hc        1 4AG      0.039700
     95 H312       21.0420   -8.7670   22.5450 hc        1 4AG      0.039700
     96 H321       23.7840   -9.9990   21.7930 hc        1 4AG      0.039700
     97 H322       23.4840   -8.8550   23.1570 hc        1 4AG      0.039700
     98 H331       22.1530  -11.6320   22.8030 hc        1 4AG      0.039700
     99 H332       21.8520  -10.4870   24.1660 hc        1 4AG      0.039700
    100 H341       24.5950  -11.7190   23.4160 hc        1 4AG      0.039700
    101 H342       24.2930  -10.5750   24.7790 hc        1 4AG      0.039700
    102 H351       22.9640  -13.3510   24.4260 hc        1 4AG      0.039700
    103 H352       22.6620  -12.2070   25.7890 hc        1 4AG      0.039700
    104 H361       25.4040  -13.4370   25.0390 hc        1 4AG      0.038700
    105 H362       25.1020  -12.2930   26.4010 hc        1 4AG      0.038700
    106 H371       23.8020  -15.0870   26.0650 hc        1 4AG      0.032700
    107 H372       23.4990  -13.9390   27.4320 hc        1 4AG      0.032700
    108 H373       25.1470  -14.6560   27.2000 hc        1 4AG      0.032700
@<TRIPOS>BOND
     1    1    2 1   
     2    1   41 1   
     3    1   42 1   
     4    1   43 1   
     5    2    3 1   
     6    2   44 1   
     7    2   45 1   
     8    3    4 1   
     9    3   46 1   
    10    3   47 1   
    11    4    5 1   
    12    4   48 1   
    13    4   49 1   
    14    5    6 1   
    15    5   50 1   
    16    5   51 1   
    17    6    7 1   
    18    6   52 1   
    19    6   53 1   
    20    7    8 1   
    21    7   54 1   
    22    7   55 1   
    23    8    9 1   
    24    8   56 1   
    25    8   57 1   
    26    9   10 1   
    27    9   58 1   
    28    9   59 1   
    29   10   11 1   
    30   10   60 1   
    31   10   61 1   
    32   11   12 1   
    33   11   62 1   
    34   11   63 1   
    35   12   13 1   
    36   12   64 1   
    37   12   65 1   
    38   13   14 1   
    39   13   66 1   
    40   13   67 1   
    41   14   15 1   
    42   14   68 1   
    43   14   69 1   
    44   15   16 1   
    45   15   70 1   
    46   15   71 1   
    47   16   17 1   
    48   16   39 2   
    49   17   18 1   
    50   18   38 1   
    51   18   72 1   
    52   18   73 1   
    53   19   38 1   
    54   19   40 1   
    55   19   75 1   
    56   19   76 1   
    57   20   21 1   
    58   20   38 1   
    59   21   22 1   
    60   21   37 2   
    61   22   23 1   
    62   22   78 1   
    63   22   79 1   
    64   23   24 1   
    65   23   80 1   
    66   23   81 1   
    67   24   25 1   
    68   24   82 1   
    69   24   83 1   
    70   25   26 1   
    71   25   84 1   
    72   25   85 1   
    73   26   27 1   
    74   26   86 1   
    75   26   87 1   
    76   27   28 1   
    77   27   88 1   
    78   27   89 1   
    79   28   29 1   
    80   28   90 1   
    81   28   91 1   
    82   29   30 1   
    83   29   92 1   
    84   29   93 1   
    85   30   31 1   
    86   30   94 1   
    87   30   95 1   
    88   31   32 1   
    89   31   96 1   
    90   31   97 1   
    91   32   33 1   
    92   32   98 1   
    93   32   99 1   
    94   33   34 1   
    95   33  100 1   
    96   33  101 1   
    97   34   35 1   
    98   34  102 1   
    99   34  103 1   
   100   35   36 1   
   101   35  104 1   
   102   35  105 1   
   103   36  106 1   
   104   36  107 1   
   105   36  108 1   
   106   38   74 1   
   107   40   77 1   
@<TRIPOS>SUBSTRUCTURE
     1 4AG         1 TEMP              0 ****  ****    0 ROOT
