@<TRIPOS>MOLECULE
4AG
  108   107     1     0     0
SMALL
bcc


@<TRIPOS>ATOM
      1 C01         9.1310   -2.9450  -12.7090 c3        1 4AG     -0.092100
      2 C02         7.6130   -2.8110  -12.7880 c3        1 4AG     -0.080400
      3 C03         7.1920   -1.4430  -12.2490 c3        1 4AG     -0.079400
      4 C04         5.6400   -1.3160  -12.3040 c3        1 4AG     -0.079400
      5 C05         5.2110    0.0480  -11.7030 c3        1 4AG     -0.078400
      6 C06         3.6760    0.1590  -11.7160 c3        1 4AG     -0.079400
      7 C07         3.2450    1.4410  -10.9620 c3        1 4AG     -0.079400
      8 C08         1.6970    1.5410  -10.9450 c3        1 4AG     -0.079400
      9 C09         1.2690    2.7450  -10.0840 c3        1 4AG     -0.078400
     10 C10        -0.2470    2.6580   -9.7930 c3        1 4AG     -0.079400
     11 C11        -0.6400    3.7440   -8.7610 c3        1 4AG     -0.078400
     12 C12        -2.0720    3.4520   -8.2200 c3        1 4AG     -0.079400
     13 C13        -2.3960    4.4310   -7.0360 c3        1 4AG     -0.078400
     14 C14        -3.4620    3.7880   -6.1060 c3        1 4AG     -0.079400
     15 C15        -3.6470    4.6660   -4.8600 c3        1 4AG     -0.126400
     16 C16        -4.4340    3.8830   -3.7890 c         1 4AG      0.635100
     17 O17        -4.0500    3.9720   -2.4150 os        1 4AG     -0.443900
     18 C18        -5.0010    3.3790   -1.5010 c3        1 4AG      0.117400
     19 C20        -5.2420    4.8630    0.4710 c3        1 4AG      0.128400
     20 O21        -4.8850    2.5230    0.7490 os        1 4AG     -0.441900
     21 C22        -3.9360    2.2450    1.7590 c         1 4AG      0.637100
     22 C23        -4.2450    1.1940    2.8380 c3        1 4AG     -0.126400
     23 C24        -2.9600    0.9110    3.6680 c3        1 4AG     -0.079400
     24 C25        -3.2960   -0.0650    4.8240 c3        1 4AG     -0.078400
     25 C26        -2.0150   -0.3130    5.6860 c3        1 4AG     -0.079400
     26 C27        -2.3730   -1.1960    6.8990 c3        1 4AG     -0.079400
     27 C28        -1.1250   -1.3300    7.8350 c3        1 4AG     -0.079400
     28 C29        -1.4820   -2.2380    9.0430 c3        1 4AG     -0.078400
     29 C30        -0.2640   -2.3540    9.9820 c3        1 4AG     -0.079400
     30 C31        -0.6160   -3.2740   11.1660 c3        1 4AG     -0.079400
     31 C32         0.5790   -3.3800   12.1000 c3        1 4AG     -0.079400
     32 C33         0.2190   -4.2930   13.3020 c3        1 4AG     -0.078400
     33 C34         1.4420   -4.4290   14.2290 c3        1 4AG     -0.079400
     34 C35         1.0710   -5.3280   15.4520 c3        1 4AG     -0.079400
     35 C36         2.2850   -5.4460   16.3940 c3        1 4AG     -0.080400
     36 C37         1.9230   -6.3400   17.5820 c3        1 4AG     -0.092100
     37 O38        -2.8850    2.8580    1.7910 o         1 4AG     -0.536000
     38 C6         -4.5520    3.6380   -0.0580 c3        1 4AG      0.144100
     39 O39        -5.3590    3.1560   -4.1200 o         1 4AG     -0.537000
     40 O8         -4.2950    5.7030    1.0980 oh        1 4AG     -0.596800
     41 H011        9.3950   -3.8390  -13.0070 hc        1 4AG      0.032700
     42 H012        9.5500   -2.2690  -13.2890 hc        1 4AG      0.032700
     43 H013        9.4240   -2.8080  -11.7810 hc        1 4AG      0.032700
     44 H021        7.1980   -3.5120  -12.2550 hc        1 4AG      0.038700
     45 H022        7.3280   -2.8960  -13.7170 hc        1 4AG      0.038700
     46 H031        7.4930   -1.3510  -11.3250 hc        1 4AG      0.039700
     47 H032        7.5980   -0.7370  -12.7970 hc        1 4AG      0.039700
     48 H041        5.2350   -2.0420  -11.7880 hc        1 4AG      0.039700
     49 H042        5.3400   -1.3710  -13.2370 hc        1 4AG      0.039700
     50 H051        5.5350    0.1150  -10.7800 hc        1 4AG      0.039700
     51 H052        5.5960    0.7760  -12.2360 hc        1 4AG      0.039700
     52 H061        3.3620    0.2020  -12.6340 hc        1 4AG      0.039700
     53 H062        3.2900   -0.6230  -11.2770 hc        1 4AG      0.039700
     54 H071        3.5810    1.4060  -10.0390 hc        1 4AG      0.039700
     55 H072        3.6200    2.2310  -11.4180 hc        1 4AG      0.039700
     56 H081        1.3190    0.7170  -10.5650 hc        1 4AG      0.039700
     57 H082        1.3680    1.6590  -11.8570 hc        1 4AG      0.039700
     58 H091        1.4600    3.5690  -10.5630 hc        1 4AG      0.039700
     59 H092        1.7640    2.7350   -9.2420 hc        1 4AG      0.039700
     60 H101       -0.7490    2.8010  -10.6250 hc        1 4AG      0.040700
     61 H102       -0.4580    1.7750   -9.4330 hc        1 4AG      0.040700
     62 H111       -0.0020    3.7340   -8.0200 hc        1 4AG      0.039700
     63 H112       -0.6270    4.6260   -9.1930 hc        1 4AG      0.039700
     64 H121       -2.1180    2.5270   -7.9010 hc        1 4AG      0.043200
     65 H122       -2.7300    3.5830   -8.9440 hc        1 4AG      0.043200
     66 H131       -1.5820    4.6040   -6.5250 hc        1 4AG      0.041200
     67 H132       -2.7430    5.2780   -7.3970 hc        1 4AG      0.041200
     68 H141       -3.1670    2.9010   -5.8370 hc        1 4AG      0.059200
     69 H142       -4.3100    3.7180   -6.5840 hc        1 4AG      0.059200
     70 H151       -2.7700    4.9140   -4.5030 hc        1 4AG      0.078700
     71 H152       -4.1390    5.4730   -5.1010 hc        1 4AG      0.078700
     72 H181       -5.8860    3.7790   -1.6450 h1        1 4AG      0.065200
     73 H182       -5.0480    2.4170   -1.6600 h1        1 4AG      0.065200
     74 H6         -3.5910    3.7740   -0.0380 h1        1 4AG      0.107700
     75 H201       -5.6650    5.3440   -0.2680 h1        1 4AG      0.043700
     76 H202       -5.9210    4.6000    1.1180 h1        1 4AG      0.043700
     77 H8         -4.6860    6.4580    1.3400 ho        1 4AG      0.403000
     78 H231       -4.9440    1.5290    3.4250 hc        1 4AG      0.078700
     79 H232       -4.5440    0.3740    2.4140 hc        1 4AG      0.078700
     80 H241       -2.2740    0.5060    3.0850 hc        1 4AG      0.058700
     81 H242       -2.6200    1.7500    4.0390 hc        1 4AG      0.058700
     82 H251       -3.9910    0.3210    5.3820 hc        1 4AG      0.041200
     83 H252       -3.6080   -0.9120    4.4530 hc        1 4AG      0.041200
     84 H261       -1.6620    0.5440    6.0000 hc        1 4AG      0.043200
     85 H262       -1.3370   -0.7650    5.1410 hc        1 4AG      0.043200
     86 H271       -3.1110   -0.7850    7.3960 hc        1 4AG      0.039700
     87 H272       -2.6410   -2.0750    6.5900 hc        1 4AG      0.039700
     88 H281       -0.3780   -1.7300    7.3320 hc        1 4AG      0.040700
     89 H282       -0.8630   -0.4420    8.1590 hc        1 4AG      0.040700
     90 H291       -2.2340   -1.8490    9.5320 hc        1 4AG      0.039700
     91 H292       -1.7300   -3.1310    8.7180 hc        1 4AG      0.039700
     92 H301        0.4900   -2.7300    9.4910 hc        1 4AG      0.039700
     93 H302       -0.0240   -1.4640   10.3190 hc        1 4AG      0.039700
     94 H311       -1.3810   -2.9010   11.6550 hc        1 4AG      0.039700
     95 H312       -0.8460   -4.1630   10.8300 hc        1 4AG      0.039700
     96 H321        1.3370   -3.7610   11.6170 hc        1 4AG      0.039700
     97 H322        0.8160   -2.4910   12.4260 hc        1 4AG      0.039700
     98 H331       -0.5240   -3.8990   13.7990 hc        1 4AG      0.039700
     99 H332       -0.0440   -5.1830   12.9710 hc        1 4AG      0.039700
    100 H341        2.1810   -4.8380   13.7360 hc        1 4AG      0.039700
    101 H342        1.7100   -3.5460   14.5430 hc        1 4AG      0.039700
    102 H351        0.3140   -4.9230   15.9410 hc        1 4AG      0.039700
    103 H352        0.8160   -6.2200   15.1360 hc        1 4AG      0.039700
    104 H361        2.5340   -4.5600   16.7170 hc        1 4AG      0.038700
    105 H362        3.0350   -5.8370   15.9110 hc        1 4AG      0.038700
    106 H371        2.6990   -6.4130   18.1880 hc        1 4AG      0.032700
    107 H372        1.1650   -5.9490   18.0670 hc        1 4AG      0.032700
    108 H373        1.6780   -7.2280   17.2580 hc        1 4AG      0.032700
@<TRIPOS>BOND
     1    1    2 1   
     2    1   41 1   
     3    1   42 1   
     4    1   43 1   
     5    2    3 1   
     6    2   44 1   
     7    2   45 1   
     8    3    4 1   
     9    3   46 1   
    10    3   47 1   
    11    4    5 1   
    12    4   48 1   
    13    4   49 1   
    14    5    6 1   
    15    5   50 1   
    16    5   51 1   
    17    6    7 1   
    18    6   52 1   
    19    6   53 1   
    20    7    8 1   
    21    7   54 1   
    22    7   55 1   
    23    8    9 1   
    24    8   56 1   
    25    8   57 1   
    26    9   10 1   
    27    9   58 1   
    28    9   59 1   
    29   10   11 1   
    30   10   60 1   
    31   10   61 1   
    32   11   12 1   
    33   11   62 1   
    34   11   63 1   
    35   12   13 1   
    36   12   64 1   
    37   12   65 1   
    38   13   14 1   
    39   13   66 1   
    40   13   67 1   
    41   14   15 1   
    42   14   68 1   
    43   14   69 1   
    44   15   16 1   
    45   15   70 1   
    46   15   71 1   
    47   16   17 1   
    48   16   39 2   
    49   17   18 1   
    50   18   38 1   
    51   18   72 1   
    52   18   73 1   
    53   19   38 1   
    54   19   40 1   
    55   19   75 1   
    56   19   76 1   
    57   20   21 1   
    58   20   38 1   
    59   21   22 1   
    60   21   37 2   
    61   22   23 1   
    62   22   78 1   
    63   22   79 1   
    64   23   24 1   
    65   23   80 1   
    66   23   81 1   
    67   24   25 1   
    68   24   82 1   
    69   24   83 1   
    70   25   26 1   
    71   25   84 1   
    72   25   85 1   
    73   26   27 1   
    74   26   86 1   
    75   26   87 1   
    76   27   28 1   
    77   27   88 1   
    78   27   89 1   
    79   28   29 1   
    80   28   90 1   
    81   28   91 1   
    82   29   30 1   
    83   29   92 1   
    84   29   93 1   
    85   30   31 1   
    86   30   94 1   
    87   30   95 1   
    88   31   32 1   
    89   31   96 1   
    90   31   97 1   
    91   32   33 1   
    92   32   98 1   
    93   32   99 1   
    94   33   34 1   
    95   33  100 1   
    96   33  101 1   
    97   34   35 1   
    98   34  102 1   
    99   34  103 1   
   100   35   36 1   
   101   35  104 1   
   102   35  105 1   
   103   36  106 1   
   104   36  107 1   
   105   36  108 1   
   106   38   74 1   
   107   40   77 1   
@<TRIPOS>SUBSTRUCTURE
     1 4AG         1 TEMP              0 ****  ****    0 ROOT
