@<TRIPOS>MOLECULE
4AG
  108   107     1     0     0
SMALL
bcc


@<TRIPOS>ATOM
      1 C01       -19.3620    4.9460   -0.7140 c3        1 4AG     -0.092100
      2 C02       -18.5000    3.8700   -0.1050 c3        1 4AG     -0.080400
      3 C03       -17.0560    4.0010   -0.5420 c3        1 4AG     -0.079400
      4 C04       -16.1940    2.9190    0.0710 c3        1 4AG     -0.079400
      5 C05       -14.7510    3.0510   -0.3660 c3        1 4AG     -0.079400
      6 C06       -13.8890    1.9680    0.2470 c3        1 4AG     -0.079400
      7 C07       -12.4470    2.1000   -0.1910 c3        1 4AG     -0.079400
      8 C08       -11.5850    1.0180    0.4230 c3        1 4AG     -0.079400
      9 C09       -10.1420    1.1490   -0.0150 c3        1 4AG     -0.079400
     10 C10        -9.2810    0.0670    0.5990 c3        1 4AG     -0.079400
     11 C11        -7.8380    0.1990    0.1600 c3        1 4AG     -0.079400
     12 C12        -6.9770   -0.8840    0.7750 c3        1 4AG     -0.079400
     13 C13        -5.5350   -0.7530    0.3350 c3        1 4AG     -0.079400
     14 C14        -4.6770   -1.8350    0.9550 c3        1 4AG     -0.079400
     15 C15        -3.2390   -1.7080    0.4950 c3        1 4AG     -0.127400
     16 C16        -2.3610   -2.6870    1.2080 c         1 4AG      0.637100
     17 O17        -1.4410   -3.2690    0.3740 os        1 4AG     -0.455900
     18 C18        -0.5160   -4.1880    0.9710 c3        1 4AG      0.136400
     19 C20        -0.0370   -4.8320   -1.4570 c3        1 4AG      0.122400
     20 O21         1.4010   -3.3740   -0.1550 os        1 4AG     -0.435900
     21 C22         2.6920   -3.5700   -0.5740 c         1 4AG      0.642100
     22 C23         3.4460   -2.2840   -0.7040 c3        1 4AG     -0.126400
     23 C24         4.9000   -2.4650   -0.3250 c3        1 4AG     -0.079400
     24 C25         5.6850   -1.1990   -0.5930 c3        1 4AG     -0.078400
     25 C26         7.1370   -1.3650   -0.1990 c3        1 4AG     -0.079400
     26 C27         7.9270   -0.1030   -0.4700 c3        1 4AG     -0.079400
     27 C28         9.3790   -0.2690   -0.0760 c3        1 4AG     -0.079400
     28 C29        10.1690    0.9930   -0.3470 c3        1 4AG     -0.079400
     29 C30        11.6210    0.8270    0.0470 c3        1 4AG     -0.079400
     30 C31        12.4120    2.0900   -0.2240 c3        1 4AG     -0.079400
     31 C32        13.8640    1.9230    0.1700 c3        1 4AG     -0.079400
     32 C33        14.6550    3.1860   -0.1010 c3        1 4AG     -0.079400
     33 C34        16.1070    3.0200    0.2930 c3        1 4AG     -0.079400
     34 C35        16.8970    4.2820    0.0220 c3        1 4AG     -0.079400
     35 C36        18.3500    4.1170    0.4160 c3        1 4AG     -0.080400
     36 C37        19.1410    5.3710    0.1480 c3        1 4AG     -0.092100
     37 O38         3.0690   -4.7220   -0.7920 o         1 4AG     -0.543000
     38 C6          0.5450   -4.5250   -0.0750 c3        1 4AG      0.102100
     39 O39        -2.3530   -3.0140    2.3950 o         1 4AG     -0.536000
     40 O8         -0.2500   -3.6750   -2.2340 oh        1 4AG     -0.595800
     41 H011      -19.0030    5.9580   -0.4080 hc        1 4AG      0.032700
     42 H012      -19.3360    4.8880   -1.8290 hc        1 4AG      0.032700
     43 H013      -20.4210    4.8300   -0.3790 hc        1 4AG      0.032700
     44 H021      -18.5580    3.9290    1.0140 hc        1 4AG      0.038700
     45 H022      -18.8900    2.8610   -0.4030 hc        1 4AG      0.038700
     46 H031      -16.9960    3.9410   -1.6610 hc        1 4AG      0.039700
     47 H032      -16.6640    5.0090   -0.2440 hc        1 4AG      0.039700
     48 H041      -16.2550    2.9790    1.1900 hc        1 4AG      0.039700
     49 H042      -16.5870    1.9110   -0.2270 hc        1 4AG      0.039700
     50 H051      -14.6910    2.9900   -1.4850 hc        1 4AG      0.039700
     51 H052      -14.3580    4.0580   -0.0680 hc        1 4AG      0.039700
     52 H061      -13.9500    2.0290    1.3660 hc        1 4AG      0.039700
     53 H062      -14.2820    0.9600   -0.0510 hc        1 4AG      0.039700
     54 H071      -12.3860    2.0400   -1.3090 hc        1 4AG      0.039700
     55 H072      -12.0540    3.1080    0.1070 hc        1 4AG      0.039700
     56 H081      -11.6450    1.0780    1.5420 hc        1 4AG      0.039700
     57 H082      -11.9780    0.0100    0.1250 hc        1 4AG      0.039700
     58 H091      -10.0820    1.0890   -1.1340 hc        1 4AG      0.039700
     59 H092       -9.7490    2.1570    0.2830 hc        1 4AG      0.039700
     60 H101       -9.3410    0.1270    1.7180 hc        1 4AG      0.040700
     61 H102       -9.6740   -0.9410    0.3010 hc        1 4AG      0.040700
     62 H111       -7.7780    0.1380   -0.9580 hc        1 4AG      0.039700
     63 H112       -7.4450    1.2060    0.4580 hc        1 4AG      0.039700
     64 H121       -7.0360   -0.8230    1.8930 hc        1 4AG      0.042700
     65 H122       -7.3710   -1.8920    0.4770 hc        1 4AG      0.042700
     66 H131       -5.4750   -0.8180   -0.7840 hc        1 4AG      0.041700
     67 H132       -5.1420    0.2560    0.6300 hc        1 4AG      0.041700
     68 H141       -4.7180   -1.7640    2.0740 hc        1 4AG      0.057700
     69 H142       -5.0750   -2.8440    0.6700 hc        1 4AG      0.057700
     70 H151       -3.1630   -1.8670   -0.6130 hc        1 4AG      0.079700
     71 H152       -2.8460   -0.6800    0.7230 hc        1 4AG      0.079700
     72 H181       -0.0530   -3.7160    1.8770 h1        1 4AG      0.068200
     73 H182       -1.0750   -5.1140    1.2640 h1        1 4AG      0.068200
     74 H6          1.1350   -5.4120    0.2930 h1        1 4AG      0.087700
     75 H201        0.6940   -5.4430   -2.0520 h1        1 4AG      0.056700
     76 H202       -1.0000   -5.3940   -1.3300 h1        1 4AG      0.056700
     77 H8         -0.7070   -3.0300   -1.6780 ho        1 4AG      0.416000
     78 H231        3.3570   -1.9560   -1.7750 hc        1 4AG      0.081200
     79 H232        2.9650   -1.4980   -0.0640 hc        1 4AG      0.081200
     80 H241        4.9760   -2.7350    0.7610 hc        1 4AG      0.057200
     81 H242        5.3360   -3.3190   -0.9090 hc        1 4AG      0.057200
     82 H251        5.6190   -0.9370   -1.6820 hc        1 4AG      0.041700
     83 H252        5.2350   -0.3460   -0.0190 hc        1 4AG      0.041700
     84 H261        7.2040   -1.6250    0.8900 hc        1 4AG      0.042700
     85 H262        7.5860   -2.2200   -0.7700 hc        1 4AG      0.042700
     86 H271        7.8610    0.1560   -1.5600 hc        1 4AG      0.040200
     87 H272        7.4780    0.7520    0.1000 hc        1 4AG      0.040200
     88 H281        9.4450   -0.5270    1.0140 hc        1 4AG      0.040200
     89 H282        9.8280   -1.1240   -0.6460 hc        1 4AG      0.040200
     90 H291       10.1030    1.2520   -1.4370 hc        1 4AG      0.039700
     91 H292        9.7200    1.8490    0.2230 hc        1 4AG      0.039700
     92 H301       11.6880    0.5690    1.1370 hc        1 4AG      0.039700
     93 H302       12.0710   -0.0280   -0.5240 hc        1 4AG      0.039700
     94 H311       12.3450    2.3480   -1.3130 hc        1 4AG      0.039700
     95 H312       11.9630    2.9450    0.3470 hc        1 4AG      0.039700
     96 H321       13.9310    1.6650    1.2600 hc        1 4AG      0.039700
     97 H322       14.3130    1.0690   -0.4010 hc        1 4AG      0.039700
     98 H331       14.5880    3.4450   -1.1900 hc        1 4AG      0.039700
     99 H332       14.2050    4.0410    0.4700 hc        1 4AG      0.039700
    100 H341       16.1730    2.7600    1.3830 hc        1 4AG      0.039700
    101 H342       16.5560    2.1650   -0.2780 hc        1 4AG      0.039700
    102 H351       16.8310    4.5410   -1.0670 hc        1 4AG      0.039700
    103 H352       16.4480    5.1370    0.5940 hc        1 4AG      0.039700
    104 H361       18.4140    3.8560    1.5060 hc        1 4AG      0.038700
    105 H362       18.7970    3.2600   -0.1550 hc        1 4AG      0.038700
    106 H371       19.1090    5.6340   -0.9370 hc        1 4AG      0.032700
    107 H372       18.7260    6.2310    0.7280 hc        1 4AG      0.032700
    108 H373       20.2080    5.2280    0.4450 hc        1 4AG      0.032700
@<TRIPOS>BOND
     1    1    2 1   
     2    1   41 1   
     3    1   42 1   
     4    1   43 1   
     5    2    3 1   
     6    2   44 1   
     7    2   45 1   
     8    3    4 1   
     9    3   46 1   
    10    3   47 1   
    11    4    5 1   
    12    4   48 1   
    13    4   49 1   
    14    5    6 1   
    15    5   50 1   
    16    5   51 1   
    17    6    7 1   
    18    6   52 1   
    19    6   53 1   
    20    7    8 1   
    21    7   54 1   
    22    7   55 1   
    23    8    9 1   
    24    8   56 1   
    25    8   57 1   
    26    9   10 1   
    27    9   58 1   
    28    9   59 1   
    29   10   11 1   
    30   10   60 1   
    31   10   61 1   
    32   11   12 1   
    33   11   62 1   
    34   11   63 1   
    35   12   13 1   
    36   12   64 1   
    37   12   65 1   
    38   13   14 1   
    39   13   66 1   
    40   13   67 1   
    41   14   15 1   
    42   14   68 1   
    43   14   69 1   
    44   15   16 1   
    45   15   70 1   
    46   15   71 1   
    47   16   17 1   
    48   16   39 2   
    49   17   18 1   
    50   18   38 1   
    51   18   72 1   
    52   18   73 1   
    53   19   38 1   
    54   19   40 1   
    55   19   75 1   
    56   19   76 1   
    57   20   21 1   
    58   20   38 1   
    59   21   22 1   
    60   21   37 2   
    61   22   23 1   
    62   22   78 1   
    63   22   79 1   
    64   23   24 1   
    65   23   80 1   
    66   23   81 1   
    67   24   25 1   
    68   24   82 1   
    69   24   83 1   
    70   25   26 1   
    71   25   84 1   
    72   25   85 1   
    73   26   27 1   
    74   26   86 1   
    75   26   87 1   
    76   27   28 1   
    77   27   88 1   
    78   27   89 1   
    79   28   29 1   
    80   28   90 1   
    81   28   91 1   
    82   29   30 1   
    83   29   92 1   
    84   29   93 1   
    85   30   31 1   
    86   30   94 1   
    87   30   95 1   
    88   31   32 1   
    89   31   96 1   
    90   31   97 1   
    91   32   33 1   
    92   32   98 1   
    93   32   99 1   
    94   33   34 1   
    95   33  100 1   
    96   33  101 1   
    97   34   35 1   
    98   34  102 1   
    99   34  103 1   
   100   35   36 1   
   101   35  104 1   
   102   35  105 1   
   103   36  106 1   
   104   36  107 1   
   105   36  108 1   
   106   38   74 1   
   107   40   77 1   
@<TRIPOS>SUBSTRUCTURE
     1 4AG         1 TEMP              0 ****  ****    0 ROOT
