@<TRIPOS>MOLECULE
4AG
  108   107     1     0     0
SMALL
bcc


@<TRIPOS>ATOM
      1 C01         0.0640    0.1340    0.3450 c3        1 4AG     -0.092100
      2 C02         1.5490    0.3870    0.3830 c3        1 4AG     -0.080400
      3 C03         2.1470   -0.0170    1.7140 c3        1 4AG     -0.079400
      4 C04         3.6380    0.2390    1.7480 c3        1 4AG     -0.079400
      5 C05         4.2350   -0.1650    3.0790 c3        1 4AG     -0.079400
      6 C06         5.7260    0.0910    3.1130 c3        1 4AG     -0.079400
      7 C07         6.3230   -0.3130    4.4440 c3        1 4AG     -0.079400
      8 C08         7.8150   -0.0570    4.4780 c3        1 4AG     -0.079400
      9 C09         8.4110   -0.4610    5.8090 c3        1 4AG     -0.079400
     10 C10         9.9030   -0.2050    5.8430 c3        1 4AG     -0.079400
     11 C11        10.4990   -0.6090    7.1740 c3        1 4AG     -0.079400
     12 C12        11.9910   -0.3520    7.2070 c3        1 4AG     -0.079400
     13 C13        12.5860   -0.7550    8.5390 c3        1 4AG     -0.079400
     14 C14        14.0780   -0.5010    8.5660 c3        1 4AG     -0.079400
     15 C15        14.6640   -0.8890    9.9080 c3        1 4AG     -0.127400
     16 C16        16.1550   -0.7680    9.8960 c         1 4AG      0.637100
     17 O17        16.6460   -0.2240   11.0550 os        1 4AG     -0.455900
     18 C18        18.0710   -0.1120   11.1640 c3        1 4AG      0.136400
     19 C20        17.5070    1.4190   13.1330 c3        1 4AG      0.122400
     20 O21        18.2090   -0.8880   13.3960 os        1 4AG     -0.435900
     21 C22        18.9160   -0.9830   14.5680 c         1 4AG      0.642100
     22 C23        18.5600   -2.2120   15.3450 c3        1 4AG     -0.126400
     23 C24        19.7680   -2.7670   16.0710 c3        1 4AG     -0.079400
     24 C25        19.3720   -3.9220   16.9640 c3        1 4AG     -0.078400
     25 C26        20.5770   -4.4940   17.6800 c3        1 4AG     -0.079400
     26 C27        20.1850   -5.6470   18.5780 c3        1 4AG     -0.079400
     27 C28        21.3900   -6.2190   19.2930 c3        1 4AG     -0.079400
     28 C29        20.9990   -7.3720   20.1930 c3        1 4AG     -0.079400
     29 C30        22.2040   -7.9440   20.9080 c3        1 4AG     -0.079400
     30 C31        21.8130   -9.0970   21.8080 c3        1 4AG     -0.079400
     31 C32        23.0180   -9.6690   22.5230 c3        1 4AG     -0.079400
     32 C33        22.6270  -10.8220   23.4230 c3        1 4AG     -0.079400
     33 C34        23.8320  -11.3940   24.1380 c3        1 4AG     -0.079400
     34 C35        23.4410  -12.5460   25.0380 c3        1 4AG     -0.079400
     35 C36        24.6450  -13.1190   25.7550 c3        1 4AG     -0.080400
     36 C37        24.2610  -14.2670   26.6520 c3        1 4AG     -0.092100
     37 O38        19.7200   -0.0910   14.8430 o         1 4AG     -0.543000
     38 C6         18.3960    0.2930   12.6010 c3        1 4AG      0.102100
     39 O39        16.9610   -1.0910    9.0230 o         1 4AG     -0.536000
     40 O8         16.2930    0.9520   13.6770 oh        1 4AG     -0.595800
     41 H011       -0.3560    0.4380   -0.6440 hc        1 4AG      0.032700
     42 H012       -0.4570    0.7160    1.1430 hc        1 4AG      0.032700
     43 H013       -0.1560   -0.9500    0.5020 hc        1 4AG      0.032700
     44 H021        2.0500   -0.1860   -0.4410 hc        1 4AG      0.038700
     45 H022        1.7500    1.4750    0.1980 hc        1 4AG      0.038700
     46 H031        1.9470   -1.1050    1.9000 hc        1 4AG      0.039700
     47 H032        1.6480    0.5560    2.5390 hc        1 4AG      0.039700
     48 H041        4.1370   -0.3340    0.9230 hc        1 4AG      0.039700
     49 H042        3.8370    1.3270    1.5620 hc        1 4AG      0.039700
     50 H051        3.7360    0.4080    3.9050 hc        1 4AG      0.039700
     51 H052        4.0360   -1.2530    3.2660 hc        1 4AG      0.039700
     52 H061        6.2250   -0.4830    2.2880 hc        1 4AG      0.039700
     53 H062        5.9260    1.1790    2.9270 hc        1 4AG      0.039700
     54 H071        6.1240   -1.4010    4.6310 hc        1 4AG      0.039700
     55 H072        5.8240    0.2600    5.2700 hc        1 4AG      0.039700
     56 H081        8.3130   -0.6310    3.6530 hc        1 4AG      0.039700
     57 H082        8.0140    1.0310    4.2910 hc        1 4AG      0.039700
     58 H091        8.2120   -1.5500    5.9960 hc        1 4AG      0.039700
     59 H092        7.9120    0.1120    6.6350 hc        1 4AG      0.039700
     60 H101       10.1020    0.8830    5.6560 hc        1 4AG      0.040700
     61 H102       10.4020   -0.7790    5.0180 hc        1 4AG      0.040700
     62 H111       10.0000   -0.0350    8.0000 hc        1 4AG      0.039700
     63 H112       10.3000   -1.6970    7.3610 hc        1 4AG      0.039700
     64 H121       12.1900    0.7360    7.0200 hc        1 4AG      0.042700
     65 H122       12.4900   -0.9260    6.3830 hc        1 4AG      0.042700
     66 H131       12.0900   -0.1780    9.3640 hc        1 4AG      0.041700
     67 H132       12.3850   -1.8430    8.7270 hc        1 4AG      0.041700
     68 H141       14.5830   -1.0890    7.7540 hc        1 4AG      0.057700
     69 H142       14.2810    0.5840    8.3670 hc        1 4AG      0.057700
     70 H151       14.4170   -1.9590   10.1460 hc        1 4AG      0.079700
     71 H152       14.2380   -0.2480   10.7250 hc        1 4AG      0.079700
     72 H181       18.5440   -1.0950   10.9060 h1        1 4AG      0.068200
     73 H182       18.4200    0.6810   10.4530 h1        1 4AG      0.068200
     74 H6         19.4770    0.6110   12.6420 h1        1 4AG      0.087700
     75 H201       18.0200    1.9390   13.9880 h1        1 4AG      0.056700
     76 H202       17.3040    2.1470   12.3030 h1        1 4AG      0.056700
     77 H8         15.9120    0.3280   13.0460 ho        1 4AG      0.416000
     78 H231       18.1250   -2.9820   14.6550 hc        1 4AG      0.081200
     79 H232       17.7610   -1.9190   16.0790 hc        1 4AG      0.081200
     80 H241       20.2430   -1.9530   16.6810 hc        1 4AG      0.057200
     81 H242       20.5320   -3.1090   15.3240 hc        1 4AG      0.057200
     82 H251       18.6170   -3.5750   17.7180 hc        1 4AG      0.041700
     83 H252       18.8830   -4.7240   16.3510 hc        1 4AG      0.041700
     84 H261       21.3310   -4.8440   16.9260 hc        1 4AG      0.042700
     85 H262       21.0680   -3.6910   18.2900 hc        1 4AG      0.042700
     86 H271       19.6940   -6.4500   17.9680 hc        1 4AG      0.040200
     87 H272       19.4320   -5.2970   19.3320 hc        1 4AG      0.040200
     88 H281       22.1440   -6.5690   18.5390 hc        1 4AG      0.040200
     89 H282       21.8820   -5.4160   19.9040 hc        1 4AG      0.040200
     90 H291       20.5080   -8.1750   19.5830 hc        1 4AG      0.039700
     91 H292       20.2450   -7.0220   20.9470 hc        1 4AG      0.039700
     92 H301       22.6960   -7.1410   21.5180 hc        1 4AG      0.039700
     93 H302       22.9580   -8.2940   20.1540 hc        1 4AG      0.039700
     94 H311       21.3220   -9.9000   21.1980 hc        1 4AG      0.039700
     95 H312       21.0590   -8.7470   22.5610 hc        1 4AG      0.039700
     96 H321       23.5090   -8.8660   23.1330 hc        1 4AG      0.039700
     97 H322       23.7720  -10.0190   21.7690 hc        1 4AG      0.039700
     98 H331       22.1360  -11.6250   22.8130 hc        1 4AG      0.039700
     99 H332       21.8730  -10.4720   24.1760 hc        1 4AG      0.039700
    100 H341       24.3230  -10.5900   24.7480 hc        1 4AG      0.039700
    101 H342       24.5860  -11.7430   23.3850 hc        1 4AG      0.039700
    102 H351       22.6870  -12.1970   25.7920 hc        1 4AG      0.039700
    103 H352       22.9500  -13.3500   24.4280 hc        1 4AG      0.039700
    104 H361       25.1360  -12.3140   26.3630 hc        1 4AG      0.038700
    105 H362       25.3990  -13.4670   24.9990 hc        1 4AG      0.038700
    106 H371       23.7930  -15.0910   26.0600 hc        1 4AG      0.032700
    107 H372       25.1630  -14.6740   27.1700 hc        1 4AG      0.032700
    108 H373       23.5290  -13.9340   27.4270 hc        1 4AG      0.032700
@<TRIPOS>BOND
     1    1    2 1   
     2    1   41 1   
     3    1   42 1   
     4    1   43 1   
     5    2    3 1   
     6    2   44 1   
     7    2   45 1   
     8    3    4 1   
     9    3   46 1   
    10    3   47 1   
    11    4    5 1   
    12    4   48 1   
    13    4   49 1   
    14    5    6 1   
    15    5   50 1   
    16    5   51 1   
    17    6    7 1   
    18    6   52 1   
    19    6   53 1   
    20    7    8 1   
    21    7   54 1   
    22    7   55 1   
    23    8    9 1   
    24    8   56 1   
    25    8   57 1   
    26    9   10 1   
    27    9   58 1   
    28    9   59 1   
    29   10   11 1   
    30   10   60 1   
    31   10   61 1   
    32   11   12 1   
    33   11   62 1   
    34   11   63 1   
    35   12   13 1   
    36   12   64 1   
    37   12   65 1   
    38   13   14 1   
    39   13   66 1   
    40   13   67 1   
    41   14   15 1   
    42   14   68 1   
    43   14   69 1   
    44   15   16 1   
    45   15   70 1   
    46   15   71 1   
    47   16   17 1   
    48   16   39 2   
    49   17   18 1   
    50   18   38 1   
    51   18   72 1   
    52   18   73 1   
    53   19   38 1   
    54   19   40 1   
    55   19   75 1   
    56   19   76 1   
    57   20   21 1   
    58   20   38 1   
    59   21   22 1   
    60   21   37 2   
    61   22   23 1   
    62   22   78 1   
    63   22   79 1   
    64   23   24 1   
    65   23   80 1   
    66   23   81 1   
    67   24   25 1   
    68   24   82 1   
    69   24   83 1   
    70   25   26 1   
    71   25   84 1   
    72   25   85 1   
    73   26   27 1   
    74   26   86 1   
    75   26   87 1   
    76   27   28 1   
    77   27   88 1   
    78   27   89 1   
    79   28   29 1   
    80   28   90 1   
    81   28   91 1   
    82   29   30 1   
    83   29   92 1   
    84   29   93 1   
    85   30   31 1   
    86   30   94 1   
    87   30   95 1   
    88   31   32 1   
    89   31   96 1   
    90   31   97 1   
    91   32   33 1   
    92   32   98 1   
    93   32   99 1   
    94   33   34 1   
    95   33  100 1   
    96   33  101 1   
    97   34   35 1   
    98   34  102 1   
    99   34  103 1   
   100   35   36 1   
   101   35  104 1   
   102   35  105 1   
   103   36  106 1   
   104   36  107 1   
   105   36  108 1   
   106   38   74 1   
   107   40   77 1   
@<TRIPOS>SUBSTRUCTURE
     1 4AG         1 TEMP              0 ****  ****    0 ROOT
