@<TRIPOS>MOLECULE
4AL
   22    22     1     0     0
SMALL
bcc


@<TRIPOS>ATOM
      1 C           0.1710   -0.1850    0.0560 c3        1 4AL      0.162700
      2 N          -3.3810    0.3510    5.4600 nz        1 4AL     -0.845600
      3 O           0.4460    1.1430   -0.3590 oh        1 4AL     -0.601800
      4 C1         -0.3930   -0.1510    1.4400 ca        1 4AL     -0.022300
      5 C2         -0.3620    1.0190    2.2100 ca        1 4AL     -0.110500
      6 C3         -0.8830    1.0200    3.5010 ca        1 4AL     -0.095500
      7 C4         -1.4410   -0.1490    4.0330 ca        1 4AL     -0.210300
      8 C5         -1.4700   -1.3210    3.2670 ca        1 4AL     -0.095500
      9 C6         -0.9480   -1.3210    1.9760 ca        1 4AL     -0.110500
     10 C7         -1.9640   -0.1540    5.4230 c3        1 4AL      0.178100
     11 H          -0.5690   -0.6590   -0.6470 h1        1 4AL      0.055200
     12 HA          1.1180   -0.7950    0.0570 h1        1 4AL      0.055200
     13 HN         -3.4190    1.2970    5.0680 hn        1 4AL      0.457133
     14 HNA        -3.7300    0.3680    6.4220 hn        1 4AL      0.457133
     15 HO          0.8610    1.0800   -1.2290 ho        1 4AL      0.425000
     16 H2          0.0800    1.9370    1.7840 ha        1 4AL      0.171500
     17 H3         -0.8350    1.9390    4.1050 ha        1 4AL      0.139000
     18 H5         -1.8880   -2.2510    3.6840 ha        1 4AL      0.139000
     19 H6         -0.9670   -2.2450    1.3770 ha        1 4AL      0.171500
     20 H7         -1.9660   -1.1950    5.8580 hx        1 4AL      0.111700
     21 H7A        -1.3510    0.5220    6.0890 hx        1 4AL      0.111700
     22 HN3        -3.9810   -0.2560    4.8920 hn        1 4AL      0.457133
@<TRIPOS>BOND
     1    1    3 1   
     2    1    4 1   
     3    1   11 1   
     4    1   12 1   
     5    2   10 1   
     6    2   13 1   
     7    2   14 1   
     8    2   22 1   
     9    3   15 1   
    10    4    5 ar  
    11    4    9 ar  
    12    5    6 ar  
    13    5   16 1   
    14    6    7 ar  
    15    6   17 1   
    16    7    8 ar  
    17    7   10 1   
    18    8    9 ar  
    19    8   18 1   
    20    9   19 1   
    21   10   20 1   
    22   10   21 1   
@<TRIPOS>SUBSTRUCTURE
     1 4AL         1 TEMP              0 ****  ****    0 ROOT
