@<TRIPOS>MOLECULE
4AL
   22    22     1     0     0
SMALL
bcc


@<TRIPOS>ATOM
      1 C           0.1790   -0.1890    0.0600 c3        1 4AL      0.162700
      2 N          -3.3690    0.4280    5.4580 n4        1 4AL     -0.845600
      3 O           0.5610    1.1280   -0.3030 oh        1 4AL     -0.601800
      4 C1         -0.3940   -0.1610    1.4400 ca        1 4AL     -0.022300
      5 C2         -0.2780    0.9740    2.2550 ca        1 4AL     -0.110500
      6 C3         -0.8080    0.9670    3.5410 ca        1 4AL     -0.095500
      7 C4         -1.4630   -0.1730    4.0250 ca        1 4AL     -0.210300
      8 C5         -1.5770   -1.3090    3.2150 ca        1 4AL     -0.095500
      9 C6         -1.0440   -1.3020    1.9290 ca        1 4AL     -0.110500
     10 C7         -1.9980   -0.1870    5.4110 c3        1 4AL      0.178100
     11 H          -0.5900   -0.5760   -0.6650 h1        1 4AL      0.055200
     12 HA          1.0750   -0.8710    0.0430 h1        1 4AL      0.055200
     13 HN         -3.3270    1.3890    5.1020 hn        1 4AL      0.457133
     14 HNA        -3.7240    0.4380    6.4170 hn        1 4AL      0.457133
     15 HO          0.9770    1.0650   -1.1720 ho        1 4AL      0.425000
     16 H2          0.2400    1.8690    1.8660 ha        1 4AL      0.171500
     17 H3         -0.6930    1.8560    4.1810 ha        1 4AL      0.139000
     18 H5         -2.0710   -2.2170    3.5940 ha        1 4AL      0.139000
     19 H6         -1.1310   -2.1990    1.2940 ha        1 4AL      0.171500
     20 H7         -2.0870   -1.2410    5.8050 hx        1 4AL      0.111700
     21 H7A        -1.3380    0.4100    6.1060 hx        1 4AL      0.111700
     22 HN3        -4.0110   -0.1060    4.8640 hn        1 4AL      0.457133
@<TRIPOS>BOND
     1    1    3 1   
     2    1    4 1   
     3    1   11 1   
     4    1   12 1   
     5    2   10 1   
     6    2   13 1   
     7    2   14 1   
     8    2   22 1   
     9    3   15 1   
    10    4    5 ar  
    11    4    9 ar  
    12    5    6 ar  
    13    5   16 1   
    14    6    7 ar  
    15    6   17 1   
    16    7    8 ar  
    17    7   10 1   
    18    8    9 ar  
    19    8   18 1   
    20    9   19 1   
    21   10   20 1   
    22   10   21 1   
@<TRIPOS>SUBSTRUCTURE
     1 4AL         1 TEMP              0 ****  ****    0 ROOT
