@<TRIPOS>MOLECULE
4AL
   21    21     1     0     0
SMALL
bcc


@<TRIPOS>ATOM
      1 C          -2.8300   -0.1910   -0.4540 c3        1 4AL      0.176700
      2 N           3.6990   -0.2790   -0.5420 n3        1 4AL     -0.916800
      3 O          -3.4780    1.0180   -0.0830 oh        1 4AL     -0.598800
      4 C1         -1.3650   -0.0770   -0.1880 ca        1 4AL     -0.088300
      5 C2         -0.5380   -1.1510   -0.5390 ca        1 4AL     -0.119500
      6 C3          0.8320   -1.0880   -0.3030 ca        1 4AL     -0.119500
      7 C4          1.3940    0.0520    0.2830 ca        1 4AL     -0.094300
      8 C5          0.5680    1.1240    0.6300 ca        1 4AL     -0.119500
      9 C6         -0.8050    1.0600    0.3980 ca        1 4AL     -0.119500
     10 C7          2.8650    0.1150    0.5710 c3        1 4AL      0.203100
     11 H          -3.2570   -1.0460    0.1410 h1        1 4AL      0.031700
     12 HA         -3.0040   -0.3910   -1.5480 h1        1 4AL      0.031700
     13 HN          3.3780    0.1280   -1.3980 hn        1 4AL      0.351300
     14 HNA         4.6460   -0.0010   -0.3790 hn        1 4AL      0.351300
     15 HO         -4.4150    0.8880   -0.2690 ho        1 4AL      0.403000
     16 H2         -0.9740   -2.0500   -1.0010 ha        1 4AL      0.141000
     17 H3          1.4780   -1.9370   -0.5770 ha        1 4AL      0.139000
     18 H5          0.9990    2.0260    1.0910 ha        1 4AL      0.139000
     19 H6         -1.4550    1.9060    0.6730 ha        1 4AL      0.141000
     20 H7          3.0890   -0.5970    1.4190 h1        1 4AL      0.033700
     21 H7A         3.1140    1.1550    0.9440 h1        1 4AL      0.033700
@<TRIPOS>BOND
     1    1    3 1   
     2    1    4 1   
     3    1   11 1   
     4    1   12 1   
     5    2   10 1   
     6    2   13 1   
     7    2   14 1   
     8    3   15 1   
     9    4    5 ar  
    10    4    9 ar  
    11    5    6 ar  
    12    5   16 1   
    13    6    7 ar  
    14    6   17 1   
    15    7    8 ar  
    16    7   10 1   
    17    8    9 ar  
    18    8   18 1   
    19    9   19 1   
    20   10   20 1   
    21   10   21 1   
@<TRIPOS>SUBSTRUCTURE
     1 4AL         1 TEMP              0 ****  ****    0 ROOT
