@<TRIPOS>MOLECULE
4AL
   22    22     1     0     0
SMALL
bcc


@<TRIPOS>ATOM
      1 C           0.1830   -0.1870    0.0620 c3        1 4AL      0.162700
      2 N          -3.3940    0.3430    5.4500 n4        1 4AL     -0.845600
      3 O           0.4490    1.1420   -0.3580 oh        1 4AL     -0.601800
      4 C1         -0.3860   -0.1500    1.4440 ca        1 4AL     -0.022300
      5 C2         -0.3690    1.0240    2.2080 ca        1 4AL     -0.111000
      6 C3         -0.8940    1.0260    3.4970 ca        1 4AL     -0.095500
      7 C4         -1.4440   -0.1460    4.0330 ca        1 4AL     -0.210300
      8 C5         -1.4590   -1.3210    3.2720 ca        1 4AL     -0.095500
      9 C6         -0.9320   -1.3220    1.9840 ca        1 4AL     -0.111000
     10 C7         -1.9720   -0.1480    5.4210 c3        1 4AL      0.178100
     11 H          -0.5510   -0.6700   -0.6420 h1        1 4AL      0.055200
     12 HA          1.1350   -0.7890    0.0690 h1        1 4AL      0.055200
     13 HN         -3.4410    1.2870    5.0530 hn        1 4AL      0.457133
     14 HNA        -3.7470    0.3610    6.4100 hn        1 4AL      0.457133
     15 HO          0.8680    1.0780   -1.2260 ho        1 4AL      0.425000
     16 H2          0.0660    1.9440    1.7790 ha        1 4AL      0.171500
     17 H3         -0.8570    1.9490    4.0970 ha        1 4AL      0.139000
     18 H5         -1.8700   -2.2520    3.6930 ha        1 4AL      0.139000
     19 H6         -0.9410   -2.2500    1.3890 ha        1 4AL      0.171500
     20 H7         -1.3680    0.5370    6.0850 hx        1 4AL      0.111700
     21 H7A        -1.9650   -1.1870    5.8610 hx        1 4AL      0.111700
     22 HN3        -3.9850   -0.2730    4.8830 hn        1 4AL      0.457133
@<TRIPOS>BOND
     1    1    3 1   
     2    1    4 1   
     3    1   11 1   
     4    1   12 1   
     5    2   10 1   
     6    2   13 1   
     7    2   14 1   
     8    2   22 1   
     9    3   15 1   
    10    4    5 ar  
    11    4    9 ar  
    12    5    6 ar  
    13    5   16 1   
    14    6    7 ar  
    15    6   17 1   
    16    7    8 ar  
    17    7   10 1   
    18    8    9 ar  
    19    8   18 1   
    20    9   19 1   
    21   10   20 1   
    22   10   21 1   
@<TRIPOS>SUBSTRUCTURE
     1 4AL         1 TEMP              0 ****  ****    0 ROOT
