@<TRIPOS>MOLECULE
4AL
   21    19     1     0     0
SMALL
bcc


@<TRIPOS>ATOM
      1 C           1.0060    0.0400   -2.9120 c3        1 4AL      0.015000
      2 N          -0.2210   -0.7740    3.3640 n3        1 4AL     -0.349000
      3 O          -0.0300    0.4940   -3.7550 oh        1 4AL     -0.323000
      4 C1          0.5190    0.0200   -1.4800 c2        1 4AL     -0.123000
      5 C2         -0.3630   -0.9640   -1.0610 c2        1 4AL     -0.123000
      6 C3         -0.8460   -0.9540    0.2380 c1        1 4AL     -0.108000
      7 C4         -0.4480    0.0400    1.1180 c1        1 4AL     -0.084000
      8 C5          0.4330    1.0240    0.6990 c1        1 4AL     -0.126000
      9 C6          0.9170    1.0140   -0.6000 c1        1 4AL     -0.125000
     10 C7         -1.0040    0.0710    2.5250 c3        1 4AL     -0.041000
     11 H           1.2710   -0.8650   -3.1790 h1        1 4AL      0.093000
     12 HA          1.7760    0.6410   -2.9870 h1        1 4AL      0.093000
     13 HN          0.2080   -0.2650    3.9940 hn        1 4AL      0.148000
     14 HNA        -0.7660   -1.3800    3.7820 hn        1 4AL      0.148000
     15 HO          0.3150    0.9930   -4.4050 ho        1 4AL      0.201000
     16 H2         -0.6430   -1.6640   -1.6810 ha        1 4AL      0.145000
     17 H3         -1.4670   -1.6470    0.5320 ha        1 4AL      0.150000
     18 H5          0.7140    1.7240    1.3190 ha        1 4AL      0.131000
     19 H6          1.5380    1.7070   -0.8940 ha        1 4AL      0.131000
     20 H7         -1.9310   -0.2450    2.5170 h1        1 4AL      0.073500
     21 H7A        -0.9760    0.9890    2.8670 h1        1 4AL      0.073500
@<TRIPOS>BOND
     1    1    3 1   
     2    1    4 1   
     3    1   11 1   
     4    1   12 1   
     5    2   10 1   
     6    2   13 1   
     7    2   14 1   
     8    3   15 1   
     9    4    5 1   
    10    4    9 1   
    11    5    6 1   
    12    5   16 1   
    13    6   17 1   
    14    7    8 1   
    15    7   10 1   
    16    8   18 1   
    17    9   19 1   
    18   10   20 1   
    19   10   21 1   
@<TRIPOS>SUBSTRUCTURE
     1 4AL         1 TEMP              0 ****  ****    0 ROOT
