@<TRIPOS>MOLECULE
4AM
   37    37     1     0     0
SMALL
bcc


@<TRIPOS>ATOM
      1 C1         -2.7980    0.6070   -1.4150 c         1 4AM      0.929800
      2 O1A        -4.0450    0.4700   -1.4040 o         1 4AM     -0.808300
      3 O1B        -2.1320    1.3020   -2.2330 o         1 4AM     -0.808300
      4 C2         -1.9820   -0.0870   -0.3210 ce        1 4AM      0.037900
      5 C3         -2.2010   -0.0490    1.0050 c2        1 4AM     -0.326200
      6 C4         -1.1960   -0.6810    1.9180 c3        1 4AM      0.187700
      7 N4         -1.3260   -0.3820    3.3330 n3        1 4AM     -0.915800
      8 C5          0.2130   -0.2790    1.3620 c3        1 4AM      0.053700
      9 N5          1.3080   -0.8260    2.1390 n         1 4AM     -0.528900
     10 C10         1.7340   -0.2020    3.3030 c         1 4AM      0.657100
     11 O10         1.4380    0.9780    3.5780 o         1 4AM     -0.612100
     12 C11         2.6570   -0.9940    4.2020 c3        1 4AM     -0.177100
     13 C6          0.3320   -0.6970   -0.1230 c3        1 4AM      0.107100
     14 O6         -0.9040   -0.7900   -0.8330 os        1 4AM     -0.334900
     15 C7          1.2280    0.3020   -0.8860 c3        1 4AM      0.120100
     16 O7          0.6190    1.5620   -1.0300 oh        1 4AM     -0.621800
     17 C8          1.5920   -0.2910   -2.2610 c3        1 4AM      0.062100
     18 O8          2.5240   -1.3520   -2.1230 oh        1 4AM     -0.608800
     19 C9          2.1540    0.7830   -3.2000 c3        1 4AM      0.096400
     20 O9          3.3310    0.3270   -3.8430 oh        1 4AM     -0.619800
     21 H3         -3.0910    0.4340    1.4210 ha        1 4AM      0.147000
     22 H4         -1.2990   -1.8070    1.8260 h1        1 4AM      0.050700
     23 HN41       -0.9360    0.5210    3.5370 hn        1 4AM      0.350300
     24 HN42       -2.2970   -0.3700    3.5820 hn        1 4AM      0.350300
     25 H5          0.2920    0.8520    1.4090 h1        1 4AM      0.110700
     26 H5N         1.3680   -1.8200    2.1280 hn        1 4AM      0.288500
     27 H111        3.0280   -0.3260    5.0160 hc        1 4AM      0.058033
     28 H112        2.1010   -1.8480    4.6580 hc        1 4AM      0.058033
     29 H113        3.5300   -1.3890    3.6300 hc        1 4AM      0.058033
     30 H6          0.7750   -1.7300   -0.2290 h1        1 4AM      0.066700
     31 H7          2.1660    0.4940   -0.2930 h1        1 4AM      0.061700
     32 H7O        -0.2510    1.4350   -1.4620 ho        1 4AM      0.469000
     33 H8          0.6770   -0.7750   -2.7100 h1        1 4AM      0.110700
     34 H8O         3.3520   -0.9620   -1.8150 ho        1 4AM      0.398000
     35 H91         1.3820    1.0710   -3.9610 h1        1 4AM      0.065200
     36 H92         2.4700    1.6980   -2.6300 h1        1 4AM      0.065200
     37 HO9         3.1320   -0.5410   -4.2170 ho        1 4AM      0.403000
@<TRIPOS>BOND
     1    1    2 1   
     2    1    3 1   
     3    1    4 1   
     4    4    5 2   
     5    4   14 1   
     6    5    6 1   
     7    5   21 1   
     8    6    7 1   
     9    6    8 1   
    10    6   22 1   
    11    7   23 1   
    12    7   24 1   
    13    8    9 1   
    14    8   13 1   
    15    8   25 1   
    16    9   10 1   
    17    9   26 1   
    18   10   11 2   
    19   10   12 1   
    20   12   27 1   
    21   12   28 1   
    22   12   29 1   
    23   13   14 1   
    24   13   15 1   
    25   13   30 1   
    26   15   16 1   
    27   15   17 1   
    28   15   31 1   
    29   16   32 1   
    30   17   18 1   
    31   17   19 1   
    32   17   33 1   
    33   18   34 1   
    34   19   20 1   
    35   19   35 1   
    36   19   36 1   
    37   20   37 1   
@<TRIPOS>SUBSTRUCTURE
     1 4AM         1 TEMP              0 ****  ****    0 ROOT
