@<TRIPOS>MOLECULE
4AM
   37    35     1     0     0
SMALL
bcc


@<TRIPOS>ATOM
      1 C1          1.6160   -1.8910    2.7080 c1        1 4AM      0.385000
      2 O1A         2.8750   -1.8910    2.7080 o         1 4AM     -0.565000
      3 O1B         0.9870   -1.8910    3.7990 os        1 4AM     -0.518000
      4 C2          0.8600   -1.8950    1.3980 c2        1 4AM      0.007000
      5 C3          1.7140   -1.9900   -0.0840 c1        1 4AM     -0.358000
      6 C4          1.3850   -0.9490   -1.0510 c2        1 4AM      0.006000
      7 N4          2.3040    0.1730   -0.9300 n3        1 4AM     -0.337000
      8 C5         -0.1780   -0.4770   -0.9260 c3        1 4AM      0.012000
      9 N5         -1.0600   -1.6090   -1.4400 n         1 4AM     -0.367000
     10 C10        -1.6440   -1.5240   -2.7300 c2        1 4AM      0.302000
     11 O10        -1.4420   -0.5490   -3.4250 o         1 4AM     -0.394000
     12 C11        -2.5180   -2.6490   -3.2400 c3        1 4AM     -0.243000
     13 C6         -0.5640   -0.1760    0.2620 c3        1 4AM     -0.036000
     14 O6         -0.3830   -1.3020    1.3180 os        1 4AM     -0.210000
     15 C7          0.2600    1.0920    0.7450 c3        1 4AM      0.035000
     16 O7          1.2470    0.6940    1.6210 oh        1 4AM     -0.354000
     17 C8         -0.6550    2.0500    1.4290 c3        1 4AM     -0.044000
     18 O8         -1.8260    2.2190    0.6530 oh        1 4AM     -0.333000
     19 C9          0.0430    3.3890    1.5910 c3        1 4AM     -0.059000
     20 O9         -0.8130    4.2870    2.2630 oh        1 4AM     -0.349000
     21 H3          2.0640   -2.8480   -0.3910 ha        1 4AM      0.138000
     22 H4          1.5740   -1.2470   -1.9620 h4        1 4AM      0.092000
     23 HN41        2.3130    0.6450   -1.7110 hn        1 4AM      0.144000
     24 HN42        3.1430   -0.1390   -0.7540 hn        1 4AM      0.144000
     25 H5         -0.3110    0.3030   -1.4990 h1        1 4AM      0.138000
     26 H5N        -1.2330   -2.3290   -0.9070 hn        1 4AM      0.237000
     27 H111       -2.8470   -2.4260   -4.1310 hc        1 4AM      0.097667
     28 H112       -3.2750   -2.7720   -2.6350 hc        1 4AM      0.097667
     29 H113       -1.9970   -3.4730   -3.2820 hc        1 4AM      0.097667
     30 H6         -1.5100    0.0640    0.2280 h1        1 4AM      0.128000
     31 H7          0.6680    1.5280   -0.0270 h1        1 4AM      0.118000
     32 H7O         1.8550    1.3360    1.6940 ho        1 4AM      0.262000
     33 H8         -0.8950    1.6990    2.3080 h1        1 4AM      0.105000
     34 H8O        -2.4950    2.4760    1.1780 ho        1 4AM      0.205000
     35 H91         0.8610    3.2700    2.1110 h1        1 4AM      0.106500
     36 H92         0.2660    3.7490    0.7120 h1        1 4AM      0.106500
     37 HO9        -0.3890    5.0550    2.3990 ho        1 4AM      0.202000
@<TRIPOS>BOND
     1    1    2 1   
     2    1    4 1   
     3    4    5 1   
     4    4   14 1   
     5    5   21 1   
     6    6    7 1   
     7    6    8 1   
     8    6   22 1   
     9    7   23 1   
    10    7   24 1   
    11    8    9 1   
    12    8   13 1   
    13    8   25 1   
    14    9   10 1   
    15    9   26 1   
    16   10   11 1   
    17   10   12 1   
    18   12   27 1   
    19   12   28 1   
    20   12   29 1   
    21   13   14 1   
    22   13   15 1   
    23   13   30 1   
    24   15   16 1   
    25   15   17 1   
    26   15   31 1   
    27   16   32 1   
    28   17   18 1   
    29   17   19 1   
    30   17   33 1   
    31   18   34 1   
    32   19   20 1   
    33   19   35 1   
    34   19   36 1   
    35   20   37 1   
@<TRIPOS>SUBSTRUCTURE
     1 4AM         1 TEMP              0 ****  ****    0 ROOT
