@<TRIPOS>MOLECULE
4AM
   39    39     1     0     0
SMALL
bcc


@<TRIPOS>ATOM
      1 C1          0.5840    0.7540   -0.5130 c         1 4AM      0.969800
      2 O1A         0.7020    1.8360   -1.1580 o         1 4AM     -0.702800
      3 O1B         1.0310    0.3340    0.5450 o         1 4AM     -0.702800
      4 C2         -0.3730   -0.1280   -1.4250 ce        1 4AM      0.139900
      5 C3          0.0090   -0.5290   -2.6830 c2        1 4AM     -0.525200
      6 C4         -0.7240    0.0700   -3.8100 c3        1 4AM      0.236700
      7 N4         -0.1330    1.4800   -3.9340 n4        1 4AM     -0.891600
      8 C5         -2.2590    0.1740   -3.5370 c3        1 4AM      0.079500
      9 N5         -3.0640   -0.5280   -4.5910 n4        1 4AM     -0.687800
     10 C10        -3.0350    0.1480   -5.9430 c         1 4AM      0.571100
     11 O10        -2.2480    1.0770   -6.0670 o         1 4AM     -0.453100
     12 C11        -3.9820   -0.3990   -6.9540 c3        1 4AM     -0.193100
     13 C6         -2.5940   -0.4190   -2.1420 c3        1 4AM      0.074100
     14 O6         -1.6900    0.1040   -1.1640 os        1 4AM     -0.269900
     15 C7         -4.0140   -0.0390   -1.6740 c3        1 4AM      0.149100
     16 O7         -4.0180    0.6320   -0.4410 oh        1 4AM     -0.552800
     17 C8         -4.8910   -1.3040   -1.6110 c3        1 4AM      0.067100
     18 O8         -4.8910   -1.8670   -2.9220 oh        1 4AM     -0.689800
     19 C9         -6.3190   -0.9480   -1.1740 c3        1 4AM      0.101400
     20 O9         -7.1610   -2.0460   -1.4540 oh        1 4AM     -0.602800
     21 H3          0.9760   -1.0060   -2.8670 ha        1 4AM      0.194000
     22 H4         -0.5090   -0.4430   -4.7900 hx        1 4AM      0.087700
     23 HN41       -0.0250    1.8850   -2.9640 hn        1 4AM      0.469133
     24 HN42       -0.6950    2.0870   -4.5260 hn        1 4AM      0.469133
     25 H5         -2.6020    1.2550   -3.5430 hx        1 4AM      0.117700
     26 H5N        -2.7240   -1.4950   -4.6840 hn        1 4AM      0.487300
     27 H111       -5.0360   -0.1330   -6.6790 hc        1 4AM      0.123033
     28 H112       -3.8970   -1.5120   -7.0430 hc        1 4AM      0.123033
     29 H113       -3.7470    0.0630   -7.9510 hc        1 4AM      0.123033
     30 H6         -2.4610   -1.5400   -2.1720 h1        1 4AM      0.098700
     31 H7         -4.4820    0.7020   -2.3850 h1        1 4AM      0.066700
     32 H7O        -3.4550    0.1500    0.1850 ho        1 4AM      0.444000
     33 H8         -4.4450   -2.0580   -0.9040 h1        1 4AM      0.073700
     34 H8O        -5.6810   -2.4280   -2.9940 ho        1 4AM      0.465000
     35 H91        -6.3250   -0.6560   -0.0930 h1        1 4AM      0.079200
     36 H92        -6.7190   -0.1010   -1.7940 h1        1 4AM      0.079200
     37 HO9        -7.1860   -2.6130   -0.6730 ho        1 4AM      0.425000
     38 H43         0.8110    1.3990   -4.3190 hn        1 4AM      0.469133
     39 H52        -4.0480   -0.5900   -4.2600 hn        1 4AM      0.487300
@<TRIPOS>BOND
     1    1    2 1   
     2    1    3 1   
     3    1    4 1   
     4    4    5 2   
     5    4   14 1   
     6    5    6 1   
     7    5   21 1   
     8    6    7 1   
     9    6    8 1   
    10    6   22 1   
    11    7   23 1   
    12    7   24 1   
    13    7   38 1   
    14    8    9 1   
    15    8   13 1   
    16    8   25 1   
    17    9   10 1   
    18    9   26 1   
    19    9   39 1   
    20   10   11 2   
    21   10   12 1   
    22   12   27 1   
    23   12   28 1   
    24   12   29 1   
    25   13   14 1   
    26   13   15 1   
    27   13   30 1   
    28   15   16 1   
    29   15   17 1   
    30   15   31 1   
    31   16   32 1   
    32   17   18 1   
    33   17   19 1   
    34   17   33 1   
    35   18   34 1   
    36   19   20 1   
    37   19   35 1   
    38   19   36 1   
    39   20   37 1   
@<TRIPOS>SUBSTRUCTURE
     1 4AM         1 TEMP              0 ****  ****    0 ROOT
