@<TRIPOS>MOLECULE
4AM
   39    39     1     0     0
SMALL
bcc


@<TRIPOS>ATOM
      1 C1          0.4980    0.9760   -0.4890 c         1 4AM      0.969800
      2 O1A         0.6160    2.0160   -1.2000 o         1 4AM     -0.702800
      3 O1B         0.9220    0.6340    0.6050 o         1 4AM     -0.702800
      4 C2         -0.4180    0.0190   -1.3680 ce        1 4AM      0.139900
      5 C3          0.0060   -0.4550   -2.5860 c2        1 4AM     -0.525200
      6 C4         -0.7050    0.0550   -3.7680 c3        1 4AM      0.236700
      7 N4         -0.1350    1.4660   -3.9690 n4        1 4AM     -0.891600
      8 C5         -2.2490    0.1490   -3.5450 c3        1 4AM      0.079500
      9 N5         -3.0120   -0.6360   -4.5710 n4        1 4AM     -0.687800
     10 C10        -2.9560   -0.0490   -5.9630 c         1 4AM      0.571100
     11 O10        -2.1830    0.8850   -6.1270 o         1 4AM     -0.453100
     12 C11        -3.8640   -0.6780   -6.9620 c3        1 4AM     -0.193100
     13 C6         -2.6130   -0.3590   -2.1230 c3        1 4AM      0.074100
     14 O6         -1.7450    0.2430   -1.1580 os        1 4AM     -0.269900
     15 C7         -4.0520    0.0240   -1.7190 c3        1 4AM      0.149100
     16 O7         -4.1010    0.7740   -0.5340 oh        1 4AM     -0.552800
     17 C8         -4.9090   -1.2490   -1.5980 c3        1 4AM      0.067100
     18 O8         -4.8630   -1.8970   -2.8690 oh        1 4AM     -0.689800
     19 C9         -6.3540   -0.8920   -1.2240 c3        1 4AM      0.101400
     20 O9         -7.1700   -2.0210   -1.4540 oh        1 4AM     -0.602800
     21 H3          0.9860   -0.9250   -2.7120 ha        1 4AM      0.194000
     22 H4         -0.4540   -0.5150   -4.7070 hx        1 4AM      0.087700
     23 HN41        0.8210    1.3770   -4.3220 hn        1 4AM      0.469133
     24 HN42       -0.6900    2.0220   -4.6140 hn        1 4AM      0.469133
     25 H5         -2.6090    1.2200   -3.6310 hx        1 4AM      0.117700
     26 H5N        -2.6530   -1.6000   -4.5910 hn        1 4AM      0.487300
     27 H111       -3.7490   -1.7920   -6.9820 hc        1 4AM      0.123033
     28 H112       -4.9320   -0.4250   -6.7290 hc        1 4AM      0.123033
     29 H113       -3.6160   -0.2700   -7.9790 hc        1 4AM      0.123033
     30 H6         -2.4610   -1.4770   -2.0770 h1        1 4AM      0.098700
     31 H7         -4.5120    0.7090   -2.4900 h1        1 4AM      0.066700
     32 H7O        -3.5480    0.3450    0.1380 ho        1 4AM      0.444000
     33 H8         -4.4710   -1.9470   -0.8310 h1        1 4AM      0.073700
     34 H8O        -5.6410   -2.4750   -2.9240 ho        1 4AM      0.465000
     35 H91        -6.7510   -0.0950   -1.9080 h1        1 4AM      0.079200
     36 H92        -6.3950   -0.5320   -0.1650 h1        1 4AM      0.079200
     37 HO9        -7.2070   -2.5370   -0.6380 ho        1 4AM      0.425000
     38 H43        -0.0610    1.9340   -3.0240 hn        1 4AM      0.469133
     39 H52        -4.0040   -0.6940   -4.2630 hn        1 4AM      0.487300
@<TRIPOS>BOND
     1    1    2 1   
     2    1    3 1   
     3    1    4 1   
     4    4    5 2   
     5    4   14 1   
     6    5    6 1   
     7    5   21 1   
     8    6    7 1   
     9    6    8 1   
    10    6   22 1   
    11    7   23 1   
    12    7   24 1   
    13    7   38 1   
    14    8    9 1   
    15    8   13 1   
    16    8   25 1   
    17    9   10 1   
    18    9   26 1   
    19    9   39 1   
    20   10   11 2   
    21   10   12 1   
    22   12   27 1   
    23   12   28 1   
    24   12   29 1   
    25   13   14 1   
    26   13   15 1   
    27   13   30 1   
    28   15   16 1   
    29   15   17 1   
    30   15   31 1   
    31   16   32 1   
    32   17   18 1   
    33   17   19 1   
    34   17   33 1   
    35   18   34 1   
    36   19   20 1   
    37   19   35 1   
    38   19   36 1   
    39   20   37 1   
@<TRIPOS>SUBSTRUCTURE
     1 4AM         1 TEMP              0 ****  ****    0 ROOT
