@<TRIPOS>MOLECULE
4AM
   39    39     1     0     0
SMALL
bcc


@<TRIPOS>ATOM
      1 C1          0.4690    0.9830   -0.4480 c         1 4AM      0.969800
      2 O1A         0.5730    2.0380   -1.1400 o         1 4AM     -0.702800
      3 O1B         0.8940    0.6280    0.6410 o         1 4AM     -0.702800
      4 C2         -0.4290    0.0280   -1.3480 ce        1 4AM      0.139900
      5 C3          0.0080   -0.4160   -2.5730 c2        1 4AM     -0.525200
      6 C4         -0.7060    0.1040   -3.7490 c3        1 4AM      0.236700
      7 N4         -0.1570    1.5260   -3.9210 nz        1 4AM     -0.891600
      8 C5         -2.2520    0.1700   -3.5300 c3        1 4AM      0.079500
      9 N5         -2.9980   -0.6070   -4.5750 ny        1 4AM     -0.687800
     10 C10        -2.9470    0.0070   -5.9560 c         1 4AM      0.571100
     11 O10        -2.1860    0.9540   -6.0990 o         1 4AM     -0.453100
     12 C11        -3.8420   -0.6170   -6.9700 c3        1 4AM     -0.193100
     13 C6         -2.6140   -0.3700   -2.1200 c3        1 4AM      0.074100
     14 O6         -1.7600    0.2280   -1.1400 os        1 4AM     -0.269900
     15 C7         -4.0600   -0.0170   -1.7160 c3        1 4AM      0.149100
     16 O7         -4.1270    0.7100   -0.5170 oh        1 4AM     -0.552800
     17 C8         -4.8980   -1.3060   -1.6220 c3        1 4AM      0.067100
     18 O8         -4.8360   -1.9290   -2.9040 oh        1 4AM     -0.689800
     19 C9         -6.3500   -0.9790   -1.2480 c3        1 4AM      0.101400
     20 O9         -7.1470   -2.1160   -1.5020 oh        1 4AM     -0.602800
     21 H3          0.9950   -0.8690   -2.7030 ha        1 4AM      0.194000
     22 H4         -0.4420   -0.4460   -4.6970 hx        1 4AM      0.087700
     23 HN41        0.8010    1.4580   -4.2720 hn        1 4AM      0.469133
     24 HN42       -0.0950    1.9790   -2.9680 hn        1 4AM      0.469133
     25 H5         -2.6290    1.2370   -3.5980 hx        1 4AM      0.117700
     26 H5N        -3.9910   -0.6860   -4.2730 hn        1 4AM      0.487300
     27 H111       -3.5900   -0.1930   -7.9790 hc        1 4AM      0.123033
     28 H112       -3.7180   -1.7290   -7.0040 hc        1 4AM      0.123033
     29 H113       -4.9130   -0.3750   -6.7400 hc        1 4AM      0.123033
     30 H6         -2.4450   -1.4860   -2.0940 h1        1 4AM      0.098700
     31 H7         -4.5290    0.6750   -2.4760 h1        1 4AM      0.066700
     32 H7O        -3.5700    0.2770    0.1490 ho        1 4AM      0.444000
     33 H8         -4.4520   -2.0110   -0.8670 h1        1 4AM      0.073700
     34 H8O        -5.6050   -2.5180   -2.9740 ho        1 4AM      0.465000
     35 H91        -6.4010   -0.6380   -0.1820 h1        1 4AM      0.079200
     36 H92        -6.7570   -0.1750   -1.9190 h1        1 4AM      0.079200
     37 HO9        -7.1790   -2.6470   -0.6970 ho        1 4AM      0.425000
     38 H43        -0.7180    2.0860   -4.5590 hn        1 4AM      0.469133
     39 H52        -2.6250   -1.5650   -4.6120 hn        1 4AM      0.487300
@<TRIPOS>BOND
     1    1    2 1   
     2    1    3 1   
     3    1    4 1   
     4    4    5 2   
     5    4   14 1   
     6    5    6 1   
     7    5   21 1   
     8    6    7 1   
     9    6    8 1   
    10    6   22 1   
    11    7   23 1   
    12    7   24 1   
    13    7   38 1   
    14    8    9 1   
    15    8   13 1   
    16    8   25 1   
    17    9   10 1   
    18    9   26 1   
    19    9   39 1   
    20   10   11 2   
    21   10   12 1   
    22   12   27 1   
    23   12   28 1   
    24   12   29 1   
    25   13   14 1   
    26   13   15 1   
    27   13   30 1   
    28   15   16 1   
    29   15   17 1   
    30   15   31 1   
    31   16   32 1   
    32   17   18 1   
    33   17   19 1   
    34   17   33 1   
    35   18   34 1   
    36   19   20 1   
    37   19   35 1   
    38   19   36 1   
    39   20   37 1   
@<TRIPOS>SUBSTRUCTURE
     1 4AM         1 TEMP              0 ****  ****    0 ROOT
