@<TRIPOS>MOLECULE
4AN
   25    27     1     0     0
SMALL
bcc


@<TRIPOS>ATOM
      1 C1A        -0.0260    0.0000    0.0500 c         1 4AN      0.708100
      2 O1A        -0.6530    0.0000    1.1200 o         1 4AN     -0.559500
      3 C1          1.4680    0.0000    0.0170 ca        1 4AN     -0.068600
      4 C2          2.1720    0.0000    1.2030 ca        1 4AN     -0.064000
      5 C3          3.5810    0.0000    1.1900 ca        1 4AN     -0.074000
      6 C4          4.2580    0.0000   -0.0220 ca        1 4AN     -0.050400
      7 N4          5.7220    0.0000   -0.0260 n4        1 4AN     -0.703000
      8 C5          4.2120    0.0000   -2.5420 ca        1 4AN     -0.147000
      9 C6          3.4780    0.0000   -3.7040 ca        1 4AN     -0.074000
     10 C7          2.0620    0.0000   -3.6670 ca        1 4AN     -0.031000
     11 C8          1.4100    0.0000   -2.4530 ca        1 4AN     -0.120600
     12 C8A        -0.0790    0.0000   -2.4160 c         1 4AN      0.713100
     13 O8A        -0.7670    0.0000   -3.4460 o         1 4AN     -0.555500
     14 N9         -0.7040    0.0000   -1.1650 n         1 4AN     -0.579500
     15 C9          2.1460    0.0000   -1.2330 ca        1 4AN      0.013000
     16 C10         3.5650    0.0000   -1.2750 ca        1 4AN     -0.030000
     17 H2          1.6310    0.0000    2.1700 ha        1 4AN      0.203000
     18 H3          4.1100    0.0000    2.1590 ha        1 4AN      0.166000
     19 HN41        6.0620   -0.8370   -0.5160 hn        1 4AN      0.466467
     20 HN42        6.0620    0.8370   -0.5160 hn        1 4AN      0.466467
     21 H5          5.3090    0.0000   -2.6140 ha        1 4AN      0.124000
     22 H6          3.9830    0.0000   -4.6860 ha        1 4AN      0.172000
     23 H7          1.4820    0.0000   -4.6100 ha        1 4AN      0.195000
     24 HN9        -1.7070    0.0000   -1.1430 hn        1 4AN      0.365500
     25 H43         6.0820    0.0000    0.9350 hn        1 4AN      0.466467
@<TRIPOS>BOND
     1    1    2 2   
     2    1    3 1   
     3    1   14 1   
     4    3    4 ar  
     5    3   15 ar  
     6    4    5 ar  
     7    4   17 1   
     8    5    6 ar  
     9    5   18 1   
    10    6    7 1   
    11    6   16 ar  
    12    7   19 1   
    13    7   20 1   
    14    7   25 1   
    15    8    9 ar  
    16    8   16 ar  
    17    8   21 1   
    18    9   10 ar  
    19    9   22 1   
    20   10   11 ar  
    21   10   23 1   
    22   11   12 1   
    23   11   15 ar  
    24   12   13 2   
    25   12   14 1   
    26   14   24 1   
    27   15   16 ar  
@<TRIPOS>SUBSTRUCTURE
     1 4AN         1 TEMP              0 ****  ****    0 ROOT
