@<TRIPOS>MOLECULE
4AN
   24    26     1     0     0
SMALL
bcc


@<TRIPOS>ATOM
      1 C1A         0.0040   -0.0210    0.0550 c         1 4AN      0.729100
      2 O1A        -0.6500   -0.0400    1.1140 o         1 4AN     -0.623500
      3 C1          1.4790   -0.0280    0.0090 ca        1 4AN     -0.220600
      4 C2          2.2040   -0.0570    1.1880 ca        1 4AN      0.018000
      5 C3          3.6020   -0.0540    1.1670 ca        1 4AN     -0.257000
      6 C4          4.3110   -0.0330   -0.0460 ca        1 4AN      0.234600
      7 N4          5.6900   -0.0920   -0.0360 nh        1 4AN     -0.845200
      8 C5          4.2020   -0.0000   -2.5630 ca        1 4AN     -0.068000
      9 C6          3.4650    0.0240   -3.7240 ca        1 4AN     -0.165000
     10 C7          2.0550    0.0380   -3.6760 ca        1 4AN     -0.026000
     11 C8          1.4110    0.0230   -2.4560 ca        1 4AN     -0.164600
     12 C8A        -0.0700    0.0320   -2.4100 c         1 4AN      0.721100
     13 O8A        -0.7780    0.0590   -3.4340 o         1 4AN     -0.620500
     14 N9         -0.6900    0.0090   -1.1600 n         1 4AN     -0.588500
     15 C9          2.1540   -0.0040   -1.2400 ca        1 4AN      0.064000
     16 C10         3.5720   -0.0100   -1.2900 ca        1 4AN     -0.108000
     17 H2          1.6700   -0.0780    2.1540 ha        1 4AN      0.162000
     18 H3          4.1410   -0.0750    2.1260 ha        1 4AN      0.142000
     19 HN41        6.1440    0.0680    0.8320 hn        1 4AN      0.420300
     20 HN42        6.1820    0.1930   -0.8460 hn        1 4AN      0.420300
     21 H5          5.3000   -0.0220   -2.6430 ha        1 4AN      0.129000
     22 H6          3.9660    0.0300   -4.7040 ha        1 4AN      0.144000
     23 H7          1.4670    0.0580   -4.6100 ha        1 4AN      0.165000
     24 HN9        -1.6890    0.0130   -1.1300 hn        1 4AN      0.340500
@<TRIPOS>BOND
     1    1    2 2   
     2    1    3 1   
     3    1   14 1   
     4    3    4 ar  
     5    3   15 ar  
     6    4    5 ar  
     7    4   17 1   
     8    5    6 ar  
     9    5   18 1   
    10    6    7 1   
    11    6   16 ar  
    12    7   19 1   
    13    7   20 1   
    14    8    9 ar  
    15    8   16 ar  
    16    8   21 1   
    17    9   10 ar  
    18    9   22 1   
    19   10   11 ar  
    20   10   23 1   
    21   11   12 1   
    22   11   15 ar  
    23   12   13 2   
    24   12   14 1   
    25   14   24 1   
    26   15   16 ar  
@<TRIPOS>SUBSTRUCTURE
     1 4AN         1 TEMP              0 ****  ****    0 ROOT
