@<TRIPOS>MOLECULE
4AN
   24    26     1     0     0
SMALL
bcc


@<TRIPOS>ATOM
      1 C1A         1.5820    0.0040   -1.6570 c         1 4AN      0.729100
      2 O1A         2.7560    0.0040   -2.0740 o         1 4AN     -0.623500
      3 C1          1.2280   -0.0080   -0.2260 ca        1 4AN     -0.220600
      4 C2          2.2270   -0.0210    0.7320 ca        1 4AN      0.018000
      5 C3          1.9110   -0.0230    2.0940 ca        1 4AN     -0.257000
      6 C4          0.5760   -0.0230    2.5310 ca        1 4AN      0.234600
      7 N4          0.2960   -0.0860    3.8810 nh        1 4AN     -0.845200
      8 C5         -1.8610   -0.0290    1.8950 ca        1 4AN     -0.068000
      9 C6         -2.8410   -0.0210    0.9280 ca        1 4AN     -0.165000
     10 C7         -2.4980   -0.0020   -0.4400 ca        1 4AN     -0.026000
     11 C8         -1.1690    0.0040   -0.8110 ca        1 4AN     -0.164600
     12 C8A        -0.8120    0.0190   -2.2500 c         1 4AN      0.721100
     13 O8A        -1.6640    0.0320   -3.1580 o         1 4AN     -0.620500
     14 N9          0.5410    0.0180   -2.5920 n         1 4AN     -0.588500
     15 C9         -0.1360   -0.0060    0.1710 ca        1 4AN      0.064000
     16 C10        -0.4840   -0.0170    1.5470 ca        1 4AN     -0.108000
     17 H2          3.2840   -0.0250    0.4140 ha        1 4AN      0.162000
     18 H3          2.7350   -0.0300    2.8240 ha        1 4AN      0.142000
     19 HN41        1.0460    0.0860    4.5080 hn        1 4AN      0.420300
     20 HN42       -0.6040    0.1850    4.1910 hn        1 4AN      0.420300
     21 H5         -2.1710   -0.0560    2.9500 ha        1 4AN      0.129000
     22 H6         -3.9050   -0.0320    1.2120 ha        1 4AN      0.144000
     23 H7         -3.2860    0.0050   -1.2120 ha        1 4AN      0.165000
     24 HN9         0.7800    0.0250   -3.5620 hn        1 4AN      0.340500
@<TRIPOS>BOND
     1    1    2 2   
     2    1    3 1   
     3    1   14 1   
     4    3    4 ar  
     5    3   15 ar  
     6    4    5 ar  
     7    4   17 1   
     8    5    6 ar  
     9    5   18 1   
    10    6    7 1   
    11    6   16 ar  
    12    7   19 1   
    13    7   20 1   
    14    8    9 ar  
    15    8   16 ar  
    16    8   21 1   
    17    9   10 ar  
    18    9   22 1   
    19   10   11 ar  
    20   10   23 1   
    21   11   12 1   
    22   11   15 ar  
    23   12   13 2   
    24   12   14 1   
    25   14   24 1   
    26   15   16 ar  
@<TRIPOS>SUBSTRUCTURE
     1 4AN         1 TEMP              0 ****  ****    0 ROOT
