@<TRIPOS>MOLECULE
4AN
   24    21     1     0     0
SMALL
bcc


@<TRIPOS>ATOM
      1 C1A        -2.5500   -0.0160    1.0740 c1        1 4AN      0.366000
      2 O1A        -3.1570    0.0460    2.1240 o         1 4AN     -0.348000
      3 C1         -1.0140   -0.0160    1.0740 c1        1 4AN     -0.200000
      4 C2         -0.3100   -0.0160    2.2930 c2        1 4AN      0.018000
      5 C3          1.0950   -0.0160    2.2940 c1        1 4AN     -0.257000
      6 C4          1.8010   -0.0160    1.0750 c1        1 4AN      0.153000
      7 N4          3.1870    0.0580    1.3750 n3        1 4AN     -0.354000
      8 C5          1.8040   -0.0160   -1.3670 c1        1 4AN     -0.068000
      9 C6          1.1100   -0.0160   -2.5800 c1        1 4AN     -0.095500
     10 C7         -0.2910   -0.0160   -2.5860 c1        1 4AN     -0.095500
     11 C8         -1.0000   -0.0160   -1.3690 c1        1 4AN     -0.144000
     12 C8A        -2.5480   -0.0160   -1.3750 c2        1 4AN      0.358000
     13 O8A        -3.1520    0.0300   -2.4280 o         1 4AN     -0.345000
     14 N9         -3.2550   -0.0160   -0.1500 n         1 4AN     -0.368000
     15 C9         -0.3040   -0.0160   -0.1530 c1        1 4AN      0.064000
     16 C10         1.0970   -0.0160   -0.1500 c1        1 4AN     -0.108000
     17 H2         -0.7990   -0.0160    3.1380 ha        1 4AN      0.162000
     18 H3          1.5820   -0.0110    3.1400 ha        1 4AN      0.142000
     19 HN41        3.5300   -0.4250    2.0690 hn        1 4AN      0.215500
     20 HN42        3.7340    0.5900    0.8750 hn        1 4AN      0.215500
     21 H5          2.7810   -0.0160   -1.3640 ha        1 4AN      0.129000
     22 H6          1.6010   -0.0160   -3.4240 ha        1 4AN      0.154500
     23 H7         -0.7750   -0.0160   -3.4330 ha        1 4AN      0.154500
     24 HN9        -4.1670   -0.0190   -0.1500 hn        1 4AN      0.254000
@<TRIPOS>BOND
     1    1    2 1   
     2    1   14 1   
     3    3    4 1   
     4    3   15 1   
     5    4    5 1   
     6    4   17 1   
     7    5   18 1   
     8    6    7 1   
     9    6   16 1   
    10    7   19 1   
    11    7   20 1   
    12    8   16 1   
    13    8   21 1   
    14    9   10 1   
    15    9   22 1   
    16   10   23 1   
    17   11   12 1   
    18   11   15 1   
    19   12   13 1   
    20   12   14 1   
    21   14   24 1   
@<TRIPOS>SUBSTRUCTURE
     1 4AN         1 TEMP              0 ****  ****    0 ROOT
