@<TRIPOS>MOLECULE
4AP
   14    11     1     0     0
SMALL
bcc


@<TRIPOS>ATOM
      1 N1         -0.9370   -0.0150   -1.6240 n1        1 4AP     -0.648200
      2 C2          0.4260   -0.0150   -1.6240 c1        1 4AP     -0.040000
      3 C3          1.1200   -0.0150   -0.4240 c1        1 4AP     -0.040000
      4 C4          0.4380   -0.0150    0.7590 c1        1 4AP      0.283800
      5 C5         -0.9280   -0.0150    0.7570 c1        1 4AP     -0.187500
      6 C6         -1.6190   -0.0150   -0.4440 c1        1 4AP      0.433300
      7 N4          1.1460    0.0420    1.9860 n3        1 4AP     -0.763400
      8 HN1        -1.3920   -0.0150   -2.4140 hn        1 4AP      0.454400
      9 H2          0.9140   -0.0150   -2.4690 ha        1 4AP      0.141500
     10 H3          2.0960   -0.0150   -0.4240 ha        1 4AP      0.141500
     11 H5         -1.4170   -0.0150    1.6020 ha        1 4AP      0.134500
     12 H6         -2.5950   -0.0150   -0.4450 ha        1 4AP      0.148500
     13 HN41        1.3890   -0.7290    2.4090 hn        1 4AP      0.470800
     14 HN42        1.3580    0.8490    2.3540 hn        1 4AP      0.470800
@<TRIPOS>BOND
     1    1    6 3   
     2    1    8 1   
     3    2    3 3   
     4    2    9 1   
     5    3   10 1   
     6    4    5 3   
     7    4    7 1   
     8    5   11 1   
     9    6   12 1   
    10    7   13 1   
    11    7   14 1   
@<TRIPOS>SUBSTRUCTURE
     1 4AP         1 TEMP              0 ****  ****    0 ROOT
