@<TRIPOS>MOLECULE
4AP
   15    15     1     0     0
SMALL
bcc


@<TRIPOS>ATOM
      1 N1         -0.0220    0.0150   -0.0480 na        1 4AP     -0.051100
      2 C2          1.3400    0.0330   -0.0240 ca        1 4AP      0.033700
      3 C3          2.0420    0.0090    1.1950 ca        1 4AP     -0.123000
      4 C4          1.3130   -0.0340    2.3990 ca        1 4AP      0.078600
      5 C5         -0.0950   -0.0530    2.3600 ca        1 4AP     -0.123000
      6 C6         -0.7400   -0.0280    1.1110 ca        1 4AP      0.033700
      7 N4          2.0140   -0.0520    3.6840 n4        1 4AP     -0.728000
      8 HN1        -0.5110    0.0320   -0.9420 hn        1 4AP      0.388700
      9 H2          1.8810    0.0670   -1.0030 h4        1 4AP      0.261000
     10 H3          3.1510    0.0240    1.1570 ha        1 4AP      0.231000
     11 H5         -0.7260   -0.0890    3.2710 ha        1 4AP      0.231000
     12 H6         -1.8560   -0.0420    1.0350 h4        1 4AP      0.261000
     13 HN41        2.9350   -0.5120    3.5870 hn        1 4AP      0.501133
     14 HN42        2.1600    0.9170    4.0160 hn        1 4AP      0.501133
     15 H43         1.4600   -0.5650    4.3910 hn        1 4AP      0.501133
@<TRIPOS>BOND
     1    1    2 1   
     2    1    6 2   
     3    1    8 1   
     4    2    3 ar  
     5    2    9 1   
     6    3    4 ar  
     7    3   10 1   
     8    4    5 ar  
     9    4    7 1   
    10    5    6 ar  
    11    5   11 1   
    12    6   12 1   
    13    7   13 1   
    14    7   14 1   
    15    7   15 1   
@<TRIPOS>SUBSTRUCTURE
     1 4AP         1 TEMP              0 ****  ****    0 ROOT
