@<TRIPOS>MOLECULE
4AP
   14    14     1     0     0
SMALL
bcc


@<TRIPOS>ATOM
      1 N1         -0.0050   -0.0120   -0.0380 na        1 4AP     -0.160100
      2 C2          1.3590    0.1250    0.0010 ca        1 4AP      0.025700
      3 C3          2.0520    0.1320    1.1940 ca        1 4AP     -0.245000
      4 C4          1.3470   -0.0050    2.4410 ca        1 4AP      0.309600
      5 C5         -0.0820   -0.1460    2.3590 ca        1 4AP     -0.245000
      6 C6         -0.7100   -0.1450    1.1310 ca        1 4AP      0.025700
      7 N4          1.9920   -0.0020    3.6210 nv        1 4AP     -0.789200
      8 HN1        -0.4850   -0.0140   -0.9180 hn        1 4AP      0.340700
      9 H2          1.8790    0.2290   -0.9750 h4        1 4AP      0.206000
     10 H3          3.1490    0.2450    1.1780 ha        1 4AP      0.192000
     11 H5         -0.6890   -0.2560    3.2730 ha        1 4AP      0.192000
     12 H6         -1.8120   -0.2520    1.0400 h4        1 4AP      0.206000
     13 HN41        2.9810    0.0970    3.6610 hn        1 4AP      0.470800
     14 HN42        1.4900   -0.0980    4.4750 hn        1 4AP      0.470800
@<TRIPOS>BOND
     1    1    2 1   
     2    1    6 2   
     3    1    8 1   
     4    2    3 ar  
     5    2    9 1   
     6    3    4 ar  
     7    3   10 1   
     8    4    5 ar  
     9    4    7 1   
    10    5    6 ar  
    11    5   11 1   
    12    6   12 1   
    13    7   13 1   
    14    7   14 1   
@<TRIPOS>SUBSTRUCTURE
     1 4AP         1 TEMP              0 ****  ****    0 ROOT
