@<TRIPOS>MOLECULE
4AP
   14    14     1     0     0
SMALL
bcc


@<TRIPOS>ATOM
      1 N1          0.0120   -0.0130   -0.0480 na        1 4AP     -0.160100
      2 C2          1.3750    0.1360    0.0060 ca        1 4AP      0.025700
      3 C3          2.0550    0.1440    1.2070 ca        1 4AP     -0.245000
      4 C4          1.3380   -0.0040    2.4450 ca        1 4AP      0.309600
      5 C5         -0.0880   -0.1580    2.3480 ca        1 4AP     -0.245000
      6 C6         -0.7040   -0.1570    1.1130 ca        1 4AP      0.025700
      7 N4          1.9700   -0.0000    3.6330 nh        1 4AP     -0.789200
      8 HN1        -0.4590   -0.0160   -0.9330 hn        1 4AP      0.340700
      9 H2          1.9040    0.2490   -0.9630 h4        1 4AP      0.206000
     10 H3          3.1510    0.2670    1.2030 ha        1 4AP      0.192000
     11 H5         -0.7040   -0.2770    3.2550 ha        1 4AP      0.192000
     12 H6         -1.8040   -0.2740    1.0100 h4        1 4AP      0.206000
     13 HN41        1.4600   -0.1040    4.4810 hn        1 4AP      0.470800
     14 HN42        2.9580    0.1070    3.6840 hn        1 4AP      0.470800
@<TRIPOS>BOND
     1    1    2 1   
     2    1    6 2   
     3    1    8 1   
     4    2    3 ar  
     5    2    9 1   
     6    3    4 ar  
     7    3   10 1   
     8    4    5 ar  
     9    4    7 1   
    10    5    6 ar  
    11    5   11 1   
    12    6   12 1   
    13    7   13 1   
    14    7   14 1   
@<TRIPOS>SUBSTRUCTURE
     1 4AP         1 TEMP              0 ****  ****    0 ROOT
