@<TRIPOS>MOLECULE
4AP
   14    14     1     0     0
SMALL
bcc


@<TRIPOS>ATOM
      1 N1         -1.8040    0.0000   -0.0000 na        1 4AP     -0.160100
      2 C2         -1.1160   -1.1870    0.0010 ca        1 4AP      0.025700
      3 C3          0.2640   -1.2230    0.0010 ca        1 4AP     -0.245000
      4 C4          1.0200   -0.0000    0.0000 ca        1 4AP      0.309600
      5 C5          0.2640    1.2230   -0.0000 ca        1 4AP     -0.245000
      6 C6         -1.1160    1.1870   -0.0010 ca        1 4AP      0.025700
      7 N4          2.3650    0.0000    0.0010 nh        1 4AP     -0.789200
      8 HN1        -2.8070    0.0000   -0.0000 hn        1 4AP      0.340700
      9 H2         -1.7240   -2.1160    0.0010 h4        1 4AP      0.206000
     10 H3          0.7750   -2.2000    0.0010 ha        1 4AP      0.192000
     11 H5          0.7750    2.2000   -0.0010 ha        1 4AP      0.192000
     12 H6         -1.7240    2.1160   -0.0010 h4        1 4AP      0.206000
     13 HN41        2.8740    0.8550    0.0000 hn        1 4AP      0.470800
     14 HN42        2.8740   -0.8550    0.0010 hn        1 4AP      0.470800
@<TRIPOS>BOND
     1    1    2 1   
     2    1    6 2   
     3    1    8 1   
     4    2    3 ar  
     5    2    9 1   
     6    3    4 ar  
     7    3   10 1   
     8    4    5 ar  
     9    4    7 1   
    10    5    6 ar  
    11    5   11 1   
    12    6   12 1   
    13    7   13 1   
    14    7   14 1   
@<TRIPOS>SUBSTRUCTURE
     1 4AP         1 TEMP              0 ****  ****    0 ROOT
