@<TRIPOS>MOLECULE
4AR
   48    45     1     0     0
SMALL
bcc


@<TRIPOS>ATOM
      1 N1         -0.7690   -0.5320   -1.8190 n3        1 4AR     -0.335000
      2 C1          0.1350    0.5160   -1.5850 c3        1 4AR     -0.067000
      3 C2          0.5770    0.4880   -0.1400 c2        1 4AR      0.161000
      4 O1         -0.0620    1.0600    0.6900 o         1 4AR     -0.257000
      5 C3         -0.5620    1.8790   -1.8880 c3        1 4AR     -0.163000
      6 C4         -1.3040    1.7900   -3.1840 c3        1 4AR     -0.164000
      7 C5         -2.1940    3.0820   -3.3660 c3        1 4AR     -0.047000
      8 N2         -2.7010    3.1230   -4.6770 n3        1 4AR     -0.312000
      9 C6         -3.7790    3.9880   -4.9670 c2        1 4AR      0.389000
     10 N3         -4.9590    3.9800   -4.1300 n3        1 4AR     -0.364000
     11 N4         -3.7130    4.8140   -6.0170 n2        1 4AR     -0.375000
     12 C7          1.7510   -0.3680    0.2750 c3        1 4AR     -0.062000
     13 O2          1.6570   -0.6650    1.6960 os        1 4AR     -0.240000
     14 C8          2.4840   -1.7690    2.1200 c2        1 4AR      0.376000
     15 C9          2.2150   -2.4470    3.4440 c2        1 4AR     -0.113000
     16 C10         3.0630   -2.2380    4.5140 c2        1 4AR     -0.008000
     17 C11         2.8510   -2.9280    5.7250 c1        1 4AR     -0.142000
     18 C12         1.7830   -3.8220    5.8420 c1        1 4AR     -0.115000
     19 C13         0.9300   -4.0290    4.7600 c1        1 4AR     -0.115000
     20 C14         1.1400   -3.3480    3.5640 c1        1 4AR     -0.019000
     21 O3          3.4370   -2.0950    1.4620 o         1 4AR     -0.389000
     22 C15         4.2740   -1.3590    4.3470 c3        1 4AR     -0.202000
     23 C16         0.0440   -3.9910    2.7180 c3        1 4AR     -0.197000
     24 H          -0.4660   -1.0540   -2.5340 hn        1 4AR      0.163500
     25 H2         -0.8390   -1.0670   -1.0430 hn        1 4AR      0.163500
     26 HA          0.9460    0.4080   -2.1890 h1        1 4AR      0.113000
     27 HB2        -1.1850    2.0850   -1.1790 hc        1 4AR      0.112500
     28 HB3         0.1330    2.6070   -1.9480 hc        1 4AR      0.112500
     29 HG2        -0.6770    1.7270   -3.9070 hc        1 4AR      0.110500
     30 HG3        -1.8720    1.0050   -3.1780 hc        1 4AR      0.110500
     31 HD2        -1.6480    3.8810   -3.2000 h1        1 4AR      0.110000
     32 HD3        -2.9590    3.0570   -2.7120 h1        1 4AR      0.110000
     33 HE         -2.2910    2.6530   -5.3330 hn        1 4AR      0.275000
     34 HH11       -5.8010    4.1280   -4.5270 hn        1 4AR      0.279000
     35 HH12       -4.8860    3.9670   -3.2400 hn        1 4AR      0.279000
     36 HH21       -2.9550    4.8370   -6.5790 DU        1 4AR      0.276000
     37 HH22       -4.4260    5.3700   -6.1880 hn        1 4AR      0.276000
     38 H15         2.6110    0.1260    0.0920 h1        1 4AR      0.129000
     39 H16         1.7410   -1.2010   -0.2320 h1        1 4AR      0.129000
     40 H17         3.4420   -2.7840    6.4730 ha        1 4AR      0.145000
     41 H18         1.6260   -4.3220    6.7180 ha        1 4AR      0.144000
     42 H19         0.1670   -4.6690    4.8430 ha        1 4AR      0.144000
     43 H20         4.8290   -1.6940    3.5760 hc        1 4AR      0.099333
     44 H21         3.9770   -0.4040    4.1610 hc        1 4AR      0.099333
     45 H22         4.8000   -1.3810    5.1530 hc        1 4AR      0.099333
     46 H23         0.0920   -3.6370    1.7880 hc        1 4AR      0.093667
     47 H24        -0.8290   -3.7810    3.1000 hc        1 4AR      0.093667
     48 H25         0.1720   -4.9880    2.7040 hc        1 4AR      0.093667
@<TRIPOS>BOND
     1    1    2 1   
     2    1   24 1   
     3    1   25 1   
     4    2    3 1   
     5    2    5 1   
     6    2   26 1   
     7    3    4 1   
     8    3   12 1   
     9    5    6 1   
    10    5   27 1   
    11    5   28 1   
    12    6    7 1   
    13    6   29 1   
    14    6   30 1   
    15    7    8 1   
    16    7   31 1   
    17    7   32 1   
    18    8    9 1   
    19    8   33 1   
    20    9   10 1   
    21    9   11 1   
    22   10   34 1   
    23   10   35 1   
    24   11   37 1   
    25   12   13 1   
    26   12   38 1   
    27   12   39 1   
    28   13   14 1   
    29   14   15 1   
    30   14   21 1   
    31   15   16 1   
    32   15   20 1   
    33   16   17 1   
    34   16   22 1   
    35   17   40 1   
    36   18   19 1   
    37   18   41 1   
    38   19   42 1   
    39   20   23 1   
    40   22   43 1   
    41   22   44 1   
    42   22   45 1   
    43   23   46 1   
    44   23   47 1   
    45   23   48 1   
@<TRIPOS>SUBSTRUCTURE
     1 4AR         1 TEMP              0 ****  ****    0 ROOT
