@<TRIPOS>MOLECULE
4AR
   48    48     1     0     0
SMALL
bcc


@<TRIPOS>ATOM
      1 N1         -2.3330    2.4050   -2.6860 n3        1 4AR     -0.902800
      2 C1         -1.6010    2.0820   -1.4810 c3        1 4AR      0.080500
      3 C2         -0.0840    1.9360   -1.6580 c         1 4AR      0.500100
      4 O1          0.4090    1.5320   -2.7110 o         1 4AR     -0.496100
      5 C3         -2.0760    0.7630   -0.8450 c3        1 4AR     -0.084400
      6 C4         -3.5180    0.8520   -0.3970 c3        1 4AR     -0.085400
      7 C5         -3.8750   -0.4380    0.3440 c3        1 4AR      0.012300
      8 N2         -5.2660   -0.4710    0.7550 nh        1 4AR     -0.397100
      9 C6         -5.8240   -1.5280    1.4360 cz        1 4AR      0.521300
     10 N3         -5.0640   -2.6190    1.7920 nh        1 4AR     -0.507700
     11 N4         -7.1620   -1.4950    1.7720 nh        1 4AR     -0.507700
     12 C7          0.7420    2.3170   -0.4530 c3        1 4AR      0.038400
     13 O2          1.9300    1.5350   -0.3590 os        1 4AR     -0.401900
     14 C8          1.8300    0.2830    0.2000 c         1 4AR      0.675700
     15 C9          3.1120   -0.4440    0.2390 ca        1 4AR     -0.133600
     16 C10         3.6800   -0.9320   -0.9490 ca        1 4AR     -0.020800
     17 C11         4.8870   -1.6390   -0.8800 ca        1 4AR     -0.141500
     18 C12         5.5160   -1.8490    0.3440 ca        1 4AR     -0.089000
     19 C13         4.9470   -1.3580    1.5180 ca        1 4AR     -0.141500
     20 C14         3.7410   -0.6500    1.4790 ca        1 4AR     -0.020800
     21 O3          0.7170   -0.0710    0.6020 o         1 4AR     -0.578000
     22 C15         3.0280   -0.7400   -2.2650 c3        1 4AR     -0.074300
     23 C16         3.1600   -0.1170    2.7340 c3        1 4AR     -0.074300
     24 H          -2.0680    3.3110   -3.0230 hn        1 4AR      0.368300
     25 H2         -2.1520    1.7260   -3.4020 hn        1 4AR      0.368300
     26 HA         -1.7850    2.9210   -0.7450 h1        1 4AR      0.073700
     27 HB2        -1.9550   -0.0740   -1.5830 hc        1 4AR      0.073200
     28 HB3        -1.4090    0.5380    0.0330 hc        1 4AR      0.073200
     29 HG2        -3.6550    1.7370    0.2770 hc        1 4AR      0.071200
     30 HG3        -4.1860    0.9940   -1.2880 hc        1 4AR      0.071200
     31 HD2        -3.6710   -1.3180   -0.3350 h1        1 4AR      0.070700
     32 HD3        -3.2190   -0.5270    1.2590 h1        1 4AR      0.070700
     33 HE         -5.8400    0.3040    0.4920 hn        1 4AR      0.324700
     34 HH11       -4.0950   -2.6600    1.5650 hn        1 4AR      0.327200
     35 HH12       -5.4640   -3.3790    2.2940 hn        1 4AR      0.327200
     36 HH21       -7.7320   -0.7200    1.5200 hn        1 4AR      0.327200
     37 HH22       -7.5830   -2.2450    2.2710 hn        1 4AR      0.327200
     38 H15         1.1280    3.3670   -0.5810 h1        1 4AR      0.089700
     39 H16         0.1390    2.2300    0.4890 h1        1 4AR      0.089700
     40 H17         5.3400   -2.0260   -1.8060 ha        1 4AR      0.144500
     41 H18         6.4670   -2.4020    0.3860 ha        1 4AR      0.144000
     42 H19         5.4490   -1.5230    2.4840 ha        1 4AR      0.144500
     43 H20         2.3870    0.1790   -2.2820 hc        1 4AR      0.057200
     44 H21         3.7940   -0.6440   -3.0740 hc        1 4AR      0.057200
     45 H22         2.3830   -1.6250   -2.5000 hc        1 4AR      0.057200
     46 H23         2.0450   -0.2100    2.7290 hc        1 4AR      0.057200
     47 H24         3.5570   -0.6650    3.6240 hc        1 4AR      0.057200
     48 H25         3.4250    0.9660    2.8450 hc        1 4AR      0.057200
@<TRIPOS>BOND
     1    1    2 1   
     2    1   24 1   
     3    1   25 1   
     4    2    3 1   
     5    2    5 1   
     6    2   26 1   
     7    3    4 2   
     8    3   12 1   
     9    5    6 1   
    10    5   27 1   
    11    5   28 1   
    12    6    7 1   
    13    6   29 1   
    14    6   30 1   
    15    7    8 1   
    16    7   31 1   
    17    7   32 1   
    18    8    9 2   
    19    8   33 1   
    20    9   10 1   
    21    9   11 1   
    22   10   34 1   
    23   10   35 1   
    24   11   36 1   
    25   11   37 1   
    26   12   13 1   
    27   12   38 1   
    28   12   39 1   
    29   13   14 1   
    30   14   15 1   
    31   14   21 2   
    32   15   16 ar  
    33   15   20 ar  
    34   16   17 ar  
    35   16   22 1   
    36   17   18 ar  
    37   17   40 1   
    38   18   19 ar  
    39   18   41 1   
    40   19   20 ar  
    41   19   42 1   
    42   20   23 1   
    43   22   43 1   
    44   22   44 1   
    45   22   45 1   
    46   23   46 1   
    47   23   47 1   
    48   23   48 1   
@<TRIPOS>SUBSTRUCTURE
     1 4AR         1 TEMP              0 ****  ****    0 ROOT
