@<TRIPOS>MOLECULE
4AT
   18    16     1     0     0
SMALL
bcc


@<TRIPOS>ATOM
      1 C           1.3680    1.4810    2.4740 c1        1 4AT      0.329000
      2 O1          2.6260    1.5160    2.5120 o         1 4AT     -0.579000
      3 O2          0.7060    1.4360    3.5440 os        1 4AT     -0.590000
      4 CA          0.6510    1.4940    1.1410 c3        1 4AT     -0.226000
      5 CB          0.3840    0.0720    0.6990 c3        1 4AT     -0.144000
      6 CG         -0.2220    0.0800   -0.6870 c3        1 4AT     -0.211000
      7 C2A        -1.4660   -1.6280   -2.2380 c3        1 4AT     -0.271000
      8 C1A        -0.4650   -1.3430   -1.1400 c2        1 4AT      0.233000
      9 OAC         0.1450   -2.2580   -0.6220 o         1 4AT     -0.341000
     10 HA1        -0.1970    1.9720    1.2320 hc        1 4AT      0.061500
     11 HA2         1.2090    1.9420    0.4750 hc        1 4AT      0.061500
     12 HB1         1.2240   -0.4290    0.6850 hc        1 4AT      0.089500
     13 HB2        -0.2380   -0.3530    1.3250 hc        1 4AT      0.089500
     14 HG1        -1.0710    0.5650   -0.6680 hc        1 4AT      0.098000
     15 HG2         0.3910    0.5200   -1.3080 hc        1 4AT      0.098000
     16 H2A1       -2.3710   -1.4410   -1.9110 hc        1 4AT      0.100667
     17 H2A2       -1.2740   -1.0570   -3.0110 hc        1 4AT      0.100667
     18 H2A3       -1.4010   -2.5690   -2.5030 hc        1 4AT      0.100667
@<TRIPOS>BOND
     1    1    2 1   
     2    1    4 1   
     3    4    5 1   
     4    4   10 1   
     5    4   11 1   
     6    5    6 1   
     7    5   12 1   
     8    5   13 1   
     9    6    8 1   
    10    6   14 1   
    11    6   15 1   
    12    7    8 1   
    13    7   16 1   
    14    7   17 1   
    15    7   18 1   
    16    8    9 1   
@<TRIPOS>SUBSTRUCTURE
     1 4AT         1 TEMP              0 ****  ****    0 ROOT
