@<TRIPOS>MOLECULE
4AT
   18    17     1     0     0
SMALL
bcc


@<TRIPOS>ATOM
      1 C           0.3300   -0.9650   -0.1470 c         1 4AT      0.905600
      2 O1          0.2050   -2.2180    0.0020 o         1 4AT     -0.851300
      3 O2          1.1430   -0.2630    0.5180 o         1 4AT     -0.851300
      4 CA         -0.5570   -0.2540   -1.1840 c3        1 4AT     -0.200400
      5 CB         -0.2720   -0.7330   -2.5900 c3        1 4AT     -0.039400
      6 CG         -0.7850   -2.1430   -2.8260 c3        1 4AT     -0.196400
      7 C2A         1.5050   -3.2300   -2.8260 c3        1 4AT     -0.221100
      8 C1A         0.2120   -3.0050   -3.5420 c         1 4AT      0.584100
      9 OAC        -0.0340   -3.5270   -4.6410 o         1 4AT     -0.604100
     10 HA1        -0.3700    0.8480   -1.1230 hc        1 4AT      0.025700
     11 HA2        -1.6290   -0.4420   -0.9240 hc        1 4AT      0.025700
     12 HB1         0.8360   -0.6890   -2.7640 hc        1 4AT      0.019700
     13 HB2        -0.7500   -0.0400   -3.3330 hc        1 4AT      0.019700
     14 HG1        -1.7480   -2.1150   -3.3970 hc        1 4AT      0.081200
     15 HG2        -0.9760   -2.6300   -1.8220 hc        1 4AT      0.081200
     16 H2A1        1.3710   -3.0530   -1.7230 hc        1 4AT      0.073367
     17 H2A2        2.2680   -2.5090   -3.2100 hc        1 4AT      0.073367
     18 H2A3        1.8760   -4.2670   -3.0030 hc        1 4AT      0.073367
@<TRIPOS>BOND
     1    1    2 1   
     2    1    3 1   
     3    1    4 1   
     4    4    5 1   
     5    4   10 1   
     6    4   11 1   
     7    5    6 1   
     8    5   12 1   
     9    5   13 1   
    10    6    8 1   
    11    6   14 1   
    12    6   15 1   
    13    7    8 1   
    14    7   16 1   
    15    7   17 1   
    16    7   18 1   
    17    8    9 2   
@<TRIPOS>SUBSTRUCTURE
     1 4AT         1 TEMP              0 ****  ****    0 ROOT
