@<TRIPOS>MOLECULE
4AT
   18    17     1     0     0
SMALL
bcc


@<TRIPOS>ATOM
      1 C           0.1870   -2.7340   -2.2150 c         1 4AT      0.905600
      2 O1         -0.6060   -3.0070   -1.2620 o         1 4AT     -0.851300
      3 O2         -0.0100   -1.7960   -3.0370 o         1 4AT     -0.851300
      4 CA          1.4520   -3.5930   -2.3880 c3        1 4AT     -0.200400
      5 CB          2.3830   -3.4680   -1.2040 c3        1 4AT     -0.039400
      6 CG          1.8360   -4.1700    0.0270 c3        1 4AT     -0.196400
      7 C2A         1.2350   -2.0420    1.2650 c3        1 4AT     -0.221100
      8 C1A         1.9730   -3.3420    1.2700 c         1 4AT      0.584100
      9 OAC         2.6270   -3.7260    2.2520 o         1 4AT     -0.604100
     10 HA1         1.1410   -4.6600   -2.5230 hc        1 4AT      0.025700
     11 HA2         1.9860   -3.2650   -3.3160 hc        1 4AT      0.025700
     12 HB1         2.5430   -2.3780   -0.9890 hc        1 4AT      0.019700
     13 HB2         3.3850   -3.9040   -1.4590 hc        1 4AT      0.019700
     14 HG1         0.7300   -4.3530   -0.1240 hc        1 4AT      0.081200
     15 HG2         2.3440   -5.1580    0.1670 hc        1 4AT      0.081200
     16 H2A1        0.3970   -2.0770    0.5150 hc        1 4AT      0.073367
     17 H2A2        1.9360   -1.2220    0.9750 hc        1 4AT      0.073367
     18 H2A3        0.8280   -1.8190    2.2800 hc        1 4AT      0.073367
@<TRIPOS>BOND
     1    1    2 1   
     2    1    3 1   
     3    1    4 1   
     4    4    5 1   
     5    4   10 1   
     6    4   11 1   
     7    5    6 1   
     8    5   12 1   
     9    5   13 1   
    10    6    8 1   
    11    6   14 1   
    12    6   15 1   
    13    7    8 1   
    14    7   16 1   
    15    7   17 1   
    16    7   18 1   
    17    8    9 2   
@<TRIPOS>SUBSTRUCTURE
     1 4AT         1 TEMP              0 ****  ****    0 ROOT
