@<TRIPOS>MOLECULE
4AT
   18    17     1     0     0
SMALL
bcc


@<TRIPOS>ATOM
      1 C           0.1950   -0.9980   -0.1250 c         1 4AT      0.905600
      2 O1          0.0900   -2.2570   -0.0090 o         1 4AT     -0.851800
      3 O2          0.9490   -0.2920    0.6020 o         1 4AT     -0.851800
      4 CA         -0.6430   -0.2860   -1.2020 c3        1 4AT     -0.200400
      5 CB         -0.2640   -0.7330   -2.5960 c3        1 4AT     -0.039400
      6 CG         -0.7340   -2.1480   -2.8870 c3        1 4AT     -0.196400
      7 C2A         1.5730   -3.1910   -2.7720 c3        1 4AT     -0.221100
      8 C1A         0.3200   -2.9770   -3.5580 c         1 4AT      0.584100
      9 OAC         0.1500   -3.4820   -4.6790 o         1 4AT     -0.604100
     10 HA1        -0.4830    0.8180   -1.1110 hc        1 4AT      0.025700
     11 HA2        -1.7240   -0.5000   -1.0090 hc        1 4AT      0.025700
     12 HB1         0.8510   -0.6650   -2.7020 hc        1 4AT      0.019700
     13 HB2        -0.7100   -0.0360   -3.3540 hc        1 4AT      0.019700
     14 HG1        -1.6620   -2.1270   -3.5130 hc        1 4AT      0.081200
     15 HG2        -0.9740   -2.6570   -1.9050 hc        1 4AT      0.081200
     16 H2A1        1.9740   -4.2180   -2.9450 hc        1 4AT      0.073367
     17 H2A2        1.3710   -3.0370   -1.6750 hc        1 4AT      0.073367
     18 H2A3        2.3440   -2.4490   -3.0970 hc        1 4AT      0.073367
@<TRIPOS>BOND
     1    1    2 1   
     2    1    3 1   
     3    1    4 1   
     4    4    5 1   
     5    4   10 1   
     6    4   11 1   
     7    5    6 1   
     8    5   12 1   
     9    5   13 1   
    10    6    8 1   
    11    6   14 1   
    12    6   15 1   
    13    7    8 1   
    14    7   16 1   
    15    7   17 1   
    16    7   18 1   
    17    8    9 2   
@<TRIPOS>SUBSTRUCTURE
     1 4AT         1 TEMP              0 ****  ****    0 ROOT
