@<TRIPOS>MOLECULE
4AU
   25    16     1     0     0
SMALL
bcc


@<TRIPOS>ATOM
      1 C1         -3.1220   -1.1740   -3.0580 c1        1 4AU     -0.128000
      2 C2         -1.7330   -1.1410   -2.9760 c1        1 4AU     -0.099500
      3 C3         -1.1030   -0.7410   -1.7730 c1        1 4AU     -0.048000
      4 C4         -1.8610   -0.3880   -0.6900 c1        1 4AU     -0.048000
      5 C5         -3.2730   -0.4220   -0.7740 c1        1 4AU     -0.099500
      6 C6         -3.8910   -0.8150   -1.9590 c1        1 4AU     -0.128000
      7 C8          0.2630   -0.1920   -0.1300 c1        1 4AU     -0.048000
      8 N17         0.2080   -0.6200   -1.4250 n1        1 4AU     -0.172500
      9 C10         0.6930    1.0030    0.7340 c1        1 4AU      0.369000
     10 C11         1.8950    0.8710    1.6900 c2        1 4AU     -0.184000
     11 C12         2.3370    1.8360    2.5770 c1        1 4AU     -0.097000
     12 C13         3.4690    1.3690    3.1780 c1        1 4AU     -0.223000
     13 C14         3.7360    0.1130    2.6670 c1        1 4AU     -0.096000
     14 N7          2.7610   -0.1870    1.7500 n2        1 4AU     -0.125000
     15 N9         -1.0140   -0.0490    0.3230 n1        1 4AU     -0.172500
     16 O16         0.0400    2.0290    0.7200 o         1 4AU     -0.307000
     17 H21         2.7010   -0.9610    1.2630 DU        1 4AU      0.210000
     18 H23         1.9100    2.7040    2.7450 DU        1 4AU      0.210000
     19 H24         4.0020    1.8440    3.8570 DU        1 4AU      0.210000
     20 H25         4.4910   -0.4640    2.9180 DU        1 4AU      0.210000
     21 H26         0.9280   -0.7620   -1.9770 DU        1 4AU      0.210000
     22 H1         -3.5590   -1.4520   -3.8940 ha        1 4AU      0.136000
     23 H2         -1.1900   -1.3950   -3.7530 ha        1 4AU      0.144000
     24 H6         -4.8730   -0.8380   -2.0170 ha        1 4AU      0.136000
     25 H5         -3.8160   -0.1680    0.0020 ha        1 4AU      0.144000
@<TRIPOS>BOND
     1    1    6 1   
     2    1   22 1   
     3    2    3 1   
     4    2   23 1   
     5    4    5 1   
     6    5   25 1   
     7    6   24 1   
     8    7    8 1   
     9    7   15 1   
    10    9   10 1   
    11    9   16 1   
    12   10   11 1   
    13   10   14 1   
    14   11   12 1   
    15   12   13 1   
    16   13   14 1   
@<TRIPOS>SUBSTRUCTURE
     1 4AU         1 TEMP              0 ****  ****    0 ROOT
