@<TRIPOS>MOLECULE
4AU
   25    27     1     0     0
SMALL
bcc


@<TRIPOS>ATOM
      1 C1         -4.5320    0.0240   -0.0010 ca        1 4AU     -0.104000
      2 C2         -3.6220   -1.0180   -0.0010 ca        1 4AU     -0.133000
      3 C3         -2.2590   -0.6830   -0.0000 ca        1 4AU     -0.063200
      4 C4         -1.8220    0.7050   -0.0000 ca        1 4AU      0.061400
      5 C5         -2.7840    1.7300   -0.0000 ca        1 4AU     -0.066000
      6 C6         -4.1200    1.3730   -0.0010 ca        1 4AU     -0.152000
      7 C8         -0.0110   -0.5410    0.0000 cc        1 4AU      0.347800
      8 N17        -1.0970   -1.4470   -0.0000 na        1 4AU     -0.243300
      9 C10         1.3920   -1.0540    0.0000 c         1 4AU      0.559400
     10 C11         2.5000   -0.1190    0.0000 cc        1 4AU     -0.228900
     11 C12         3.8700   -0.4970    0.0000 cd        1 4AU     -0.097000
     12 C13         4.6390    0.6970    0.0000 cd        1 4AU     -0.223000
     13 C14         3.7270    1.7760   -0.0000 cc        1 4AU     -0.120300
     14 N7          2.4420    1.2790   -0.0000 na        1 4AU     -0.126100
     15 N9         -0.4210    0.7480    0.0000 nd        1 4AU     -0.572100
     16 O16         1.5780   -2.2820    0.0010 o         1 4AU     -0.546100
     17 H21         1.6120    1.8210   -0.0000 hn        1 4AU      0.326700
     18 H23         4.2320   -1.5220    0.0010 ha        1 4AU      0.168000
     19 H24         5.7210    0.7760    0.0000 ha        1 4AU      0.158000
     20 H25         3.9240    2.8490   -0.0000 h4        1 4AU      0.171000
     21 H26        -1.0170   -2.4310   -0.0000 hn        1 4AU      0.325700
     22 H1         -5.6100   -0.2000   -0.0010 ha        1 4AU      0.136000
     23 H2         -3.9490   -2.0670   -0.0010 ha        1 4AU      0.141000
     24 H6         -4.8910    2.1590   -0.0010 ha        1 4AU      0.136000
     25 H5         -2.4710    2.7840   -0.0000 ha        1 4AU      0.147000
@<TRIPOS>BOND
     1    1    2 ar  
     2    1    6 ar  
     3    1   22 1   
     4    2    3 ar  
     5    2   23 1   
     6    3    4 ar  
     7    3    8 1   
     8    4    5 ar  
     9    4   15 1   
    10    5    6 ar  
    11    5   25 1   
    12    6   24 1   
    13    7    8 1   
    14    7    9 1   
    15    7   15 2   
    16    8   21 1   
    17    9   10 1   
    18    9   16 2   
    19   10   11 2   
    20   10   14 1   
    21   11   12 1   
    22   11   18 1   
    23   12   13 2   
    24   12   19 1   
    25   13   14 1   
    26   13   20 1   
    27   14   17 1   
@<TRIPOS>SUBSTRUCTURE
     1 4AU         1 TEMP              0 ****  ****    0 ROOT
