@<TRIPOS>MOLECULE
4AW
   25    26     1     0     0
SMALL
bcc


@<TRIPOS>ATOM
      1 N           2.2770   -0.0630    1.6240 n3        1 4AW     -0.902800
      2 CA          2.2060   -0.3190    0.1910 c3        1 4AW      0.014500
      3 C           3.4730    0.1360   -0.6120 c         1 4AW      0.891600
      4 O           4.4280    0.6540    0.0340 o         1 4AW     -0.840300
      5 CB          0.9740    0.2910   -0.4820 c3        1 4AW     -0.012200
      6 CG         -0.3040   -0.2360    0.0140 cc        1 4AW     -0.194000
      7 CD1        -0.5050   -1.2600    0.9330 cd        1 4AW     -0.103100
      8 CD2        -1.6330    0.2290   -0.3850 ca        1 4AW      0.410100
      9 NE1        -1.8760   -1.5240    1.1100 na        1 4AW     -0.196400
     10 CE2        -2.5910   -0.5910    0.3620 ca        1 4AW     -0.170500
     11 NE3        -2.0200    1.1940   -1.2450 nb        1 4AW     -0.612000
     12 CZ2        -3.9630   -0.3730    0.1920 ca        1 4AW     -0.121000
     13 CZ3        -3.3430    1.3730   -1.3770 ca        1 4AW      0.354200
     14 CH2        -4.3360    0.6310   -0.6940 ca        1 4AW     -0.250300
     15 OXT         3.4750   -0.0680   -1.8570 o         1 4AW     -0.840300
     16 H           3.2400   -0.1810    1.8990 hn        1 4AW      0.334300
     17 H2          2.0550    0.9030    1.7900 hn        1 4AW      0.334300
     18 HA          2.1520   -1.4420    0.0750 h1        1 4AW      0.038700
     19 HB2         0.9830    1.4080   -0.3600 hc        1 4AW      0.072700
     20 HB3         1.0660    0.0830   -1.5860 hc        1 4AW      0.072700
     21 HD1         0.2460   -1.8450    1.4720 h4        1 4AW      0.190000
     22 HE1        -2.2480   -2.0010    1.8870 hn        1 4AW      0.279700
     23 HZ2        -4.7110   -0.9670    0.7320 ha        1 4AW      0.121000
     24 HZ3        -3.6420    2.1670   -2.0830 h4        1 4AW      0.006100
     25 HH2        -5.3950    0.8530   -0.8700 ha        1 4AW      0.124000
@<TRIPOS>BOND
     1    1    2 1   
     2    1   16 1   
     3    1   17 1   
     4    2    3 1   
     5    2    5 1   
     6    2   18 1   
     7    3    4 1   
     8    3   15 1   
     9    5    6 1   
    10    5   19 1   
    11    5   20 1   
    12    6    7 2   
    13    6    8 1   
    14    7    9 1   
    15    7   21 1   
    16    8   10 ar  
    17    8   11 ar  
    18    9   10 1   
    19    9   22 1   
    20   10   12 ar  
    21   11   13 ar  
    22   12   14 ar  
    23   12   23 1   
    24   13   14 ar  
    25   13   24 1   
    26   14   25 1   
@<TRIPOS>SUBSTRUCTURE
     1 4AW         1 TEMP              0 ****  ****    0 ROOT
