@<TRIPOS>MOLECULE
4AW
   25    21     1     0     0
SMALL
bcc


@<TRIPOS>ATOM
      1 N          -2.5330    1.0460    2.2280 n3        1 4AW     -0.902800
      2 CA         -1.5460    0.1480    1.7360 c3        1 4AW      0.014500
      3 C          -1.3280   -0.9600    2.7400 c         1 4AW      0.891600
      4 O          -1.6600   -2.1410    2.4560 o         1 4AW     -0.840300
      5 CB         -0.2490    0.8940    1.5190 c3        1 4AW     -0.012200
      6 CG          0.1900    0.7340    0.0800 ce        1 4AW     -0.114000
      7 CD1         0.5780    1.9500   -0.4460 c1        1 4AW      0.207500
      8 CD2         0.6080   -0.2560   -0.7830 cg        1 4AW     -0.061300
      9 NE1         1.2300    1.7120   -1.6240 nf        1 4AW     -0.491400
     10 CE2         1.2500    0.3440   -1.8350 ch        1 4AW     -0.008000
     11 NE3         0.4900   -1.6330   -0.7390 n1        1 4AW     -0.411800
     12 CZ2         1.7790   -0.4300   -2.8540 c1        1 4AW     -0.095500
     13 CZ3         1.0120   -2.3950   -1.7420 c1        1 4AW      0.272300
     14 CH2         1.6620   -1.7900   -2.8090 c1        1 4AW     -0.095500
     15 OXT        -0.8270   -0.7010    3.8650 o         1 4AW     -0.840300
     16 H          -2.9380    0.6810    2.9640 hn        1 4AW      0.334300
     17 H2         -3.1600    1.1970    1.5770 hn        1 4AW      0.334300
     18 HA         -1.8470   -0.2350    0.8880 h1        1 4AW      0.038700
     19 HB2         0.4390    0.5300    2.1120 hc        1 4AW      0.072700
     20 HB3        -0.3820    1.8430    1.7160 hc        1 4AW      0.072700
     21 HD1         0.4260    2.8250   -0.0410 DU        1 4AW      0.210000
     22 HE1         1.5890    2.3440   -2.1750 DU        1 4AW      0.210000
     23 HZ2         2.2370   -0.0030   -3.6040 ha        1 4AW      0.065000
     24 HZ3         0.9450   -3.3680   -1.7010 ha        1 4AW      0.085500
     25 HH2         2.0350   -2.3360   -3.5270 ha        1 4AW      0.065000
@<TRIPOS>BOND
     1    1    2 1   
     2    1   16 1   
     3    1   17 1   
     4    2    3 1   
     5    2    5 1   
     6    2   18 1   
     7    3    4 1   
     8    3   15 1   
     9    5    6 1   
    10    5   19 1   
    11    5   20 1   
    12    6    7 2   
    13    6    8 1   
    14    7    9 2   
    15    8   10 3   
    16    9   10 1   
    17   11   13 3   
    18   12   14 3   
    19   12   23 1   
    20   13   24 1   
    21   14   25 1   
@<TRIPOS>SUBSTRUCTURE
     1 4AW         1 TEMP              0 ****  ****    0 ROOT
