@<TRIPOS>MOLECULE
4AX
   14    14     1     0     0
SMALL
bcc


@<TRIPOS>ATOM
      1 OG          0.0320    0.4960    0.0490 o         1 4AX     -0.506500
      2 O           3.2770   -0.4730    0.7820 os        1 4AX     -0.213900
      3 N           0.9200    1.2300    2.7890 n4        1 4AX     -0.822600
      4 NXT         2.3710    0.0420   -0.0790 n         1 4AX     -0.300400
      5 CA          1.3190   -0.0150    2.0800 c3        1 4AX     -0.033500
      6 CB          2.8140   -0.3700    2.1630 c3        1 4AX      0.092400
      7 C3          1.1050    0.1520    0.5360 c         1 4AX      0.620500
      8 H          -0.0130    1.5170    2.4540 hn        1 4AX      0.474800
      9 HN2         1.5890    1.9850    2.5930 hn        1 4AX      0.474800
     10 HXT         2.4260   -0.4560   -0.9630 hn        1 4AX      0.362500
     11 HA          0.6700   -0.8590    2.4550 hx        1 4AX      0.155700
     12 HB1         3.4520    0.3980    2.6690 h1        1 4AX      0.110700
     13 HB2         2.9840   -1.3850    2.6090 h1        1 4AX      0.110700
     14 HN3         0.8840    1.0680    3.8010 hn        1 4AX      0.474800
@<TRIPOS>BOND
     1    1    7 2   
     2    2    4 1   
     3    2    6 1   
     4    3    5 1   
     5    3    8 1   
     6    3    9 1   
     7    3   14 1   
     8    4    7 1   
     9    4   10 1   
    10    5    6 1   
    11    5    7 1   
    12    5   11 1   
    13    6   12 1   
    14    6   13 1   
@<TRIPOS>SUBSTRUCTURE
     1 4AX         1 TEMP              0 ****  ****    0 ROOT
