@<TRIPOS>MOLECULE
4AX
   13    13     1     0     0
SMALL
bcc


@<TRIPOS>ATOM
      1 OG         -1.2840    0.4650   -1.4430 o         1 4AX     -0.535500
      2 O           1.8410    0.4650   -0.3140 os        1 4AX     -0.267900
      3 N          -1.6880   -0.1510    0.7030 n3        1 4AX     -0.891800
      4 NXT         1.1020    0.4650   -1.4430 n         1 4AX     -0.330400
      5 CA         -0.3720   -0.2560    0.1640 c3        1 4AX      0.070500
      6 CB          1.0320   -0.1170    0.7180 c3        1 4AX      0.061400
      7 C3         -0.2990    0.4650   -1.0320 c         1 4AX      0.625500
      8 H          -1.9000   -0.9230    1.1390 hn        1 4AX      0.364300
      9 HN2        -1.7220    0.5490    1.2870 hn        1 4AX      0.364300
     10 HXT         1.3960    0.7760   -2.2480 hn        1 4AX      0.297500
     11 HA         -0.5140   -1.2090    0.0070 h1        1 4AX      0.106700
     12 HB1         1.0250    0.4650    1.5020 h1        1 4AX      0.067200
     13 HB2         1.3830   -0.9950    0.9590 h1        1 4AX      0.067200
@<TRIPOS>BOND
     1    1    7 2   
     2    2    4 1   
     3    2    6 1   
     4    3    5 1   
     5    3    8 1   
     6    3    9 1   
     7    4    7 1   
     8    4   10 1   
     9    5    6 1   
    10    5    7 1   
    11    5   11 1   
    12    6   12 1   
    13    6   13 1   
@<TRIPOS>SUBSTRUCTURE
     1 4AX         1 TEMP              0 ****  ****    0 ROOT
