@<TRIPOS>MOLECULE
4AX
   13    13     1     0     0
SMALL
bcc


@<TRIPOS>ATOM
      1 OG          0.0010   -0.1860    2.0560 o         1 4AX     -0.563500
      2 O           1.3320    0.1370   -1.1170 os        1 4AX     -0.267900
      3 N          -1.9750   -0.4640   -0.2120 n3        1 4AX     -0.907800
      4 NXT         1.4840    0.0380    0.2240 n         1 4AX     -0.319400
      5 CA         -0.8660    0.4580   -0.1750 c3        1 4AX      0.065500
      6 CB         -0.0400    0.4870   -1.4810 c3        1 4AX      0.108400
      7 C3          0.2020    0.0300    0.8610 c         1 4AX      0.631500
      8 H          -2.2340   -0.7410    0.7160 hn        1 4AX      0.371300
      9 HN2        -2.7570   -0.0490   -0.6770 hn        1 4AX      0.371300
     10 HXT         2.0520   -0.7780    0.4240 hn        1 4AX      0.300500
     11 HA         -1.1780    1.5130    0.0850 h1        1 4AX      0.062700
     12 HB1        -0.3530   -0.2700   -2.2410 h1        1 4AX      0.074200
     13 HB2         0.0020    1.5110   -1.9240 h1        1 4AX      0.074200
@<TRIPOS>BOND
     1    1    7 2   
     2    2    4 1   
     3    2    6 1   
     4    3    5 1   
     5    3    8 1   
     6    3    9 1   
     7    4    7 1   
     8    4   10 1   
     9    5    6 1   
    10    5    7 1   
    11    5   11 1   
    12    6   12 1   
    13    6   13 1   
@<TRIPOS>SUBSTRUCTURE
     1 4AX         1 TEMP              0 ****  ****    0 ROOT
