@<TRIPOS>MOLECULE
4AX
   14    14     1     0     0
SMALL
bcc


@<TRIPOS>ATOM
      1 OG          0.0290    0.4470    0.0430 o         1 4AX     -0.506500
      2 O           3.2980   -0.4440    0.7700 os        1 4AX     -0.213900
      3 N           0.9030    1.1960    2.7840 nz        1 4AX     -0.822600
      4 NXT         2.3790    0.0510   -0.0880 ns        1 4AX     -0.300400
      5 CA          1.3310   -0.0360    2.0710 c3        1 4AX     -0.033500
      6 CB          2.8340   -0.3560    2.1510 c3        1 4AX      0.092400
      7 C3          1.1110    0.1280    0.5280 c         1 4AX      0.620500
      8 H           0.8720    1.0310    3.7950 hn        1 4AX      0.474800
      9 HN2         1.5530    1.9670    2.5880 hn        1 4AX      0.474800
     10 HXT         2.4450   -0.4430   -0.9750 hn        1 4AX      0.362500
     11 HA          0.7030   -0.8970    2.4450 hx        1 4AX      0.155700
     12 HB1         3.4540    0.4260    2.6590 h1        1 4AX      0.110700
     13 HB2         3.0290   -1.3670    2.5950 h1        1 4AX      0.110700
     14 HN3        -0.0370    1.4610    2.4500 hn        1 4AX      0.474800
@<TRIPOS>BOND
     1    1    7 2   
     2    2    4 1   
     3    2    6 1   
     4    3    5 1   
     5    3    8 1   
     6    3    9 1   
     7    3   14 1   
     8    4    7 1   
     9    4   10 1   
    10    5    6 1   
    11    5    7 1   
    12    5   11 1   
    13    6   12 1   
    14    6   13 1   
@<TRIPOS>SUBSTRUCTURE
     1 4AX         1 TEMP              0 ****  ****    0 ROOT
