@<TRIPOS>MOLECULE
4AX
   14    14     1     0     0
SMALL
bcc


@<TRIPOS>ATOM
      1 OG          0.0290    0.4160    0.0390 o         1 4AX     -0.506500
      2 O           3.3070   -0.4310    0.7760 os        1 4AX     -0.213900
      3 N           0.8900    1.1940    2.7760 n4        1 4AX     -0.822600
      4 NXT         2.3830    0.0470   -0.0870 n         1 4AX     -0.300400
      5 CA          1.3330   -0.0380    2.0720 c3        1 4AX     -0.033500
      6 CB          2.8410   -0.3400    2.1560 c3        1 4AX      0.092400
      7 C3          1.1130    0.1130    0.5280 c         1 4AX      0.620500
      8 H          -0.0520    1.4460    2.4400 hn        1 4AX      0.474800
      9 HN2         0.8610    1.0360    3.7890 hn        1 4AX      0.474800
     10 HXT         2.4550   -0.4520   -0.9700 hn        1 4AX      0.362500
     11 HA          0.7150   -0.9040    2.4510 hx        1 4AX      0.155700
     12 HB1         3.0470   -1.3460    2.6060 h1        1 4AX      0.110700
     13 HB2         3.4500    0.4520    2.6590 h1        1 4AX      0.110700
     14 HN3         1.5320    1.9720    2.5760 hn        1 4AX      0.474800
@<TRIPOS>BOND
     1    1    7 2   
     2    2    4 1   
     3    2    6 1   
     4    3    5 1   
     5    3    8 1   
     6    3    9 1   
     7    3   14 1   
     8    4    7 1   
     9    4   10 1   
    10    5    6 1   
    11    5    7 1   
    12    5   11 1   
    13    6   12 1   
    14    6   13 1   
@<TRIPOS>SUBSTRUCTURE
     1 4AX         1 TEMP              0 ****  ****    0 ROOT
