@<TRIPOS>MOLECULE
4AZ
   19    16     1     0     0
SMALL
bcc


@<TRIPOS>ATOM
      1 C          -0.3720   -0.1210    1.0150 c1        1 4AZ      0.345000
      2 OXT         0.8960   -0.0970    1.0030 o         1 4AZ     -0.399000
      3 C1         -1.1100   -0.1550    2.3210 c1        1 4AZ     -0.453000
      4 N1          0.1230    0.3420   -2.5150 n3        1 4AZ     -0.340000
      5 C2         -0.8290    1.0870    1.7530 c2        1 4AZ      0.107000
      6 C3         -0.1550    1.1610    0.5330 c1        1 4AZ     -0.481000
      7 C4          0.2370   -0.0090   -0.1180 c1        1 4AZ      0.266000
      8 C5         -0.0440   -1.2520    0.4510 c1        1 4AZ     -0.386000
      9 C6         -0.7170   -1.3240    1.6700 c1        1 4AZ     -0.020000
     10 C7          1.0250    0.0730   -1.4330 c3        1 4AZ     -0.128000
     11 O          -1.0150   -0.1540   -0.0770 o         1 4AZ     -0.399000
     12 HN1         0.3740    1.1170   -2.9380 hn        1 4AZ      0.142500
     13 HN1A        0.1460   -0.3540   -3.1130 hn        1 4AZ      0.142500
     14 H2         -1.1130    1.9110    2.2080 ha        1 4AZ      0.065000
     15 H3          0.0570    2.0380    0.1410 ha        1 4AZ      0.102000
     16 H5          0.2450   -2.0760   -0.0020 ha        1 4AZ      0.133000
     17 H6         -0.9220   -2.2000    2.0670 ha        1 4AZ      0.115000
     18 H7          1.6890    0.7960   -1.3730 h1        1 4AZ      0.093500
     19 H7A         1.4840   -0.7810   -1.5940 h1        1 4AZ      0.093500
@<TRIPOS>BOND
     1    1    2 1   
     2    1   11 1   
     3    3    5 1   
     4    3    9 1   
     5    4   10 1   
     6    4   12 1   
     7    4   13 1   
     8    5    6 1   
     9    5   14 1   
    10    6   15 1   
    11    7    8 1   
    12    7   10 1   
    13    8   16 1   
    14    9   17 1   
    15   10   18 1   
    16   10   19 1   
@<TRIPOS>SUBSTRUCTURE
     1 4AZ         1 TEMP              0 ****  ****    0 ROOT
