@<TRIPOS>MOLECULE
4AZ
   19    19     1     0     0
SMALL
bcc


@<TRIPOS>ATOM
      1 C           2.5210    0.0710    0.1060 c         1 4AZ      0.906200
      2 OXT         3.1520   -1.0220    0.1460 o         1 4AZ     -0.830800
      3 C1          1.0070    0.0150   -0.0410 ca        1 4AZ     -0.117600
      4 N1         -4.0380    0.3910    0.6690 n3        1 4AZ     -0.904800
      5 C2          0.3480   -1.2150   -0.1250 ca        1 4AZ     -0.109000
      6 C3         -1.0390   -1.2680   -0.2540 ca        1 4AZ     -0.153500
      7 C4         -1.7870   -0.0880   -0.3040 ca        1 4AZ     -0.166300
      8 C5         -1.1290    1.1440   -0.2260 ca        1 4AZ     -0.153500
      9 C6          0.2560    1.1940   -0.0950 ca        1 4AZ     -0.109000
     10 C7         -3.2800   -0.1340   -0.4450 c3        1 4AZ      0.199100
     11 O           3.0650    1.2090    0.1830 o         1 4AZ     -0.830800
     12 HN1        -3.8460   -0.1410    1.4970 hn        1 4AZ      0.337800
     13 HN1A       -3.7670    1.3410    0.8500 hn        1 4AZ      0.337800
     14 H2          0.9530   -2.1350   -0.0850 ha        1 4AZ      0.151000
     15 H3         -1.5480   -2.2410   -0.3170 ha        1 4AZ      0.103500
     16 H5         -1.7120    2.0750   -0.2740 ha        1 4AZ      0.103500
     17 H6          0.7910    2.1550   -0.0310 ha        1 4AZ      0.151000
     18 H7         -3.6110   -1.1980   -0.6110 h1        1 4AZ      0.042700
     19 H7A        -3.5720    0.4580   -1.3600 h1        1 4AZ      0.042700
@<TRIPOS>BOND
     1    1    2 1   
     2    1    3 1   
     3    1   11 1   
     4    3    5 ar  
     5    3    9 ar  
     6    4   10 1   
     7    4   12 1   
     8    4   13 1   
     9    5    6 ar  
    10    5   14 1   
    11    6    7 ar  
    12    6   15 1   
    13    7    8 ar  
    14    7   10 1   
    15    8    9 ar  
    16    8   16 1   
    17    9   17 1   
    18   10   18 1   
    19   10   19 1   
@<TRIPOS>SUBSTRUCTURE
     1 4AZ         1 TEMP              0 ****  ****    0 ROOT
