@<TRIPOS>MOLECULE
4AZ
   20    20     1     0     0
SMALL
bcc


@<TRIPOS>ATOM
      1 C           0.0100    0.0710   -0.0480 c         1 4AZ      0.907200
      2 OXT         1.2640    0.1150    0.0270 o         1 4AZ     -0.789300
      3 C1         -0.7540   -0.0200    1.2840 ca        1 4AZ     -0.065600
      4 N1         -3.1020    1.4260    5.3590 n4        1 4AZ     -0.855600
      5 C2         -2.1550   -0.0560    1.2910 ca        1 4AZ     -0.110000
      6 C3         -2.8500   -0.0790    2.4930 ca        1 4AZ     -0.121000
      7 C4         -2.1430   -0.0710    3.7060 ca        1 4AZ     -0.256300
      8 C5         -0.7390   -0.0690    3.7040 ca        1 4AZ     -0.121000
      9 C6         -0.0530   -0.0450    2.4970 ca        1 4AZ     -0.110000
     10 C7         -2.8780   -0.0250    4.9850 c3        1 4AZ      0.201100
     11 O          -0.6880    0.1070   -1.0930 o         1 4AZ     -0.789300
     12 HN1        -3.6070    1.5100    6.2390 hn        1 4AZ      0.445467
     13 HN1A       -3.6300    1.8840    4.6100 hn        1 4AZ      0.445467
     14 H2         -2.6760   -0.0600    0.3170 ha        1 4AZ      0.181000
     15 H3         -3.9490   -0.1150    2.4970 ha        1 4AZ      0.112000
     16 H5         -0.1890   -0.0960    4.6550 ha        1 4AZ      0.112000
     17 H6          1.0510   -0.0410    2.4560 ha        1 4AZ      0.181000
     18 H7         -2.2960   -0.4960    5.8270 hx        1 4AZ      0.093700
     19 H7A        -3.8930   -0.5060    4.9100 hx        1 4AZ      0.093700
     20 H13        -2.1930    1.8930    5.4350 hn        1 4AZ      0.445467
@<TRIPOS>BOND
     1    1    2 1   
     2    1    3 1   
     3    1   11 1   
     4    3    5 ar  
     5    3    9 ar  
     6    4   10 1   
     7    4   12 1   
     8    4   13 1   
     9    4   20 1   
    10    5    6 ar  
    11    5   14 1   
    12    6    7 ar  
    13    6   15 1   
    14    7    8 ar  
    15    7   10 1   
    16    8    9 ar  
    17    8   16 1   
    18    9   17 1   
    19   10   18 1   
    20   10   19 1   
@<TRIPOS>SUBSTRUCTURE
     1 4AZ         1 TEMP              0 ****  ****    0 ROOT
