@<TRIPOS>MOLECULE
4B0
   24    25     1     0     0
SMALL
bcc


@<TRIPOS>ATOM
      1 OAA         0.0820    1.2090   -0.8580 oh        1 4B0     -0.795000
      2 BRAC        4.4320    5.3190    3.7910 br        1 4B0     -0.024100
      3 BRAD        6.1020    1.2340    7.3620 br        1 4B0     -0.008100
      4 BRAE        3.2980    3.1130    1.6790 br        1 4B0     -0.028100
      5 CAF         1.7080   -0.3190    1.6430 cx        1 4B0     -0.121400
      6 CAG         2.5620   -1.5200    1.3740 cx        1 4B0     -0.121400
      7 CAH         3.2180   -0.2070    1.7500 cx        1 4B0     -0.022000
      8 NAI         4.7970   -0.6120    4.8950 nc        1 4B0     -0.195400
      9 NAJ         4.2520   -1.0330    3.8390 nd        1 4B0     -0.116400
     10 CAK         5.1800    3.1100    5.4120 ca        1 4B0     -0.026900
     11 CAL         4.5770    3.4970    4.1910 ca        1 4B0      0.035100
     12 CAM         5.3130    1.7660    5.7630 ca        1 4B0      0.079100
     13 CAN         4.0860    2.5630    3.2750 ca        1 4B0     -0.003900
     14 CAO         4.8270    0.8130    4.8640 ca        1 4B0      0.026400
     15 CAP         4.2120    1.2080    3.6110 ca        1 4B0     -0.030200
     16 NAQ         3.8810   -0.0200    3.0070 na        1 4B0      0.097900
     17 HOAA       -0.4810    1.9520   -0.6230 ho        1 4B0      0.398000
     18 HAF        -0.3900    0.7870   -1.5830 ho        1 4B0      0.398000
     19 HAFA        1.2160    0.2070    0.8000 hc        1 4B0      0.092950
     20 HAG         1.0920   -0.3000    2.5590 hc        1 4B0      0.092950
     21 HAGA        2.7010   -1.8700    0.3350 hc        1 4B0      0.092950
     22 HAH         2.5500   -2.3600    2.0920 hc        1 4B0      0.092950
     23 HAHA        3.7640    0.3500    0.9530 h1        1 4B0      0.111700
     24 BRAB        5.8120    4.4220    6.5820 br        1 4B0     -0.025100
@<TRIPOS>BOND
     1    1   17 1   
     2    1   18 1   
     3    2   11 1   
     4    3   12 1   
     5    4   13 1   
     6    5    6 1   
     7    5    7 1   
     8    5   19 1   
     9    5   20 1   
    10    6    7 1   
    11    6   21 1   
    12    6   22 1   
    13    7   16 1   
    14    7   23 1   
    15    8    9 2   
    16    8   14 1   
    17    9   16 1   
    18   10   11 ar  
    19   10   12 ar  
    20   10   24 1   
    21   11   13 ar  
    22   12   14 ar  
    23   13   15 ar  
    24   14   15 ar  
    25   15   16 1   
@<TRIPOS>SUBSTRUCTURE
     1 4B0         1 TEMP              0 ****  ****    0 ROOT
