@<TRIPOS>MOLECULE
4B0
   24    25     1     0     0
SMALL
bcc


@<TRIPOS>ATOM
      1 OAA        -0.2670    0.6160    2.3810 oh        1 4B0     -0.796000
      2 BrAC        5.3810    5.1580    3.4180 br        1 4B0     -0.022100
      3 BrAD        4.1410    1.3270    7.4190 br        1 4B0     -0.009100
      4 BrAE        4.7210    3.0190    1.0550 br        1 4B0     -0.030100
      5 CAF         2.3620    0.0740    0.3970 cx        1 4B0     -0.119900
      6 CAG         2.9260   -1.3080    0.5260 cx        1 4B0     -0.119900
      7 CAH         3.6730   -0.1370    1.1330 cx        1 4B0     -0.025000
      8 NAI         3.5830   -0.4770    4.6580 nc        1 4B0     -0.199400
      9 NAJ         3.4590   -0.8990    3.4760 nd        1 4B0     -0.116400
     10 CAK         4.7120    3.0810    5.2340 ca        1 4B0     -0.026900
     11 CAL         4.8310    3.4270    3.8670 ca        1 4B0      0.035100
     12 CAM         4.3040    1.8050    5.6280 ca        1 4B0      0.077100
     13 CAN         4.5520    2.5190    2.8420 ca        1 4B0     -0.001900
     14 CAO         4.0140    0.8810    4.6220 ca        1 4B0      0.025400
     15 CAP         4.1400    1.2330    3.2200 ca        1 4B0     -0.030200
     16 NAQ         3.7870    0.0450    2.5510 na        1 4B0      0.102900
     17 HOAA       -0.4220   -0.0990    3.0050 ho        1 4B0      0.398500
     18 HAF        -0.4860    1.4070    2.8820 ho        1 4B0      0.398500
     19 HAFA        2.4050    0.5960   -0.5760 hc        1 4B0      0.093700
     20 HAG         1.4460    0.3310    0.9660 hc        1 4B0      0.093700
     21 HAGA        3.3900   -1.7950   -0.3510 hc        1 4B0      0.093700
     22 HAH         2.4110   -2.0370    1.1760 hc        1 4B0      0.093700
     23 HAHA        4.6180    0.1870    0.6410 h1        1 4B0      0.108700
     24 BrAB        5.1080    4.3530    6.5440 br        1 4B0     -0.024100
@<TRIPOS>BOND
     1    1   17 1   
     2    1   18 1   
     3    2   11 1   
     4    3   12 1   
     5    4   13 1   
     6    5    6 1   
     7    5    7 1   
     8    5   19 1   
     9    5   20 1   
    10    6    7 1   
    11    6   21 1   
    12    6   22 1   
    13    7   16 1   
    14    7   23 1   
    15    8    9 2   
    16    8   14 1   
    17    9   16 1   
    18   10   11 ar  
    19   10   12 ar  
    20   10   24 1   
    21   11   13 ar  
    22   12   14 ar  
    23   13   15 ar  
    24   14   15 ar  
    25   15   16 1   
@<TRIPOS>SUBSTRUCTURE
     1 4B0         1 TEMP              0 ****  ****    0 ROOT
