@<TRIPOS>MOLECULE
4B0
   24    25     1     0     0
SMALL
bcc


@<TRIPOS>ATOM
      1 OAA         6.2780   -1.1520   -1.7570 oh        1 4B0     -0.594800
      2 BRAC       -0.7250    2.8040    0.0340 br        1 4B0     -0.019100
      3 BRAD       -2.8450   -2.4560   -0.1550 br        1 4B0     -0.004100
      4 BRAE        2.2710    1.6690    0.5510 br        1 4B0     -0.034100
      5 CAF         5.6890   -1.1840   -0.4680 c3        1 4B0      0.135400
      6 CAG         4.2120   -1.4810   -0.6720 c3        1 4B0     -0.111400
      7 CAH         3.5130   -1.4820    0.6840 c3        1 4B0      0.050300
      8 NAI         0.3850   -3.1270    0.3680 nc        1 4B0     -0.188400
      9 NAJ         1.6280   -3.0770    0.5600 nd        1 4B0     -0.117400
     10 CAK        -1.5520    0.0910   -0.0270 ca        1 4B0     -0.026900
     11 CAL        -0.4450    0.9560    0.1270 ca        1 4B0      0.039100
     12 CAM        -1.4030   -1.2960    0.0340 ca        1 4B0      0.080100
     13 CAN         0.8510    0.4780    0.3450 ca        1 4B0     -0.007900
     14 CAO        -0.1170   -1.7970    0.2450 ca        1 4B0      0.027400
     15 CAP         1.0230   -0.9120    0.4000 ca        1 4B0     -0.031200
     16 NAQ         2.0980   -1.7960    0.6250 na        1 4B0      0.064900
     17 HOAA        7.2200   -0.9900   -1.6260 ho        1 4B0      0.405000
     18 HAF         6.1710   -1.9840    0.1570 h1        1 4B0      0.023700
     19 HAFA        5.8290   -0.1920    0.0420 h1        1 4B0      0.023700
     20 HAG         3.7700   -0.7060   -1.3510 hc        1 4B0      0.075200
     21 HAGA        4.1010   -2.4740   -1.1800 hc        1 4B0      0.075200
     22 HAH         4.0070   -2.2470    1.3540 h1        1 4B0      0.078700
     23 HAHA        3.6150   -0.4700    1.1700 h1        1 4B0      0.078700
     24 BRAB       -3.2520    0.8100   -0.3160 br        1 4B0     -0.021100
@<TRIPOS>BOND
     1    1    5 1   
     2    1   17 1   
     3    2   11 1   
     4    3   12 1   
     5    4   13 1   
     6    5    6 1   
     7    5   18 1   
     8    5   19 1   
     9    6    7 1   
    10    6   20 1   
    11    6   21 1   
    12    7   16 1   
    13    7   22 1   
    14    7   23 1   
    15    8    9 2   
    16    8   14 1   
    17    9   16 1   
    18   10   11 ar  
    19   10   12 ar  
    20   10   24 1   
    21   11   13 ar  
    22   12   14 ar  
    23   13   15 ar  
    24   14   15 ar  
    25   15   16 1   
@<TRIPOS>SUBSTRUCTURE
     1 4B0         1 TEMP              0 ****  ****    0 ROOT
