@<TRIPOS>MOLECULE
4B0
   24    24     1     0     0
SMALL
bcc


@<TRIPOS>ATOM
      1 OAA        -2.8900   -3.7100   -1.3840 oh        1 4B0     -0.322000
      2 BRAB        2.6110    4.7180    2.5150 br        1 4B0      0.119000
      3 BRAC        1.6440    5.0260   -0.3880 br        1 4B0      0.121000
      4 BRAD        2.4790    2.2220    4.0990 br        1 4B0      0.136000
      5 BRAE        0.3880    2.9080   -1.9670 br        1 4B0      0.106000
      6 CAF        -1.7930   -2.8900   -1.7340 c3        1 4B0     -0.015000
      7 CAG        -1.4990   -1.9170   -0.5930 c3        1 4B0     -0.190000
      8 CAH        -0.2660   -1.0720   -0.9440 c3        1 4B0     -0.009000
      9 NAI         0.9200   -0.3530    2.2500 n2        1 4B0     -0.049000
     10 NAJ         0.2610   -1.0660    1.2830 n2        1 4B0      0.062000
     11 CAK         1.8870    3.2020    1.5940 c2        1 4B0     -0.167000
     12 CAL         1.3740    3.2630    0.3050 c2        1 4B0     -0.101000
     13 CAM         1.7890    2.0270    2.3260 c2        1 4B0     -0.060000
     14 CAN         0.7610    2.1460   -0.2530 c2        1 4B0     -0.148000
     15 CAO         1.1670    0.8920    1.7600 c2        1 4B0     -0.112000
     16 CAP         0.6600    0.9530    0.4880 c1        1 4B0      0.014000
     17 NAQ         0.1020   -0.2590    0.1980 n2        1 4B0     -0.179000
     18 HOAA       -2.9950   -4.3480   -2.0030 ho        1 4B0      0.204000
     19 HAF        -1.0050   -3.4510   -1.8980 h1        1 4B0      0.063000
     20 HAFA       -2.0080   -2.3850   -2.5450 h1        1 4B0      0.063000
     21 HAG        -1.3260   -2.4220    0.2290 hc        1 4B0      0.114500
     22 HAGA       -2.2690   -1.3300   -0.4590 hc        1 4B0      0.114500
     23 HAH        -0.4730   -0.4920   -1.7030 h1        1 4B0      0.118000
     24 HAHA        0.4800   -1.6630   -1.1780 h1        1 4B0      0.118000
@<TRIPOS>BOND
     1    1    6 1   
     2    1   18 1   
     3    2   11 1   
     4    3   12 1   
     5    4   13 1   
     6    5   14 1   
     7    6    7 1   
     8    6   19 1   
     9    6   20 1   
    10    7    8 1   
    11    7   21 1   
    12    7   22 1   
    13    8   17 1   
    14    8   23 1   
    15    8   24 1   
    16    9   10 1   
    17    9   15 1   
    18   10   17 1   
    19   11   12 1   
    20   11   13 1   
    21   12   14 1   
    22   13   15 1   
    23   14   16 1   
    24   15   16 1   
@<TRIPOS>SUBSTRUCTURE
     1 4B0         1 TEMP              0 ****  ****    0 ROOT
