@<TRIPOS>MOLECULE
4B2
   37    39     1     0     0
SMALL
bcc


@<TRIPOS>ATOM
      1 C7         -0.0040   -0.0150    0.0080 ca        1 4B2     -0.144300
      2 C1          0.0820   -0.0260    2.4640 cp        1 4B2     -0.062000
      3 C5          1.4130   -0.0040   -0.0160 ca        1 4B2      0.163900
      4 C4          2.1530   -0.0030    1.1750 ca        1 4B2     -0.193000
      5 C2          1.4950   -0.0150    2.4150 ca        1 4B2      0.188900
      6 F3          2.2350   -0.0100    3.5450 f         1 4B2     -0.107900
      7 F6          2.1050    0.0040   -1.1810 f         1 4B2     -0.129900
      8 C8         -0.6290   -0.0300    1.2570 ca        1 4B2     -0.063000
      9 C9         -0.8010   -0.0300   -1.2930 c3        1 4B2      0.223500
     10 C10        -0.4270   -1.3060   -2.0810 c3        1 4B2     -0.104100
     11 C11        -0.4020    1.2270   -2.1120 c3        1 4B2     -0.127400
     12 C12        -1.2120    1.4290   -3.3600 c3        1 4B2     -0.019300
     13 S13        -2.9530    1.6110   -3.0590 ss        1 4B2     -0.158300
     14 C14        -3.1130    0.5610   -1.7070 c2        1 4B2      0.490100
     15 N15        -2.2410   -0.0760   -1.0110 n2        1 4B2     -0.560900
     16 N16        -4.5430    0.3910   -1.2970 n4        1 4B2     -0.805600
     17 C17        -0.6500   -0.0330    3.7190 cp        1 4B2     -0.292600
     18 C18        -0.2720   -0.8400    4.8220 ca        1 4B2      0.446700
     19 N19        -0.9730   -0.8630    5.9700 nb        1 4B2     -0.681500
     20 C20        -2.0730   -0.0640    6.0230 ca        1 4B2      0.647900
     21 N21        -2.5270    0.7560    5.0340 nb        1 4B2     -0.681500
     22 C22        -1.8060    0.7640    3.8970 ca        1 4B2      0.446700
     23 H1          3.2550    0.0070    1.1360 ha        1 4B2      0.186000
     24 H2         -1.7280   -0.0610    1.3370 ha        1 4B2      0.144000
     25 H3          0.6600   -1.2670   -2.3390 hc        1 4B2      0.069700
     26 H4         -0.6130   -2.2160   -1.4620 hc        1 4B2      0.069700
     27 H5         -1.0130   -1.3810   -3.0280 hc        1 4B2      0.069700
     28 H6          0.6780    1.1160   -2.4130 hc        1 4B2      0.101700
     29 H7         -0.4690    2.1330   -1.4520 hc        1 4B2      0.101700
     30 H8         -0.9120    2.3850   -3.8680 h1        1 4B2      0.114200
     31 H9         -1.0520    0.5890   -4.0820 h1        1 4B2      0.114200
     32 H10        -5.0780    0.0660   -2.1110 hn        1 4B2      0.473800
     33 H11        -4.6450   -0.2890   -0.5310 hn        1 4B2      0.473800
     34 H12         0.6290   -1.4810    4.7780 h4        1 4B2      0.031600
     35 H13        -2.6560   -0.0770    6.9690 h5        1 4B2      0.071100
     36 H14        -2.1560    1.4450    3.1010 h4        1 4B2      0.031600
     37 H163       -4.9060    1.3010   -0.9890 hn        1 4B2      0.473800
@<TRIPOS>BOND
     1    1    3 ar  
     2    1    8 ar  
     3    1    9 1   
     4    2    5 ar  
     5    2    8 ar  
     6    2   17 1   
     7    3    4 ar  
     8    3    7 1   
     9    4    5 ar  
    10    4   23 1   
    11    5    6 1   
    12    8   24 1   
    13    9   10 1   
    14    9   11 1   
    15    9   15 1   
    16   10   25 1   
    17   10   26 1   
    18   10   27 1   
    19   11   12 1   
    20   11   28 1   
    21   11   29 1   
    22   12   13 1   
    23   12   30 1   
    24   12   31 1   
    25   13   14 1   
    26   14   15 2   
    27   14   16 1   
    28   16   32 1   
    29   16   33 1   
    30   16   37 1   
    31   17   18 ar  
    32   17   22 ar  
    33   18   19 ar  
    34   18   34 1   
    35   19   20 ar  
    36   20   21 ar  
    37   20   35 1   
    38   21   22 ar  
    39   22   36 1   
@<TRIPOS>SUBSTRUCTURE
     1 4B2         1 TEMP              0 ****  ****    0 ROOT
