@<TRIPOS>MOLECULE
4B3
   57    53     1     0     0
SMALL
bcc


@<TRIPOS>ATOM
      1 S1          3.5150    2.3610   -1.2180 ss        1 4B3      0.565000
      2 C2          3.9610    3.7000   -1.8020 c1        1 4B3     -0.420000
      3 C3          3.1750    3.9450   -3.0140 c1        1 4B3      0.092000
      4 C4          2.1890    2.7250   -3.2210 c1        1 4B3     -0.184000
      5 C5          2.3970    1.7880   -2.1500 c2        1 4B3     -0.425000
      6 C6          4.9410    4.6980   -1.1400 c1        1 4B3      0.388000
      7 O7          4.4970    5.6450   -0.4460 o         1 4B3     -0.552500
      8 O8          6.2000    4.5230   -1.2480 o         1 4B3     -0.552500
      9 C9          1.7090    0.5750   -1.9690 c1        1 4B3      0.076000
     10 C10         0.5450    0.5420   -1.2070 c1        1 4B3     -0.161000
     11 C11        -0.1210   -0.6420   -1.0220 c1        1 4B3      0.007000
     12 C12         0.3630   -1.8130   -1.5940 c1        1 4B3     -0.172000
     13 C13         1.5270   -1.7870   -2.3560 c1        1 4B3     -0.139000
     14 C14         2.1980   -0.5990   -2.5440 c1        1 4B3     -0.139000
     15 BR1         0.9800    2.4940   -4.6900 br        1 4B3      0.040000
     16 O20         3.2600    5.0930   -3.8390 o         1 4B3     -0.170000
     17 C21         4.2050    4.9700   -4.9060 c3        1 4B3     -0.095000
     18 C22         4.4710    6.3470   -5.5160 c2        1 4B3      0.338000
     19 O25         5.6550    6.7540   -5.6620 o         1 4B3     -0.586000
     20 O26         3.4940    7.0790   -5.8890 o         1 4B3     -0.586000
     21 N27        -1.3780   -0.6500   -0.3480 n3        1 4B3     -0.255000
     22 C28        -1.4960   -1.2690    0.9430 c3        1 4B3     -0.014000
     23 C30        -2.4090   -0.3810    1.8370 c3        1 4B3     -0.164500
     24 C31        -2.7540   -1.0460    3.1520 c3        1 4B3     -0.045000
     25 C32        -3.3020   -2.4220    2.9680 c3        1 4B3     -0.136000
     26 C33        -2.3890   -3.3120    2.0720 c3        1 4B3     -0.045000
     27 C34        -2.0450   -2.6510    0.7610 c3        1 4B3     -0.164500
     28 C42        -3.8180   -0.1860    3.8970 c3        1 4B3     -0.204250
     29 C46        -1.4880   -1.1240    4.0150 c3        1 4B3     -0.204250
     30 C50        -1.1170   -3.6060    2.8150 c3        1 4B3     -0.204250
     31 C54        -3.1120   -4.6400    1.7870 c3        1 4B3     -0.204250
     32 H10         0.1960    1.3750   -0.7980 ha        1 4B3      0.149000
     33 H12        -0.1040   -2.6410   -1.4570 ha        1 4B3      0.115000
     34 H13         1.8870   -2.6600   -2.7830 ha        1 4B3      0.126000
     35 H14         3.0050   -0.5800   -3.0710 ha        1 4B3      0.126000
     36 H211        3.8360    4.3620   -5.6090 h1        1 4B3      0.093000
     37 H212        5.0730    4.5870   -4.5480 h1        1 4B3      0.093000
     38 HN27       -2.0640   -0.2220   -0.6940 hn        1 4B3      0.166000
     39 H28        -0.6270   -1.3270    1.3430 h1        1 4B3      0.100000
     40 H301       -3.2100   -0.1950    1.3670 hc        1 4B3      0.089250
     41 H302       -1.9590    0.4380    2.0150 hc        1 4B3      0.089250
     42 H321       -3.4020   -2.8570    3.8670 hc        1 4B3      0.072000
     43 H322       -4.1920   -2.3550    2.5440 hc        1 4B3      0.072000
     44 H341       -2.8390   -2.6010    0.2150 hc        1 4B3      0.089250
     45 H342       -1.3660   -3.2090    0.2880 hc        1 4B3      0.089250
     46 H421       -4.6750   -0.2110    3.3940 hc        1 4B3      0.071083
     47 H422       -3.9570   -0.5460    4.7920 hc        1 4B3      0.071083
     48 H423       -3.5060    0.7400    3.9620 hc        1 4B3      0.071083
     49 H461       -1.6050   -1.8450    4.7260 hc        1 4B3      0.071083
     50 H462       -1.3280   -0.2290    4.4630 hc        1 4B3      0.071083
     51 H463       -0.7330   -1.3410    3.4590 hc        1 4B3      0.071083
     52 H501       -1.3090   -3.6830    3.7900 hc        1 4B3      0.071083
     53 H502       -0.4760   -2.8780    2.6640 hc        1 4B3      0.071083
     54 H503       -0.7270   -4.4720    2.4810 hc        1 4B3      0.071083
     55 H541       -2.5090   -5.2410    1.2470 hc        1 4B3      0.071083
     56 H542       -3.9360   -4.4610    1.2800 hc        1 4B3      0.071083
     57 H543       -3.3290   -5.0610    2.5980 hc        1 4B3      0.071083
@<TRIPOS>BOND
     1    1    2 1   
     2    1    5 1   
     3    2    3 1   
     4    3    4 1   
     5    4    5 1   
     6    5    9 1   
     7    6    7 1   
     8    6    8 1   
     9    9   10 1   
    10   10   32 1   
    11   11   12 1   
    12   11   21 1   
    13   12   33 1   
    14   13   14 1   
    15   13   34 1   
    16   14   35 1   
    17   16   17 1   
    18   17   18 1   
    19   17   36 1   
    20   17   37 1   
    21   18   19 1   
    22   18   20 1   
    23   21   22 1   
    24   21   38 1   
    25   22   23 1   
    26   22   27 1   
    27   22   39 1   
    28   23   24 1   
    29   23   40 1   
    30   23   41 1   
    31   24   25 1   
    32   24   28 1   
    33   24   29 1   
    34   25   26 1   
    35   25   42 1   
    36   25   43 1   
    37   26   27 1   
    38   26   30 1   
    39   26   31 1   
    40   27   44 1   
    41   27   45 1   
    42   28   46 1   
    43   28   47 1   
    44   28   48 1   
    45   29   49 1   
    46   29   50 1   
    47   29   51 1   
    48   30   52 1   
    49   30   53 1   
    50   30   54 1   
    51   31   55 1   
    52   31   56 1   
    53   31   57 1   
@<TRIPOS>SUBSTRUCTURE
     1 4B3         1 TEMP              0 ****  ****    0 ROOT
