@<TRIPOS>MOLECULE
4B3
   57    59     1     0     0
SMALL
bcc


@<TRIPOS>ATOM
      1 S1         -1.8350    2.2370   -0.0060 ss        1 4B3      0.025200
      2 C2         -3.2180    1.5450   -0.6430 cc        1 4B3     -0.170700
      3 C3         -3.2380    0.1750   -0.4240 cd        1 4B3      0.137100
      4 C4         -2.0530   -0.2650    0.2810 cd        1 4B3     -0.043900
      5 C5         -1.1940    0.7960    0.5530 cc        1 4B3     -0.155100
      6 C6         -4.1980    2.4640   -1.3480 c         1 4B3      0.939200
      7 O7         -4.1900    2.4830   -2.6080 o         1 4B3     -0.817800
      8 O8         -4.9100    3.2190   -0.6290 o         1 4B3     -0.817800
      9 C9          0.0930    0.7590    1.2040 ca        1 4B3      0.076000
     10 C10         1.0770   -0.1540    0.8030 ca        1 4B3     -0.161000
     11 C11         2.3490   -0.1660    1.4110 ca        1 4B3      0.088600
     12 C12         2.6280    0.7680    2.4290 ca        1 4B3     -0.172000
     13 C13         1.6490    1.6770    2.8200 ca        1 4B3     -0.126000
     14 C14         0.3940    1.6810    2.2230 ca        1 4B3     -0.152000
     15 BR1        -1.7350   -2.0170    0.8100 br        1 4B3     -0.100100
     16 O20        -4.1600   -0.7740   -0.7480 os        1 4B3     -0.286900
     17 C21        -5.3270   -0.3280   -1.4610 c3        1 4B3      0.005400
     18 C22        -6.2060   -1.5830   -1.6880 c         1 4B3      0.918600
     19 O25        -5.9640   -2.3160   -2.6890 o         1 4B3     -0.851300
     20 O26        -7.1660   -1.7870   -0.8900 o         1 4B3     -0.851300
     21 N27         3.3130   -1.1550    1.0610 nh        1 4B3     -0.699600
     22 C28         4.5680   -0.6410    0.5150 c3        1 4B3      0.183500
     23 C30         5.6290   -1.7490    0.4740 c3        1 4B3     -0.085900
     24 C31         6.9960   -1.2300    0.0380 c3        1 4B3     -0.045000
     25 C32         6.9040   -0.4270   -1.2600 c3        1 4B3     -0.057400
     26 C33         5.7490    0.5660   -1.3940 c3        1 4B3     -0.045000
     27 C34         4.4410   -0.0320   -0.8880 c3        1 4B3     -0.085900
     28 C42         7.8930   -2.4420   -0.2310 c3        1 4B3     -0.086350
     29 C46         7.6460   -0.4250    1.1530 c3        1 4B3     -0.086350
     30 C50         5.5790    0.8810   -2.8830 c3        1 4B3     -0.086350
     31 C54         6.0480    1.8800   -0.6860 c3        1 4B3     -0.086350
     32 H10         0.8340   -0.8690    0.0010 ha        1 4B3      0.149000
     33 H12         3.6080    0.7770    2.9250 ha        1 4B3      0.115000
     34 H13         1.8730    2.4000    3.6190 ha        1 4B3      0.111000
     35 H14        -0.3740    2.4010    2.5410 ha        1 4B3      0.141000
     36 H211       -5.8640    0.4340   -0.8410 h1        1 4B3      0.053700
     37 H212       -5.0120    0.1260   -2.4350 h1        1 4B3      0.053700
     38 HN27        2.9120   -1.8280    0.4320 hn        1 4B3      0.370800
     39 H28         4.9200    0.1670    1.2230 h1        1 4B3      0.060700
     40 H301        5.7260   -2.2190    1.4880 hc        1 4B3      0.049950
     41 H302        5.2990   -2.5490   -0.2400 hc        1 4B3      0.049950
     42 H321        7.8700    0.1230   -1.4100 hc        1 4B3      0.032700
     43 H322        6.8090   -1.1650   -2.1040 hc        1 4B3      0.032700
     44 H341        4.1040   -0.8270   -1.6050 hc        1 4B3      0.049950
     45 H342        3.6540    0.7680   -0.8780 hc        1 4B3      0.049950
     46 H421        7.4600   -3.0820   -1.0350 hc        1 4B3      0.031783
     47 H422        8.9080   -2.1040   -0.5500 hc        1 4B3      0.031783
     48 H423        7.9950   -3.0570    0.6950 hc        1 4B3      0.031783
     49 H461        7.8420   -1.0830    2.0350 hc        1 4B3      0.031783
     50 H462        8.6190    0.0010    0.8060 hc        1 4B3      0.031783
     51 H463        6.9910    0.4130    1.4860 hc        1 4B3      0.031783
     52 H501        5.3500   -0.0470   -3.4580 hc        1 4B3      0.031783
     53 H502        4.7390    1.6010   -3.0280 hc        1 4B3      0.031783
     54 H503        6.5150    1.3320   -3.2890 hc        1 4B3      0.031783
     55 H541        7.0460    2.2710   -0.9990 hc        1 4B3      0.031783
     56 H542        5.2710    2.6380   -0.9490 hc        1 4B3      0.031783
     57 H543        6.0460    1.7570    0.4220 hc        1 4B3      0.031783
@<TRIPOS>BOND
     1    1    2 1   
     2    1    5 1   
     3    2    3 2   
     4    2    6 1   
     5    3    4 1   
     6    3   16 1   
     7    4    5 2   
     8    4   15 1   
     9    5    9 1   
    10    6    7 1   
    11    6    8 1   
    12    9   10 ar  
    13    9   14 ar  
    14   10   11 ar  
    15   10   32 1   
    16   11   12 ar  
    17   11   21 1   
    18   12   13 ar  
    19   12   33 1   
    20   13   14 ar  
    21   13   34 1   
    22   14   35 1   
    23   16   17 1   
    24   17   18 1   
    25   17   36 1   
    26   17   37 1   
    27   18   19 1   
    28   18   20 1   
    29   21   22 1   
    30   21   38 1   
    31   22   23 1   
    32   22   27 1   
    33   22   39 1   
    34   23   24 1   
    35   23   40 1   
    36   23   41 1   
    37   24   25 1   
    38   24   28 1   
    39   24   29 1   
    40   25   26 1   
    41   25   42 1   
    42   25   43 1   
    43   26   27 1   
    44   26   30 1   
    45   26   31 1   
    46   27   44 1   
    47   27   45 1   
    48   28   46 1   
    49   28   47 1   
    50   28   48 1   
    51   29   49 1   
    52   29   50 1   
    53   29   51 1   
    54   30   52 1   
    55   30   53 1   
    56   30   54 1   
    57   31   55 1   
    58   31   56 1   
    59   31   57 1   
@<TRIPOS>SUBSTRUCTURE
     1 4B3         1 TEMP              0 ****  ****    0 ROOT
