@<TRIPOS>MOLECULE
4B3
   58    60     1     0     0
SMALL
bcc


@<TRIPOS>ATOM
      1 S1          0.1390    0.8070    0.6930 ss        1 4B3      0.110200
      2 C2          1.7880    0.5810    0.6700 cc        1 4B3     -0.143700
      3 C3          2.1980   -0.1530    1.7730 cd        1 4B3      0.060100
      4 C4          1.0970   -0.5180    2.6270 cd        1 4B3     -0.034900
      5 C5         -0.1020   -0.0310    2.1220 cc        1 4B3     -0.130100
      6 C6          2.6270    1.1400   -0.4660 c         1 4B3      0.939200
      7 O7          2.2670    0.8650   -1.6400 o         1 4B3     -0.806800
      8 O8          3.6120    1.8710   -0.1690 o         1 4B3     -0.806800
      9 C9         -1.4190   -0.1930    2.7010 ca        1 4B3      0.043000
     10 C10        -2.1550    0.9350    3.0820 ca        1 4B3     -0.170000
     11 C11        -3.4450    0.8060    3.6400 ca        1 4B3      0.106600
     12 C12        -3.9790   -0.4890    3.8110 ca        1 4B3     -0.163000
     13 C13        -3.2380   -1.6050    3.4340 ca        1 4B3     -0.119000
     14 C14        -1.9680   -1.4700    2.8830 ca        1 4B3     -0.131000
     15 BR1         1.2600   -1.5010    4.1900 br        1 4B3     -0.085100
     16 O20         3.4640   -0.6390    2.0260 os        1 4B3     -0.291900
     17 C21         4.4780    0.3470    2.1940 c3        1 4B3      0.070400
     18 C22         4.7510    0.5880    3.6580 c         1 4B3      0.616100
     19 O25         3.8210    1.3400    4.3090 oh        1 4B3     -0.593100
     20 O26         5.7280    0.2350    4.3310 o         1 4B3     -0.586000
     21 N27        -4.2200    1.9590    3.9270 nh        1 4B3     -0.703600
     22 C28        -4.8060    2.0410    5.2620 c3        1 4B3      0.185500
     23 C30        -3.7780    2.2160    6.3890 c3        1 4B3     -0.085400
     24 C31        -4.4170    2.2180    7.7740 c3        1 4B3     -0.045000
     25 C32        -5.5830    3.2030    7.8480 c3        1 4B3     -0.060400
     26 C33        -6.5540    3.2390    6.6670 c3        1 4B3     -0.045000
     27 C34        -5.8150    3.1950    5.3330 c3        1 4B3     -0.085400
     28 C42        -3.3580    2.6760    8.7800 c3        1 4B3     -0.087350
     29 C46        -4.8400    0.8110    8.1720 c3        1 4B3     -0.087350
     30 C50        -7.3180    4.5640    6.7360 c3        1 4B3     -0.087350
     31 C54        -7.5820    2.1190    6.7500 c3        1 4B3     -0.087350
     32 H10        -1.7080    1.9310    2.9370 ha        1 4B3      0.138000
     33 H12        -4.9860   -0.6270    4.2320 ha        1 4B3      0.125000
     34 H13        -3.6670   -2.6080    3.5720 ha        1 4B3      0.121000
     35 H14        -1.3900   -2.3580    2.5880 ha        1 4B3      0.145000
     36 H211        4.2200    1.3180    1.6800 h1        1 4B3      0.122700
     37 H212        5.3940   -0.1170    1.7370 h1        1 4B3      0.122700
     38 HN27        4.0690    1.4280    5.2420 ho        1 4B3      0.424000
     39 H28        -5.3610    1.0710    5.4330 h1        1 4B3      0.063700
     40 H301       -3.0220    1.3880    6.3390 hc        1 4B3      0.048700
     41 H302       -3.2310    3.1840    6.2410 hc        1 4B3      0.048700
     42 H321       -5.1440    4.2340    7.9510 hc        1 4B3      0.036700
     43 H322       -6.1670    2.9980    8.7840 hc        1 4B3      0.036700
     44 H341       -5.2750    4.1680    5.1850 hc        1 4B3      0.048700
     45 H342       -6.5660    3.0940    4.5060 hc        1 4B3      0.048700
     46 H421       -2.4840    1.9830    8.7590 hc        1 4B3      0.033200
     47 H422       -3.0010    3.7040    8.5360 hc        1 4B3      0.033200
     48 H423       -3.7870    2.6820    9.8110 hc        1 4B3      0.033200
     49 H461       -5.3790    0.8310    9.1490 hc        1 4B3      0.033200
     50 H462       -3.9390    0.1580    8.2780 hc        1 4B3      0.033200
     51 H463       -5.5080    0.3520    7.4070 hc        1 4B3      0.033200
     52 H501       -6.6160    5.4280    6.6660 hc        1 4B3      0.033200
     53 H502       -7.8770    4.6340    7.6990 hc        1 4B3      0.033200
     54 H503       -8.0460    4.6310    5.8920 hc        1 4B3      0.033200
     55 H541       -8.3650    2.2620    5.9640 hc        1 4B3      0.033200
     56 H542       -8.0790    2.1250    7.7500 hc        1 4B3      0.033200
     57 H543       -7.1130    1.1210    6.5920 hc        1 4B3      0.033200
     58 H272       -3.7070    2.7970    3.7170 hn        1 4B3      0.372800
@<TRIPOS>BOND
     1    1    2 1   
     2    1    5 1   
     3    2    3 2   
     4    2    6 1   
     5    3    4 1   
     6    3   16 1   
     7    4    5 2   
     8    4   15 1   
     9    5    9 1   
    10    6    7 1   
    11    6    8 1   
    12    9   10 ar  
    13    9   14 ar  
    14   10   11 ar  
    15   10   32 1   
    16   11   12 ar  
    17   11   21 1   
    18   12   13 ar  
    19   12   33 1   
    20   13   14 ar  
    21   13   34 1   
    22   14   35 1   
    23   16   17 1   
    24   17   18 1   
    25   17   36 1   
    26   17   37 1   
    27   18   19 1   
    28   18   20 2   
    29   19   38 1   
    30   21   22 1   
    31   21   58 1   
    32   22   23 1   
    33   22   27 1   
    34   22   39 1   
    35   23   24 1   
    36   23   40 1   
    37   23   41 1   
    38   24   25 1   
    39   24   28 1   
    40   24   29 1   
    41   25   26 1   
    42   25   42 1   
    43   25   43 1   
    44   26   27 1   
    45   26   30 1   
    46   26   31 1   
    47   27   44 1   
    48   27   45 1   
    49   28   46 1   
    50   28   47 1   
    51   28   48 1   
    52   29   49 1   
    53   29   50 1   
    54   29   51 1   
    55   30   52 1   
    56   30   53 1   
    57   30   54 1   
    58   31   55 1   
    59   31   56 1   
    60   31   57 1   
@<TRIPOS>SUBSTRUCTURE
     1 4B3         1 TEMP              0 ****  ****    0 ROOT
