@<TRIPOS>MOLECULE
4B3
   57    59     1     0     0
SMALL
bcc


@<TRIPOS>ATOM
      1 S1         -0.3760    0.0490    0.7950 ss        1 4B3      0.025200
      2 C2          1.1620    0.5570    0.3810 cc        1 4B3     -0.170700
      3 C3          1.9840    0.6250    1.4960 cd        1 4B3      0.137100
      4 C4          1.2730    0.2480    2.7000 cd        1 4B3     -0.043900
      5 C5         -0.0540   -0.0780    2.4320 cc        1 4B3     -0.155100
      6 C6          1.4250    0.8710   -1.0800 c         1 4B3      0.939200
      7 O7          1.4380    2.0810   -1.4330 o         1 4B3     -0.817800
      8 O8          1.5340   -0.1040   -1.8760 o         1 4B3     -0.817800
      9 C9         -1.0830   -0.4660    3.3640 ca        1 4B3      0.076000
     10 C10        -1.3270    0.2830    4.5220 ca        1 4B3     -0.161000
     11 C11        -2.3590   -0.0710    5.4150 ca        1 4B3      0.088600
     12 C12        -3.1600   -1.1930    5.1210 ca        1 4B3     -0.172000
     13 C13        -2.9180   -1.9320    3.9660 ca        1 4B3     -0.126000
     14 C14        -1.8950   -1.5820    3.0920 ca        1 4B3     -0.152000
     15 Br1         2.0410    0.1580    4.3890 br        1 4B3     -0.100100
     16 O20         3.2960    0.9670    1.6280 os        1 4B3     -0.286900
     17 C21         3.9890    1.3500    0.4270 c3        1 4B3      0.005400
     18 C22         5.4460    1.6690    0.8480 c         1 4B3      0.918600
     19 O25         5.7090    2.8260    1.2830 o         1 4B3     -0.851300
     20 O26         6.3200    0.7710    0.6820 o         1 4B3     -0.851300
     21 N27        -2.5420    0.6410    6.6360 nu        1 4B3     -0.699600
     22 C28        -3.8450    1.2840    6.7950 c3        1 4B3      0.183500
     23 C30        -4.0430    1.7400    8.2470 c3        1 4B3     -0.085900
     24 C31        -5.4420    2.2970    8.4960 c3        1 4B3     -0.045000
     25 C32        -5.8140    3.3640    7.4670 c3        1 4B3     -0.057400
     26 C33        -5.4680    3.0840    6.0040 c3        1 4B3     -0.045000
     27 C34        -4.0720    2.4870    5.8680 c3        1 4B3     -0.085900
     28 C42        -5.4430    2.9640    9.8750 c3        1 4B3     -0.086350
     29 C46        -6.4680    1.1740    8.5380 c3        1 4B3     -0.086350
     30 C50        -5.4840    4.4210    5.2590 c3        1 4B3     -0.086350
     31 C54        -6.5030    2.1860    5.3410 c3        1 4B3     -0.086350
     32 H10        -0.6900    1.1590    4.7250 ha        1 4B3      0.149000
     33 H12        -3.9670   -1.4970    5.8020 ha        1 4B3      0.115000
     34 H13        -3.5450   -2.8080    3.7460 ha        1 4B3      0.111000
     35 H14        -1.7100   -2.1740    2.1840 ha        1 4B3      0.141000
     36 H211        3.4900    2.2510   -0.0130 h1        1 4B3      0.053700
     37 H212        3.9560    0.5010   -0.3010 h1        1 4B3      0.053700
     38 HN27       -1.8070    1.3130    6.7630 hn        1 4B3      0.370800
     39 H28        -4.6230    0.4990    6.5570 h1        1 4B3      0.060700
     40 H301       -3.8670    0.8780    8.9430 hc        1 4B3      0.049950
     41 H302       -3.2880    2.5340    8.4910 hc        1 4B3      0.049950
     42 H321       -6.9150    3.5670    7.5430 hc        1 4B3      0.032700
     43 H322       -5.2820    4.3110    7.7600 hc        1 4B3      0.032700
     44 H341       -3.9110    2.1730    4.8030 hc        1 4B3      0.049950
     45 H342       -3.3130    3.2800    6.1030 hc        1 4B3      0.049950
     46 H421       -6.4520    3.3830   10.0980 hc        1 4B3      0.031783
     47 H422       -4.6960    3.7930    9.9110 hc        1 4B3      0.031783
     48 H423       -5.1810    2.2180   10.6620 hc        1 4B3      0.031783
     49 H461       -7.4960    1.5930    8.6610 hc        1 4B3      0.031783
     50 H462       -6.2570    0.4960    9.4000 hc        1 4B3      0.031783
     51 H463       -6.4430    0.5640    7.6060 hc        1 4B3      0.031783
     52 H501       -6.4960    4.8860    5.3260 hc        1 4B3      0.031783
     53 H502       -5.2300    4.2630    4.1840 hc        1 4B3      0.031783
     54 H503       -4.7360    5.1250    5.6970 hc        1 4B3      0.031783
     55 H541       -6.3190    2.1440    4.2390 hc        1 4B3      0.031783
     56 H542       -6.4540    1.1450    5.7360 hc        1 4B3      0.031783
     57 H543       -7.5310    2.5850    5.5150 hc        1 4B3      0.031783
@<TRIPOS>BOND
     1    1    2 1   
     2    1    5 1   
     3    2    3 2   
     4    2    6 1   
     5    3    4 1   
     6    3   16 1   
     7    4    5 2   
     8    4   15 1   
     9    5    9 1   
    10    6    7 1   
    11    6    8 1   
    12    9   10 ar  
    13    9   14 ar  
    14   10   11 ar  
    15   10   32 1   
    16   11   12 ar  
    17   11   21 1   
    18   12   13 ar  
    19   12   33 1   
    20   13   14 ar  
    21   13   34 1   
    22   14   35 1   
    23   16   17 1   
    24   17   18 1   
    25   17   36 1   
    26   17   37 1   
    27   18   19 1   
    28   18   20 1   
    29   21   22 1   
    30   21   38 1   
    31   22   23 1   
    32   22   27 1   
    33   22   39 1   
    34   23   24 1   
    35   23   40 1   
    36   23   41 1   
    37   24   25 1   
    38   24   28 1   
    39   24   29 1   
    40   25   26 1   
    41   25   42 1   
    42   25   43 1   
    43   26   27 1   
    44   26   30 1   
    45   26   31 1   
    46   27   44 1   
    47   27   45 1   
    48   28   46 1   
    49   28   47 1   
    50   28   48 1   
    51   29   49 1   
    52   29   50 1   
    53   29   51 1   
    54   30   52 1   
    55   30   53 1   
    56   30   54 1   
    57   31   55 1   
    58   31   56 1   
    59   31   57 1   
@<TRIPOS>SUBSTRUCTURE
     1 4B3         1 TEMP              0 ****  ****    0 ROOT
