@<TRIPOS>MOLECULE
4BA
   28    28     1     0     0
SMALL
bcc


@<TRIPOS>ATOM
      1 N4C         0.0240   -0.0010   -0.0400 n4        1 4BA     -0.772000
      2 C5C         1.5170    0.0020    0.0720 c3        1 4BA      0.125800
      3 C6C         1.9980    0.0010    1.5030 c3        1 4BA     -0.268400
      4 C7C         3.5630    0.0010    1.4850 c         1 4BA      0.933600
      5 O8C         4.1270    0.0040    2.6040 o         1 4BA     -0.808800
      6 O9C         4.1160   -0.0020    0.3530 o         1 4BA     -0.808800
      7 C1D        -1.9290   -0.0020   -1.5240 ca        1 4BA     -0.220300
      8 C2D        -2.6320    1.2090   -1.5570 ca        1 4BA     -0.130000
      9 C3D        -4.0230    1.2020   -1.6060 ca        1 4BA     -0.109500
     10 C4D        -4.7260   -0.0090   -1.6210 ca        1 4BA     -0.086600
     11 C5D        -4.0180   -1.2160   -1.5970 ca        1 4BA     -0.109500
     12 C6D        -2.6270   -1.2170   -1.5470 ca        1 4BA     -0.130000
     13 C7D        -0.4450    0.0010   -1.4630 c3        1 4BA      0.182100
     14 C          -6.2550   -0.0120   -1.6590 c         1 4BA      0.907200
     15 O          -6.8280   -1.1340   -1.6670 o         1 4BA     -0.809300
     16 O2         -6.8330    1.1080   -1.6760 o         1 4BA     -0.809300
     17 HN4        -0.3530   -0.8260    0.4350 hn        1 4BA      0.433800
     18 H15         1.9110    0.9140   -0.4610 hx        1 4BA      0.105200
     19 H25         1.9140   -0.9080   -0.4630 hx        1 4BA      0.105200
     20 H16         1.6610   -0.9080    2.0560 hc        1 4BA      0.047700
     21 H26         1.6600    0.9080    2.0570 hc        1 4BA      0.047700
     22 HC2        -2.0840    2.1620   -1.5530 ha        1 4BA      0.112000
     23 HC3        -4.6030    2.1400   -1.6350 ha        1 4BA      0.169000
     24 HC5        -4.5940   -2.1560   -1.6180 ha        1 4BA      0.169000
     25 HC6        -2.0750   -2.1670   -1.5370 ha        1 4BA      0.112000
     26 H17        -0.0120   -0.9130   -1.9610 hx        1 4BA      0.088700
     27 H27        -0.0160    0.9170   -1.9580 hx        1 4BA      0.088700
     28 H4C2       -0.3560    0.8230    0.4370 hn        1 4BA      0.433800
@<TRIPOS>BOND
     1    1    2 1   
     2    1   13 1   
     3    1   17 1   
     4    1   28 1   
     5    2    3 1   
     6    2   18 1   
     7    2   19 1   
     8    3    4 1   
     9    3   20 1   
    10    3   21 1   
    11    4    5 1   
    12    4    6 1   
    13    7    8 ar  
    14    7   12 ar  
    15    7   13 1   
    16    8    9 ar  
    17    8   22 1   
    18    9   10 ar  
    19    9   23 1   
    20   10   11 ar  
    21   10   14 1   
    22   11   12 ar  
    23   11   24 1   
    24   12   25 1   
    25   13   26 1   
    26   13   27 1   
    27   14   15 1   
    28   14   16 1   
@<TRIPOS>SUBSTRUCTURE
     1 4BA         1 TEMP              0 ****  ****    0 ROOT
