@<TRIPOS>MOLECULE
4BA
   27    27     1     0     0
SMALL
bcc


@<TRIPOS>ATOM
      1 N4C        -0.3780    0.0780    1.6620 n3        1 4BA     -0.830200
      2 C5C        -0.0290    0.3940    3.0390 c3        1 4BA      0.169800
      3 C6C        -0.2550   -0.7520    4.0140 c3        1 4BA     -0.192400
      4 C7C         0.0630   -0.3250    5.4560 c         1 4BA      0.907600
      5 O8C         0.5520   -1.2010    6.2300 o         1 4BA     -0.860300
      6 O9C        -0.1910    0.8590    5.8230 o         1 4BA     -0.860300
      7 C1D         0.0750    0.6490   -0.7200 ca        1 4BA     -0.110300
      8 C2D        -1.0510    0.0340   -1.2760 ca        1 4BA     -0.152000
      9 C3D        -1.0780   -0.2890   -2.6330 ca        1 4BA     -0.117000
     10 C4D         0.0130   -0.0010   -3.4590 ca        1 4BA     -0.128600
     11 C5D         1.1410    0.6060   -2.8970 ca        1 4BA     -0.117000
     12 C6D         1.1740    0.9260   -1.5410 ca        1 4BA     -0.152000
     13 C7D         0.1020    1.0720    0.7200 c3        1 4BA      0.216100
     14 C          -0.0250   -0.3310   -4.9390 c         1 4BA      0.906200
     15 O          -1.0690   -0.8710   -5.4100 o         1 4BA     -0.845800
     16 O2          0.9880   -0.0490   -5.6450 o         1 4BA     -0.845800
     17 HN4        -0.0380   -0.8320    1.4120 hn        1 4BA      0.348800
     18 H15        -0.6660    1.2660    3.3620 h1        1 4BA      0.031200
     19 H25         1.0490    0.7240    3.1330 h1        1 4BA      0.031200
     20 H16         0.3830   -1.6310    3.7450 hc        1 4BA      0.025700
     21 H26        -1.3240   -1.0830    3.9850 hc        1 4BA      0.025700
     22 HC2        -1.9160   -0.1940   -0.6370 ha        1 4BA      0.114500
     23 HC3        -1.9600   -0.7720   -3.0820 ha        1 4BA      0.141000
     24 HC5         1.9980    0.8230   -3.5530 ha        1 4BA      0.141000
     25 HC6         2.0690    1.4010   -1.1140 ha        1 4BA      0.114500
     26 H17        -0.5680    1.9750    0.8340 h1        1 4BA      0.018700
     27 H27         1.1520    1.4180    0.9730 h1        1 4BA      0.018700
@<TRIPOS>BOND
     1    1    2 1   
     2    1   13 1   
     3    1   17 1   
     4    2    3 1   
     5    2   18 1   
     6    2   19 1   
     7    3    4 1   
     8    3   20 1   
     9    3   21 1   
    10    4    5 1   
    11    4    6 1   
    12    7    8 ar  
    13    7   12 ar  
    14    7   13 1   
    15    8    9 ar  
    16    8   22 1   
    17    9   10 ar  
    18    9   23 1   
    19   10   11 ar  
    20   10   14 1   
    21   11   12 ar  
    22   11   24 1   
    23   12   25 1   
    24   13   26 1   
    25   13   27 1   
    26   14   15 1   
    27   14   16 1   
@<TRIPOS>SUBSTRUCTURE
     1 4BA         1 TEMP              0 ****  ****    0 ROOT
