@<TRIPOS>MOLECULE
4BA
   28    28     1     0     0
SMALL
bcc


@<TRIPOS>ATOM
      1 N4C         0.0290    0.0250   -0.0400 n4        1 4BA     -0.769000
      2 C5C         1.5180    0.1280    0.0710 c3        1 4BA      0.114800
      3 C6C         2.0040    0.1300    1.4990 c3        1 4BA     -0.266400
      4 C7C         3.5390   -0.1790    1.4830 c         1 4BA      0.930600
      5 O8C         4.2240    0.3550    2.3860 o         1 4BA     -0.806300
      6 O9C         3.9480   -0.9440    0.5690 o         1 4BA     -0.806300
      7 C1D        -1.9260   -0.0110   -1.5220 ca        1 4BA     -0.219300
      8 C2D        -2.6400    1.1930   -1.4570 ca        1 4BA     -0.130000
      9 C3D        -4.0300    1.1780   -1.5060 ca        1 4BA     -0.109500
     10 C4D        -4.7230   -0.0330   -1.6200 ca        1 4BA     -0.086600
     11 C5D        -4.0040   -1.2320   -1.6940 ca        1 4BA     -0.109500
     12 C6D        -2.6130   -1.2250   -1.6430 ca        1 4BA     -0.130000
     13 C7D        -0.4420    0.0060   -1.4630 c3        1 4BA      0.181100
     14 C          -6.2520   -0.0450   -1.6590 c         1 4BA      0.907200
     15 O          -6.8160   -1.1670   -1.7630 o         1 4BA     -0.808800
     16 O2         -6.8380    1.0670   -1.5800 o         1 4BA     -0.808800
     17 HN4        -0.4090    0.8140    0.4440 hn        1 4BA      0.434800
     18 H15         1.8340    1.0730   -0.4510 hx        1 4BA      0.106700
     19 H25         1.9780   -0.7540   -0.4720 hx        1 4BA      0.106700
     20 H16         1.5240   -0.6750    2.1080 hc        1 4BA      0.048700
     21 H26         1.8320    1.1140    1.9950 hc        1 4BA      0.048700
     22 HC2        -2.0990    2.1470   -1.3770 ha        1 4BA      0.112000
     23 HC3        -4.6190    2.1100   -1.4580 ha        1 4BA      0.168500
     24 HC5        -4.5720   -2.1730   -1.7910 ha        1 4BA      0.168500
     25 HC6        -2.0530   -2.1690   -1.7080 ha        1 4BA      0.112000
     26 H17         0.0020   -0.9060   -1.9530 hx        1 4BA      0.088700
     27 H27        -0.0260    0.9240   -1.9660 hx        1 4BA      0.088700
     28 H4C2       -0.2860   -0.8310    0.4270 hn        1 4BA      0.434800
@<TRIPOS>BOND
     1    1    2 1   
     2    1   13 1   
     3    1   17 1   
     4    1   28 1   
     5    2    3 1   
     6    2   18 1   
     7    2   19 1   
     8    3    4 1   
     9    3   20 1   
    10    3   21 1   
    11    4    5 1   
    12    4    6 1   
    13    7    8 ar  
    14    7   12 ar  
    15    7   13 1   
    16    8    9 ar  
    17    8   22 1   
    18    9   10 ar  
    19    9   23 1   
    20   10   11 ar  
    21   10   14 1   
    22   11   12 ar  
    23   11   24 1   
    24   12   25 1   
    25   13   26 1   
    26   13   27 1   
    27   14   15 1   
    28   14   16 1   
@<TRIPOS>SUBSTRUCTURE
     1 4BA         1 TEMP              0 ****  ****    0 ROOT
