@<TRIPOS>MOLECULE
4BA
   27    24     1     0     0
SMALL
bcc


@<TRIPOS>ATOM
      1 N4C         1.1020    0.5290    0.7460 n3        1 4BA     -0.830200
      2 C5C         2.5520    0.5300    0.7210 c3        1 4BA      0.165800
      3 C6C         3.0690    1.9670    0.8980 c3        1 4BA     -0.193400
      4 C7C         4.5530    2.0260    0.5140 c         1 4BA      0.907600
      5 O8C         5.4300    1.6380    1.3320 o         1 4BA     -0.859300
      6 O9C         4.9020    2.5640   -0.5770 o         1 4BA     -0.859300
      7 C1D        -0.7870   -0.8330    0.0220 c1        1 4BA     -0.075100
      8 C2D        -1.9090   -0.7980    0.8500 c1        1 4BA     -0.103500
      9 C3D        -3.1800   -0.8540    0.3000 c1        1 4BA     -0.059500
     10 C4D        -3.3380   -0.9450   -1.0880 cg        1 4BA     -0.077200
     11 C5D        -2.2260   -0.9800   -1.9080 c1        1 4BA     -0.072500
     12 C6D        -0.9420   -0.9230   -1.3500 c1        1 4BA     -0.072500
     13 C7D         0.6190   -0.8350    0.6390 c3        1 4BA      0.180900
     14 C          -4.7700   -0.9460   -1.7120 c         1 4BA      0.854800
     15 O          -5.3160    0.1480   -2.0470 o         1 4BA     -0.845800
     16 O2         -5.4030   -2.0380   -1.8490 o         1 4BA     -0.845800
     17 HN4         0.8090    0.8960    1.5360 hn        1 4BA      0.349800
     18 H15         2.8630    0.1760   -0.1330 h1        1 4BA      0.033200
     19 H25         2.8900   -0.0300    1.4500 h1        1 4BA      0.033200
     20 H16         2.5610    2.5690    0.3250 hc        1 4BA      0.025200
     21 H26         2.9620    2.2390    1.8320 hc        1 4BA      0.025200
     22 HC2        -1.7980   -0.7340    1.8260 ha        1 4BA      0.047500
     23 HC3        -3.9690   -0.8290    0.8840 ha        1 4BA      0.082500
     24 HC5        -2.3370   -0.9920   -2.8840 ha        1 4BA      0.076000
     25 HC6        -0.1460   -0.9480   -1.9360 ha        1 4BA      0.076000
     26 H17         0.5840   -1.2450    1.5380 h1        1 4BA      0.018700
     27 H27         1.2250   -1.3510    0.0700 h1        1 4BA      0.018700
@<TRIPOS>BOND
     1    1    2 1   
     2    1   13 1   
     3    1   17 1   
     4    2    3 1   
     5    2   18 1   
     6    2   19 1   
     7    3    4 1   
     8    3   20 1   
     9    3   21 1   
    10    4    5 1   
    11    4    6 1   
    12    7    8 3   
    13    7   13 1   
    14    8   22 1   
    15    9   10 3   
    16    9   23 1   
    17   10   14 1   
    18   11   12 3   
    19   11   24 1   
    20   12   25 1   
    21   13   26 1   
    22   13   27 1   
    23   14   15 1   
    24   14   16 1   
@<TRIPOS>SUBSTRUCTURE
     1 4BA         1 TEMP              0 ****  ****    0 ROOT
