@<TRIPOS>MOLECULE
4BA
   28    28     1     0     0
SMALL
bcc


@<TRIPOS>ATOM
      1 N4C         0.0280    0.0190   -0.0370 ny        1 4BA     -0.769000
      2 C5C         1.5160    0.1290    0.0790 c3        1 4BA      0.114800
      3 C6C         1.9990    0.0990    1.5080 c3        1 4BA     -0.266400
      4 C7C         3.5360   -0.1990    1.4870 c         1 4BA      0.930600
      5 O8C         4.2160    0.3170    2.4040 o         1 4BA     -0.806300
      6 O9C         3.9510   -0.9400    0.5560 o         1 4BA     -0.806300
      7 C1D        -1.9250    0.0060   -1.5240 ca        1 4BA     -0.219300
      8 C2D        -2.6460    1.2050   -1.4350 ca        1 4BA     -0.130000
      9 C3D        -4.0350    1.1830   -1.4870 ca        1 4BA     -0.109500
     10 C4D        -4.7200   -0.0300   -1.6270 ca        1 4BA     -0.086600
     11 C5D        -3.9950   -1.2230   -1.7240 ca        1 4BA     -0.109500
     12 C6D        -2.6040   -1.2090   -1.6710 ca        1 4BA     -0.130000
     13 C7D        -0.4400    0.0310   -1.4610 c3        1 4BA      0.181100
     14 C          -6.2490   -0.0510   -1.6690 c         1 4BA      0.907200
     15 O          -6.8070   -1.1730   -1.7970 o         1 4BA     -0.808800
     16 O2         -6.8430    1.0570   -1.5700 o         1 4BA     -0.808800
     17 HN4        -0.4160    0.7940    0.4650 hn        1 4BA      0.434800
     18 H15         1.8270    1.0870   -0.4200 hx        1 4BA      0.106700
     19 H25         1.9820   -0.7380   -0.4830 hx        1 4BA      0.106700
     20 H16         1.5230   -0.7220    2.0970 hc        1 4BA      0.048700
     21 H26         1.8200    1.0700    2.0260 hc        1 4BA      0.048700
     22 HC2        -2.1110    2.1600   -1.3350 ha        1 4BA      0.112000
     23 HC3        -4.6290    2.1100   -1.4210 ha        1 4BA      0.168500
     24 HC5        -4.5570   -2.1650   -1.8420 ha        1 4BA      0.168500
     25 HC6        -2.0380   -2.1480   -1.7540 ha        1 4BA      0.112000
     26 H17         0.0100   -0.8670   -1.9710 hx        1 4BA      0.088700
     27 H27        -0.0290    0.9630   -1.9420 hx        1 4BA      0.088700
     28 H4C2       -0.2830   -0.8490    0.4100 hn        1 4BA      0.434800
@<TRIPOS>BOND
     1    1    2 1   
     2    1   13 1   
     3    1   17 1   
     4    1   28 1   
     5    2    3 1   
     6    2   18 1   
     7    2   19 1   
     8    3    4 1   
     9    3   20 1   
    10    3   21 1   
    11    4    5 1   
    12    4    6 1   
    13    7    8 ar  
    14    7   12 ar  
    15    7   13 1   
    16    8    9 ar  
    17    8   22 1   
    18    9   10 ar  
    19    9   23 1   
    20   10   11 ar  
    21   10   14 1   
    22   11   12 ar  
    23   11   24 1   
    24   12   25 1   
    25   13   26 1   
    26   13   27 1   
    27   14   15 1   
    28   14   16 1   
@<TRIPOS>SUBSTRUCTURE
     1 4BA         1 TEMP              0 ****  ****    0 ROOT
