@<TRIPOS>MOLECULE
4BB
   43    39     1     0     0
SMALL
bcc


@<TRIPOS>ATOM
      1 CAA        -3.7710   -3.1490    2.9860 c3        1 4BB     -0.205000
      2 CAY        -2.2510   -3.2190    2.9420 c3        1 4BB     -0.022000
      3 CAB        -1.7050   -3.2270    4.3600 c3        1 4BB     -0.205000
      4 CAC        -1.8240   -4.4890    2.2280 c3        1 4BB     -0.205000
      5 CAW        -1.7010   -1.9940    2.1850 c2        1 4BB     -0.030000
      6 CAM        -2.2820   -0.7460    2.3690 c2        1 4BB     -0.137000
      7 CAK        -1.7610    0.3670    1.7180 c1        1 4BB     -0.077000
      8 CAL        -0.5990   -2.1310    1.3500 c1        1 4BB     -0.136000
      9 CAJ        -0.0770   -1.0160    0.6980 c1        1 4BB     -0.101000
     10 CAS        -0.6580    0.2300    0.8820 c1        1 4BB     -0.137000
     11 CAQ        -0.0820    1.4590    0.1670 c2        1 4BB      0.369000
     12 OAD        -0.5920    2.5510    0.3330 o         1 4BB     -0.294000
     13 NAP         1.1310    1.3440   -0.5850 n         1 4BB     -0.325000
     14 NAO         2.3010    1.9280   -0.1090 n2        1 4BB      0.012000
     15 CAI         3.0860    2.6030   -0.9320 c1        1 4BB     -0.129000
     16 CAT         2.7090    2.7430   -2.4000 c1        1 4BB     -0.192500
     17 CAN         2.9880    1.7140   -3.2840 c2        1 4BB     -0.028000
     18 CAR         2.7940    1.8960   -4.6450 c1        1 4BB     -0.192500
     19 BRAG        3.3210    0.5280   -5.8760 br        1 4BB      0.080000
     20 CAU         2.3210    3.1080   -5.1200 c2        1 4BB      0.184000
     21 OAE         2.1870    3.3150   -6.5070 oh        1 4BB     -0.225000
     22 CAX         2.0410    4.1370   -4.2360 c1        1 4BB     -0.353000
     23 BRAH        1.4660    5.8380   -4.9000 br        1 4BB      0.080000
     24 CAV         2.2340    3.9560   -2.8760 c2        1 4BB      0.184000
     25 OAF         2.0460    5.0330   -1.9900 oh        1 4BB     -0.225000
     26 HAA        -4.1150   -2.9360    2.0900 hc        1 4BB      0.078444
     27 HAAA       -4.0490   -2.4510    3.6180 hc        1 4BB      0.078444
     28 HAAB       -4.1310   -4.0170    3.2770 hc        1 4BB      0.078444
     29 HAB        -0.7260   -3.2620    4.3330 hc        1 4BB      0.078444
     30 HABA       -1.9900   -2.4120    4.8240 hc        1 4BB      0.078444
     31 HABB       -2.0480   -4.0140    4.8390 hc        1 4BB      0.078444
     32 HAC        -0.8640   -4.6380    2.3700 hc        1 4BB      0.078444
     33 HACA       -2.3310   -5.2520    2.5850 hc        1 4BB      0.078444
     34 HACB       -2.0020   -4.3990    1.2700 hc        1 4BB      0.078444
     35 HAM        -3.0580   -0.6490    2.9570 ha        1 4BB      0.140000
     36 HAK        -2.1690    1.2430    1.8470 ha        1 4BB      0.154000
     37 HAL        -0.1900   -3.0080    1.2210 ha        1 4BB      0.142000
     38 HAJ         0.6980   -1.1120    0.1110 ha        1 4BB      0.136000
     39 HNAP        1.1440    0.8640   -1.3590 hn        1 4BB      0.213000
     40 HAI         3.9080    3.0130   -0.5980 ha        1 4BB      0.183000
     41 HAN         3.2900    0.8500   -2.9460 ha        1 4BB      0.161000
     42 HOAE        2.9550    3.6180   -6.8370 ho        1 4BB      0.238500
     43 HOAF        2.3580    5.7790   -2.3600 ho        1 4BB      0.238500
@<TRIPOS>BOND
     1    1    2 1   
     2    1   26 1   
     3    1   27 1   
     4    1   28 1   
     5    2    3 1   
     6    2    4 1   
     7    2    5 1   
     8    3   29 1   
     9    3   30 1   
    10    3   31 1   
    11    4   32 1   
    12    4   33 1   
    13    4   34 1   
    14    5    6 1   
    15    5    8 1   
    16    6    7 1   
    17    6   35 1   
    18    7   36 1   
    19    8   37 1   
    20    9   10 1   
    21    9   38 1   
    22   10   11 1   
    23   11   12 1   
    24   11   13 1   
    25   13   14 1   
    26   13   39 1   
    27   14   15 1   
    28   15   40 1   
    29   16   17 1   
    30   16   24 1   
    31   17   18 1   
    32   17   41 1   
    33   18   20 1   
    34   20   21 1   
    35   20   22 1   
    36   21   42 1   
    37   22   24 1   
    38   24   25 1   
    39   25   43 1   
@<TRIPOS>SUBSTRUCTURE
     1 4BB         1 TEMP              0 ****  ****    0 ROOT
