@<TRIPOS>MOLECULE
4BB
   43    44     1     0     0
SMALL
bcc


@<TRIPOS>ATOM
      1 CAA         8.9430   -0.5710    1.5170 c3        1 4BB     -0.087100
      2 CAY         8.5520   -0.7040    0.0470 c3        1 4BB     -0.015700
      3 CAB         9.4090    0.2420   -0.7910 c3        1 4BB     -0.087100
      4 CAC         8.8450   -2.1310   -0.3980 c3        1 4BB     -0.087100
      5 CAW         7.1010   -0.3360   -0.1170 ca        1 4BB     -0.034300
      6 CAM         6.6740    0.9490    0.2530 ca        1 4BB     -0.136000
      7 CAK         5.3430    1.3290    0.1160 ca        1 4BB     -0.089000
      8 CAL         6.1560   -1.2310   -0.6340 ca        1 4BB     -0.136000
      9 CAJ         4.8190   -0.8590   -0.7680 ca        1 4BB     -0.089000
     10 CAS         4.4060    0.4190   -0.3880 ca        1 4BB     -0.158600
     11 CAQ         2.9950    0.8730   -0.5380 c         1 4BB      0.699700
     12 OAD         2.6940    1.9870   -0.9860 o         1 4BB     -0.536100
     13 NAP         2.0290   -0.0700   -0.1100 n         1 4BB     -0.334900
     14 NAO         0.7250    0.1760   -0.1650 n2        1 4BB     -0.472300
     15 CAI        -0.1570   -0.6690    0.2990 ce        1 4BB      0.388800
     16 CAT        -1.5990   -0.4250    0.2370 ca        1 4BB     -0.252900
     17 CAN        -2.4130   -1.4440    0.7500 ca        1 4BB     -0.013000
     18 CAR        -3.7990   -1.3530    0.7590 ca        1 4BB     -0.107900
     19 BRAG       -4.7770   -2.7820    1.4720 br        1 4BB     -0.057100
     20 CAU        -4.4070   -0.1910    0.2320 ca        1 4BB      0.230100
     21 OAE        -5.7730   -0.1480    0.2640 oh        1 4BB     -0.472100
     22 CAX        -3.6250    0.8550   -0.2920 ca        1 4BB     -0.170900
     23 BRAH       -4.4720    2.3860   -0.9840 br        1 4BB     -0.055100
     24 CAV        -2.2130    0.7350   -0.2900 ca        1 4BB      0.261100
     25 OAF        -1.5350    1.7920   -0.8150 oh        1 4BB     -0.480100
     26 HAA         8.7960    0.4760    1.8720 hc        1 4BB      0.039589
     27 HAAA        8.3230   -1.2530    2.1450 hc        1 4BB      0.039589
     28 HAAB       10.0180   -0.8430    1.6480 hc        1 4BB      0.039589
     29 HAB        10.4880   -0.0250   -0.6800 hc        1 4BB      0.039589
     30 HABA        9.1300    0.1660   -1.8690 hc        1 4BB      0.039589
     31 HABB        9.2700    1.2990   -0.4590 hc        1 4BB      0.039589
     32 HAC         8.2530   -2.8610    0.2050 hc        1 4BB      0.039589
     33 HACA        8.6030   -2.2650   -1.4790 hc        1 4BB      0.039589
     34 HACB        9.9300   -2.3540   -0.2510 hc        1 4BB      0.039589
     35 HAM         7.4010    1.6730    0.6530 ha        1 4BB      0.142000
     36 HAK         5.0200    2.3460    0.3910 ha        1 4BB      0.145000
     37 HAL         6.4520   -2.2440   -0.9470 ha        1 4BB      0.142000
     38 HAJ         4.1020   -1.5770   -1.1960 ha        1 4BB      0.145000
     39 HNAP        2.3700   -0.9120    0.3160 hn        1 4BB      0.303500
     40 HAI         0.1120   -1.6390    0.7750 h4        1 4BB     -0.006200
     41 HAN        -1.9330   -2.3500    1.1610 ha        1 4BB      0.149000
     42 HOAE       -6.0690    0.6950   -0.1250 ho        1 4BB      0.441000
     43 HOAF       -0.5740    1.6400   -0.7810 ho        1 4BB      0.474000
@<TRIPOS>BOND
     1    1    2 1   
     2    1   26 1   
     3    1   27 1   
     4    1   28 1   
     5    2    3 1   
     6    2    4 1   
     7    2    5 1   
     8    3   29 1   
     9    3   30 1   
    10    3   31 1   
    11    4   32 1   
    12    4   33 1   
    13    4   34 1   
    14    5    6 ar  
    15    5    8 ar  
    16    6    7 ar  
    17    6   35 1   
    18    7   10 ar  
    19    7   36 1   
    20    8    9 ar  
    21    8   37 1   
    22    9   10 ar  
    23    9   38 1   
    24   10   11 1   
    25   11   12 2   
    26   11   13 1   
    27   13   14 1   
    28   13   39 1   
    29   14   15 2   
    30   15   16 1   
    31   15   40 1   
    32   16   17 ar  
    33   16   24 ar  
    34   17   18 ar  
    35   17   41 1   
    36   18   19 1   
    37   18   20 ar  
    38   20   21 1   
    39   20   22 ar  
    40   21   42 1   
    41   22   23 1   
    42   22   24 ar  
    43   24   25 1   
    44   25   43 1   
@<TRIPOS>SUBSTRUCTURE
     1 4BB         1 TEMP              0 ****  ****    0 ROOT
