@<TRIPOS>MOLECULE
4BB
   44    45     1     0     0
SMALL
bcc


@<TRIPOS>ATOM
      1 CAA         0.4170    1.2680    0.8780 c3        1 4BB     -0.092767
      2 CAY         1.3710    0.3400    0.1280 c3        1 4BB     -0.027700
      3 CAB         2.2480   -0.4050    1.1330 c3        1 4BB     -0.092767
      4 CAC         0.5430   -0.6830   -0.6380 c3        1 4BB     -0.092767
      5 CAW         2.2490    1.1630   -0.7770 ca        1 4BB      0.028700
      6 CAM         3.0740    2.1550   -0.2210 ca        1 4BB     -0.131500
      7 CAK         3.8990    2.9350   -1.0220 ca        1 4BB     -0.062500
      8 CAL         2.2800    0.9720   -2.1690 ca        1 4BB     -0.131500
      9 CAJ         3.0950    1.7510   -2.9810 ca        1 4BB     -0.062500
     10 CAS         3.9080    2.7460   -2.4160 ca        1 4BB     -0.221600
     11 CAQ         4.8030    3.5930   -3.1940 c         1 4BB      0.569700
     12 OAD         5.8290    4.1540   -2.8330 o         1 4BB     -0.449100
     13 NAP         4.3900    3.8230   -4.6600 ny        1 4BB     -0.368900
     14 NAO         4.5300    5.0870   -5.2370 n2        1 4BB     -0.547400
     15 CAI         5.6650    5.7430   -5.2190 ce        1 4BB      0.578800
     16 CAT         5.8470    7.0490   -5.8250 ca        1 4BB     -0.287900
     17 CAN         6.9480    7.8010   -5.3620 ca        1 4BB      0.014000
     18 CAR         7.2230    9.0730   -5.8290 ca        1 4BB     -0.108900
     19 BrAG        8.7020    9.9790   -5.1310 br        1 4BB     -0.004100
     20 CAU         6.3720    9.6380   -6.8200 ca        1 4BB      0.289100
     21 OAE         6.6830   10.8910   -7.2350 oh        1 4BB     -0.442100
     22 CAX         5.2780    8.9080   -7.3250 ca        1 4BB     -0.247900
     23 BrAH        4.1710    9.6510   -8.6460 br        1 4BB     -0.032100
     24 CAV         5.0200    7.6110   -6.8270 ca        1 4BB      0.288100
     25 OAF         4.0050    6.8380   -7.2980 oh        1 4BB     -0.468100
     26 HAA         0.9830    2.0010    1.5000 hc        1 4BB      0.048256
     27 HAAA       -0.2370    0.6640    1.5520 hc        1 4BB      0.048256
     28 HAAB       -0.2300    1.8250    0.1600 hc        1 4BB      0.048256
     29 HAB         2.9580   -1.0830    0.6020 hc        1 4BB      0.048256
     30 HABA        2.8320    0.3110    1.7590 hc        1 4BB      0.048256
     31 HABB        1.6040   -1.0200    1.8060 hc        1 4BB      0.048256
     32 HAC        -0.0920   -1.2590    0.0800 hc        1 4BB      0.048256
     33 HACA        1.2020   -1.4050   -1.1760 hc        1 4BB      0.048256
     34 HACB       -0.1320   -0.1790   -1.3710 hc        1 4BB      0.048256
     35 HAM         3.0750    2.3190    0.8710 ha        1 4BB      0.167500
     36 HAK         4.5490    3.7030   -0.5690 ha        1 4BB      0.145500
     37 HAL         1.6570    0.1930   -2.6390 ha        1 4BB      0.167500
     38 HAJ         3.1050    1.5420   -4.0620 ha        1 4BB      0.145500
     39 HNAP        3.3680    3.6540   -4.7280 hn        1 4BB      0.464800
     40 HAI         6.5850    5.3630   -4.7030 h4        1 4BB      0.034800
     41 HAN         7.6040    7.3550   -4.5900 ha        1 4BB      0.164000
     42 HOAE        6.0450   11.1840   -7.9140 ho        1 4BB      0.457000
     43 HOAF        3.5100    7.3320   -7.9800 ho        1 4BB      0.457000
     44 HAP2        4.8730    3.1080   -5.2260 hn        1 4BB      0.464800
@<TRIPOS>BOND
     1    1    2 1   
     2    1   26 1   
     3    1   27 1   
     4    1   28 1   
     5    2    3 1   
     6    2    4 1   
     7    2    5 1   
     8    3   29 1   
     9    3   30 1   
    10    3   31 1   
    11    4   32 1   
    12    4   33 1   
    13    4   34 1   
    14    5    6 ar  
    15    5    8 ar  
    16    6    7 ar  
    17    6   35 1   
    18    7   10 ar  
    19    7   36 1   
    20    8    9 ar  
    21    8   37 1   
    22    9   10 ar  
    23    9   38 1   
    24   10   11 1   
    25   11   12 2   
    26   11   13 1   
    27   13   14 1   
    28   13   39 1   
    29   13   44 1   
    30   14   15 2   
    31   15   16 1   
    32   15   40 1   
    33   16   17 ar  
    34   16   24 ar  
    35   17   18 ar  
    36   17   41 1   
    37   18   19 1   
    38   18   20 ar  
    39   20   21 1   
    40   20   22 ar  
    41   21   42 1   
    42   22   23 1   
    43   22   24 ar  
    44   24   25 1   
    45   25   43 1   
@<TRIPOS>SUBSTRUCTURE
     1 4BB         1 TEMP              0 ****  ****    0 ROOT
