@<TRIPOS>MOLECULE
4BB
   44    45     1     0     0
SMALL
bcc


@<TRIPOS>ATOM
      1 CAA         0.4560    1.2820    0.9240 c3        1 4BB     -0.092767
      2 CAY         1.3700    0.3460    0.1360 c3        1 4BB     -0.027700
      3 CAB         2.2550   -0.4340    1.1060 c3        1 4BB     -0.092767
      4 CAC         0.5000   -0.6470   -0.6240 c3        1 4BB     -0.092767
      5 CAW         2.2430    1.1640   -0.7790 ca        1 4BB      0.028700
      6 CAM         3.1030    2.1280   -0.2290 ca        1 4BB     -0.132000
      7 CAK         3.9250    2.9030   -1.0380 ca        1 4BB     -0.062500
      8 CAL         2.2340    0.9940   -2.1740 ca        1 4BB     -0.132000
      9 CAJ         3.0460    1.7670   -2.9940 ca        1 4BB     -0.062500
     10 CAS         3.8950    2.7350   -2.4350 ca        1 4BB     -0.221600
     11 CAQ         4.7890    3.5750   -3.2230 c         1 4BB      0.569700
     12 OAD         5.8350    4.1080   -2.8790 o         1 4BB     -0.449100
     13 NAP         4.3450    3.8350   -4.6740 n4        1 4BB     -0.368900
     14 NAO         4.5020    5.1030   -5.2380 n2        1 4BB     -0.547400
     15 CAI         5.6530    5.7310   -5.2400 ce        1 4BB      0.578800
     16 CAT         5.8510    7.0400   -5.8330 ca        1 4BB     -0.287900
     17 CAN         6.9810    7.7600   -5.3860 ca        1 4BB      0.014000
     18 CAR         7.2750    9.0310   -5.8440 ca        1 4BB     -0.108900
     19 BRAG        8.7920    9.8930   -5.1700 br        1 4BB     -0.004100
     20 CAU         6.4150    9.6300   -6.8060 ca        1 4BB      0.289100
     21 OAE         6.7460   10.8810   -7.2130 oh        1 4BB     -0.442100
     22 CAX         5.2920    8.9330   -7.2950 ca        1 4BB     -0.247900
     23 BRAH        4.1720    9.7200   -8.5790 br        1 4BB     -0.032100
     24 CAV         5.0150    7.6360   -6.8070 ca        1 4BB      0.288100
     25 OAF         3.9710    6.8940   -7.2640 oh        1 4BB     -0.468100
     26 HAA         1.0540    1.9930    1.5430 hc        1 4BB      0.048256
     27 HAAA       -0.1950    0.6820    1.6060 hc        1 4BB      0.048256
     28 HAAB       -0.1960    1.8650    0.2310 hc        1 4BB      0.048256
     29 HAB         2.9360   -1.1200    0.5470 hc        1 4BB      0.048256
     30 HABA        2.8700    0.2580    1.7280 hc        1 4BB      0.048256
     31 HABB        1.6140   -1.0460    1.7860 hc        1 4BB      0.048256
     32 HAC        -0.1290   -1.2200    0.1010 hc        1 4BB      0.048256
     33 HACA        1.1290   -1.3750   -1.1900 hc        1 4BB      0.048256
     34 HACB       -0.1820   -0.1170   -1.3320 hc        1 4BB      0.048256
     35 HAM         3.1350    2.2750    0.8650 ha        1 4BB      0.167500
     36 HAK         4.6030    3.6490   -0.5910 ha        1 4BB      0.145500
     37 HAL         1.5830    0.2360   -2.6400 ha        1 4BB      0.167500
     38 HAJ         3.0240    1.5750   -4.0780 ha        1 4BB      0.145500
     39 HNAP        3.3180    3.6920   -4.7180 hn        1 4BB      0.464800
     40 HAI         6.5750    5.3230   -4.7520 h4        1 4BB      0.034800
     41 HAN         7.6440    7.2880   -4.6370 ha        1 4BB      0.164000
     42 HOAE        6.0990   11.1980   -7.8720 ho        1 4BB      0.457000
     43 HOAF        3.4720    7.4090   -7.9280 ho        1 4BB      0.457000
     44 HAP2        4.7960    3.1170   -5.2630 hn        1 4BB      0.464800
@<TRIPOS>BOND
     1    1    2 1   
     2    1   26 1   
     3    1   27 1   
     4    1   28 1   
     5    2    3 1   
     6    2    4 1   
     7    2    5 1   
     8    3   29 1   
     9    3   30 1   
    10    3   31 1   
    11    4   32 1   
    12    4   33 1   
    13    4   34 1   
    14    5    6 ar  
    15    5    8 ar  
    16    6    7 ar  
    17    6   35 1   
    18    7   10 ar  
    19    7   36 1   
    20    8    9 ar  
    21    8   37 1   
    22    9   10 ar  
    23    9   38 1   
    24   10   11 1   
    25   11   12 2   
    26   11   13 1   
    27   13   14 1   
    28   13   39 1   
    29   13   44 1   
    30   14   15 2   
    31   15   16 1   
    32   15   40 1   
    33   16   17 ar  
    34   16   24 ar  
    35   17   18 ar  
    36   17   41 1   
    37   18   19 1   
    38   18   20 ar  
    39   20   21 1   
    40   20   22 ar  
    41   21   42 1   
    42   22   23 1   
    43   22   24 ar  
    44   24   25 1   
    45   25   43 1   
@<TRIPOS>SUBSTRUCTURE
     1 4BB         1 TEMP              0 ****  ****    0 ROOT
