@<TRIPOS>MOLECULE
4BB
   44    45     1     0     0
SMALL
bcc


@<TRIPOS>ATOM
      1 CAA         0.4540    1.2880    0.9220 c3        1 4BB     -0.092767
      2 CAY         1.4090    0.3590    0.1740 c3        1 4BB     -0.027700
      3 CAB         2.3040   -0.3630    1.1790 c3        1 4BB     -0.092767
      4 CAC         0.5820   -0.6820   -0.5680 c3        1 4BB     -0.092767
      5 CAW         2.2690    1.1780   -0.7520 ca        1 4BB      0.028700
      6 CAM         3.0900    2.1850   -0.2180 ca        1 4BB     -0.131500
      7 CAK         3.8990    2.9620   -1.0390 ca        1 4BB     -0.062500
      8 CAL         2.2860    0.9680   -2.1410 ca        1 4BB     -0.131500
      9 CAJ         3.0850    1.7430   -2.9730 ca        1 4BB     -0.062500
     10 CAS         3.8940    2.7530   -2.4300 ca        1 4BB     -0.221600
     11 CAQ         4.7730    3.5980   -3.2310 c         1 4BB      0.569700
     12 OAD         5.7980    4.1720   -2.8890 o         1 4BB     -0.449100
     13 NAP         4.3390    3.8060   -4.6930 n4        1 4BB     -0.368900
     14 NAO         4.4590    5.0640   -5.2870 n2        1 4BB     -0.547400
     15 CAI         5.5880    5.7320   -5.2910 ce        1 4BB      0.578800
     16 CAT         5.7490    7.0330   -5.9130 ca        1 4BB     -0.287900
     17 CAN         6.8490    7.8000   -5.4730 ca        1 4BB      0.014000
     18 CAR         7.1060    9.0690   -5.9580 ca        1 4BB     -0.108900
     19 BRAG        8.5850    9.9970   -5.2900 br        1 4BB     -0.004100
     20 CAU         6.2360    9.6160   -6.9430 ca        1 4BB      0.289100
     21 OAE         6.5290   10.8670   -7.3760 oh        1 4BB     -0.442100
     22 CAX         5.1420    8.8700   -7.4260 ca        1 4BB     -0.247900
     23 BRAH        4.0100    9.5880   -8.7400 br        1 4BB     -0.032100
     24 CAV         4.9030    7.5760   -6.9100 ca        1 4BB      0.288100
     25 OAF         3.8900    6.7890   -7.3590 oh        1 4BB     -0.467100
     26 HAA        -0.1880    0.6870    1.6110 hc        1 4BB      0.048256
     27 HAAA       -0.2060    1.8290    0.2030 hc        1 4BB      0.048256
     28 HAAB        1.0190    2.0360    1.5280 hc        1 4BB      0.048256
     29 HAB         3.0140   -1.0420    0.6500 hc        1 4BB      0.048256
     30 HABA        1.6730   -0.9760    1.8680 hc        1 4BB      0.048256
     31 HABB        2.8870    0.3660    1.7890 hc        1 4BB      0.048256
     32 HAC         1.2420   -1.4050   -1.1040 hc        1 4BB      0.048256
     33 HACA       -0.1060   -0.1950   -1.3010 hc        1 4BB      0.048256
     34 HACB       -0.0390   -1.2540    0.1640 hc        1 4BB      0.048256
     35 HAM         3.1010    2.3640    0.8710 ha        1 4BB      0.167500
     36 HAK         4.5460    3.7420   -0.6040 ha        1 4BB      0.145500
     37 HAL         1.6650    0.1770   -2.5940 ha        1 4BB      0.167500
     38 HAJ         3.0850    1.5200   -4.0510 ha        1 4BB      0.145500
     39 HNAP        4.8230    3.0900   -5.2580 hn        1 4BB      0.464800
     40 HAI         6.5180    5.3670   -4.7830 h4        1 4BB      0.034800
     41 HAN         7.5200    7.3690   -4.7070 ha        1 4BB      0.164000
     42 HOAE        5.8790   11.1470   -8.0490 ho        1 4BB      0.457000
     43 HOAF        3.3810    7.2710   -8.0400 ho        1 4BB      0.457000
     44 HAP2        3.3190    3.6260   -4.7470 hn        1 4BB      0.464800
@<TRIPOS>BOND
     1    1    2 1   
     2    1   26 1   
     3    1   27 1   
     4    1   28 1   
     5    2    3 1   
     6    2    4 1   
     7    2    5 1   
     8    3   29 1   
     9    3   30 1   
    10    3   31 1   
    11    4   32 1   
    12    4   33 1   
    13    4   34 1   
    14    5    6 ar  
    15    5    8 ar  
    16    6    7 ar  
    17    6   35 1   
    18    7   10 ar  
    19    7   36 1   
    20    8    9 ar  
    21    8   37 1   
    22    9   10 ar  
    23    9   38 1   
    24   10   11 1   
    25   11   12 2   
    26   11   13 1   
    27   13   14 1   
    28   13   39 1   
    29   13   44 1   
    30   14   15 2   
    31   15   16 1   
    32   15   40 1   
    33   16   17 ar  
    34   16   24 ar  
    35   17   18 ar  
    36   17   41 1   
    37   18   19 1   
    38   18   20 ar  
    39   20   21 1   
    40   20   22 ar  
    41   21   42 1   
    42   22   23 1   
    43   22   24 ar  
    44   24   25 1   
    45   25   43 1   
@<TRIPOS>SUBSTRUCTURE
     1 4BB         1 TEMP              0 ****  ****    0 ROOT
