@<TRIPOS>MOLECULE
4BC
   42    45     1     0     0
SMALL
bcc


@<TRIPOS>ATOM
      1 C15         0.1250   -0.6070   -0.1850 ca        1 4BC     -0.080000
      2 C12         1.4720   -0.7070   -0.4630 ca        1 4BC      0.040100
      3 O17         2.4940   -1.1940    0.3570 os        1 4BC     -0.333900
      4 C19         3.7150   -1.1000   -0.4020 c3        1 4BC      0.322200
      5 O18         3.4060   -0.5210   -1.6880 os        1 4BC     -0.351900
      6 C16         2.0280   -0.2970   -1.7000 ca        1 4BC      0.027100
      7 C22         1.2450    0.2260   -2.7070 ca        1 4BC     -0.124000
      8 C20        -0.1270    0.3370   -2.4320 ca        1 4BC     -0.141000
      9 C8         -0.6880   -0.0530   -1.2060 ca        1 4BC      0.034000
     10 C4         -2.1020    0.1140   -0.9830 cc        1 4BC     -0.223300
     11 C1         -3.0110   -0.7350   -0.3050 cd        1 4BC     -0.091900
     12 C7         -2.9270   -2.0710    0.4370 c         1 4BC      0.936200
     13 O21        -3.9540   -2.8000    0.3650 o         1 4BC     -0.802300
     14 O23        -1.8860   -2.3310    1.0890 o         1 4BC     -0.802300
     15 N5         -4.2580   -0.1130   -0.4250 na        1 4BC      0.002400
     16 C2         -2.9200    1.2230   -1.4620 cc        1 4BC      0.307800
     17 N3         -4.2270    1.0280   -1.1000 nd        1 4BC     -0.545800
     18 C6         -2.4730    2.4150   -2.1710 ca        1 4BC     -0.186500
     19 C10        -1.8960    3.4770   -1.4710 ca        1 4BC     -0.040000
     20 C14        -1.4730    4.6430   -2.1180 ca        1 4BC     -0.146300
     21 C26        -0.8650    5.7520   -1.3360 c3        1 4BC     -0.020100
     22 C27         0.5100    5.3970   -0.8200 c3        1 4BC     -0.089100
     23 C13        -1.6510    4.7330   -3.5100 ca        1 4BC      0.146100
     24 O25        -1.2390    5.8950   -4.1310 oh        1 4BC     -0.507100
     25 C11        -2.2270    3.6890   -4.2440 ca        1 4BC     -0.259000
     26 C9         -2.6350    2.5320   -3.5670 ca        1 4BC      0.176100
     27 O24        -3.1800    1.5420   -4.3470 oh        1 4BC     -0.509100
     28 H15        -0.3230   -0.9740    0.7560 ha        1 4BC      0.218000
     29 H191        4.4200   -0.4190    0.1360 h2        1 4BC      0.052700
     30 H192        4.1200   -2.1300   -0.5610 h2        1 4BC      0.052700
     31 H22         1.6640    0.5370   -3.6710 ha        1 4BC      0.137000
     32 H20        -0.7870    0.7500   -3.2120 ha        1 4BC      0.134000
     33 HN5        -5.1160   -0.5160   -0.1190 hn        1 4BC      0.331700
     34 H10        -1.7680    3.3910   -0.3800 ha        1 4BC      0.148000
     35 H261       -1.5350    5.9960   -0.4670 hc        1 4BC      0.044700
     36 H262       -0.7970    6.6750   -1.9730 hc        1 4BC      0.044700
     37 H271        0.4660    4.4790   -0.1840 hc        1 4BC      0.033033
     38 H272        0.9190    6.2370   -0.2080 hc        1 4BC      0.033033
     39 H273        1.2100    5.2020   -1.6670 hc        1 4BC      0.033033
     40 H25        -1.4200    5.8000   -5.0770 ho        1 4BC      0.412000
     41 H11        -2.3620    3.7610   -5.3310 ha        1 4BC      0.140000
     42 H24        -3.4180    0.7980   -3.7690 ho        1 4BC      0.445000
@<TRIPOS>BOND
     1    1    2 ar  
     2    1    9 ar  
     3    1   28 1   
     4    2    3 1   
     5    2    6 ar  
     6    3    4 1   
     7    4    5 1   
     8    4   29 1   
     9    4   30 1   
    10    5    6 1   
    11    6    7 ar  
    12    7    8 ar  
    13    7   31 1   
    14    8    9 ar  
    15    8   32 1   
    16    9   10 1   
    17   10   11 2   
    18   10   16 1   
    19   11   12 1   
    20   11   15 1   
    21   12   13 1   
    22   12   14 1   
    23   15   17 1   
    24   15   33 1   
    25   16   17 2   
    26   16   18 1   
    27   18   19 ar  
    28   18   26 ar  
    29   19   20 ar  
    30   19   34 1   
    31   20   21 1   
    32   20   23 ar  
    33   21   22 1   
    34   21   35 1   
    35   21   36 1   
    36   22   37 1   
    37   22   38 1   
    38   22   39 1   
    39   23   24 1   
    40   23   25 ar  
    41   24   40 1   
    42   25   26 ar  
    43   25   41 1   
    44   26   27 1   
    45   27   42 1   
@<TRIPOS>SUBSTRUCTURE
     1 4BC         1 TEMP              0 ****  ****    0 ROOT
