@<TRIPOS>MOLECULE
4BC
   42    45     1     0     0
SMALL
bcc


@<TRIPOS>ATOM
      1 C15         0.1340   -0.5440   -0.1220 ca        1 4BC     -0.083000
      2 C12         1.4930   -0.5570   -0.3540 ca        1 4BC      0.039100
      3 O17         2.5160   -0.9940    0.4940 os        1 4BC     -0.334900
      4 C19         3.7530   -0.8150   -0.2200 c3        1 4BC      0.322200
      5 O18         3.4540   -0.2320   -1.5060 os        1 4BC     -0.352900
      6 C16         2.0660   -0.0920   -1.5640 ca        1 4BC      0.023100
      7 C22         1.2860    0.4000   -2.5900 ca        1 4BC     -0.127000
      8 C20        -0.0990    0.4230   -2.3610 ca        1 4BC     -0.144000
      9 C8         -0.6760   -0.0220   -1.1610 ca        1 4BC      0.040000
     10 C4         -2.1050    0.0540   -0.9910 cc        1 4BC     -0.229300
     11 C1         -2.9870   -0.8640   -0.3700 cd        1 4BC     -0.088900
     12 C7         -2.8480   -2.1920    0.3750 c         1 4BC      0.935200
     13 O21        -3.8250   -2.9830    0.2750 o         1 4BC     -0.806800
     14 O23        -1.8150   -2.3920    1.0620 o         1 4BC     -0.806800
     15 N5         -4.2660   -0.3260   -0.5470 na        1 4BC      0.000400
     16 C2         -2.9730    1.1120   -1.5000 cc        1 4BC      0.340800
     17 N3         -4.2800    0.8230   -1.2120 nd        1 4BC     -0.534800
     18 C6         -2.5710    2.3400   -2.1690 ca        1 4BC     -0.130500
     19 C10        -1.7990    3.2860   -1.4900 ca        1 4BC     -0.050000
     20 C14        -1.4130    4.4960   -2.0790 ca        1 4BC     -0.141300
     21 C26        -0.5960    5.4730   -1.3110 c3        1 4BC     -0.021100
     22 C27         0.8190    4.9900   -1.0980 c3        1 4BC     -0.090100
     23 C13        -1.8290    4.7560   -3.3960 ca        1 4BC      0.148100
     24 O25        -1.4520    5.9580   -3.9600 oh        1 4BC     -0.505100
     25 C11        -2.6040    3.8320   -4.1090 ca        1 4BC     -0.312000
     26 C9         -2.9700    2.6280   -3.4930 ca        1 4BC      0.170100
     27 O24        -3.7160    1.6840   -4.1550 oh        1 4BC     -0.467100
     28 H15        -0.3230   -0.9550    0.7970 ha        1 4BC      0.219000
     29 H191        4.2240   -1.8160   -0.3830 h2        1 4BC      0.051700
     30 H192        4.3980   -0.1040    0.3520 h2        1 4BC      0.051700
     31 H22         1.7180    0.7510   -3.5330 ha        1 4BC      0.134000
     32 H20        -0.7580    0.8050   -3.1560 ha        1 4BC      0.138000
     33 HN5        -5.1070   -0.7990   -0.3040 hn        1 4BC      0.328700
     34 H10        -1.4820    3.0680   -0.4570 ha        1 4BC      0.154000
     35 H261       -0.5770    6.4590   -1.8490 hc        1 4BC      0.045200
     36 H262       -1.0820    5.6480   -0.3130 hc        1 4BC      0.045200
     37 H271        1.3420    4.8600   -2.0760 hc        1 4BC      0.034367
     38 H272        0.8230    4.0080   -0.5660 hc        1 4BC      0.034367
     39 H273        1.3890    5.7300   -0.4870 hc        1 4BC      0.034367
     40 H25        -1.8080    5.9830   -4.8590 ho        1 4BC      0.409000
     41 H11        -2.9210    4.0480   -5.1370 ha        1 4BC      0.123000
     42 H24        -3.9420    2.0430   -5.0260 ho        1 4BC      0.404000
@<TRIPOS>BOND
     1    1    2 ar  
     2    1    9 ar  
     3    1   28 1   
     4    2    3 1   
     5    2    6 ar  
     6    3    4 1   
     7    4    5 1   
     8    4   29 1   
     9    4   30 1   
    10    5    6 1   
    11    6    7 ar  
    12    7    8 ar  
    13    7   31 1   
    14    8    9 ar  
    15    8   32 1   
    16    9   10 1   
    17   10   11 2   
    18   10   16 1   
    19   11   12 1   
    20   11   15 1   
    21   12   13 1   
    22   12   14 1   
    23   15   17 1   
    24   15   33 1   
    25   16   17 2   
    26   16   18 1   
    27   18   19 ar  
    28   18   26 ar  
    29   19   20 ar  
    30   19   34 1   
    31   20   21 1   
    32   20   23 ar  
    33   21   22 1   
    34   21   35 1   
    35   21   36 1   
    36   22   37 1   
    37   22   38 1   
    38   22   39 1   
    39   23   24 1   
    40   23   25 ar  
    41   24   40 1   
    42   25   26 ar  
    43   25   41 1   
    44   26   27 1   
    45   27   42 1   
@<TRIPOS>SUBSTRUCTURE
     1 4BC         1 TEMP              0 ****  ****    0 ROOT
