@<TRIPOS>MOLECULE
4BC
   42    37     1     0     0
SMALL
bcc


@<TRIPOS>ATOM
      1 C15         0.8200   -1.9210    0.0340 c1        1 4BC     -0.116000
      2 C12         2.2220   -1.9160    0.0470 c1        1 4BC     -0.014000
      3 O17         3.1860   -2.3330   -0.9170 os        1 4BC     -0.231000
      4 C19         4.4600   -2.0580   -0.4020 c3        1 4BC      0.102000
      5 O18         4.2990   -1.5380    0.8900 os        1 4BC     -0.233000
      6 C16         2.9010   -1.4780    1.1700 c2        1 4BC     -0.024000
      7 C22         2.1880   -1.0400    2.2930 c2        1 4BC     -0.114000
      8 C20         0.7980   -1.0450    2.2800 c1        1 4BC     -0.111000
      9 C8          0.1140   -1.4860    1.1490 c1        1 4BC      0.041000
     10 C4         -1.2720   -1.4660    1.1260 c1        1 4BC     -0.155000
     11 C1         -2.0960   -2.4560    1.5760 c1        1 4BC     -0.046000
     12 C7         -1.6590   -3.7830    2.1560 c1        1 4BC      0.385000
     13 O21        -1.4140   -3.8820    3.3870 o         1 4BC     -0.543000
     14 O23        -1.5650   -4.7940    1.4120 o         1 4BC     -0.543000
     15 N5         -3.3710   -2.0570    1.3820 n2        1 4BC     -0.144000
     16 C2         -2.0520   -0.4520    0.6520 c2        1 4BC     -0.094000
     17 N3         -3.3430   -0.8110    0.8080 n2        1 4BC     -0.111000
     18 C6         -1.5990    0.7630    0.1610 c1        1 4BC     -0.023000
     19 C10        -1.3910    0.9260   -1.1990 c1        1 4BC     -0.056000
     20 C14        -1.0190    2.1640   -1.7010 c1        1 4BC     -0.136000
     21 C26        -0.8650    2.3600   -3.1930 c2        1 4BC     -0.107000
     22 C27         0.5770    2.1270   -3.5870 c3        1 4BC     -0.207000
     23 C13        -0.8550    3.2390   -0.8410 c2        1 4BC      0.107000
     24 O25        -0.5260    4.5060   -1.3550 oh        1 4BC     -0.260000
     25 C11        -1.0630    3.0760    0.5200 c1        1 4BC     -0.308000
     26 C9         -1.4350    1.8380    1.0210 c1        1 4BC      0.133000
     27 O24        -1.6870    1.6830    2.3960 oh        1 4BC     -0.220000
     28 H15         0.3410   -2.2280   -0.7590 ha        1 4BC      0.150000
     29 H191        4.9740   -2.8930   -0.3510 h2        1 4BC      0.089500
     30 H192        4.8990   -1.3870   -0.9670 h2        1 4BC      0.089500
     31 H22         2.6670   -0.7420    3.0900 ha        1 4BC      0.143000
     32 H20         0.3010   -0.7410    3.0630 ha        1 4BC      0.206000
     33 HN5        -4.1190   -2.5320    1.5960 DU        1 4BC      0.279000
     34 H10        -1.5120    0.1710   -1.8050 ha        1 4BC      0.148000
     35 H261       -1.4390    1.7240   -3.6660 ha        1 4BC      0.084500
     36 H262       -1.1250    3.2730   -3.4310 ha        1 4BC      0.084500
     37 H271        0.6100    1.5590   -4.3850 hc        1 4BC      0.073000
     38 H272        1.0490    1.6840   -2.8510 hc        1 4BC      0.073000
     39 H273        1.0060    2.9870   -3.7790 hc        1 4BC      0.073000
     40 H25         0.2370    4.7840   -0.9930 ho        1 4BC      0.209000
     41 H11        -0.9460    3.8320    1.1250 ha        1 4BC      0.124000
     42 H24        -1.2970    2.3450    2.8460 ho        1 4BC      0.205000
@<TRIPOS>BOND
     1    1    9 1   
     2    1   28 1   
     3    2    3 1   
     4    2    6 1   
     5    3    4 1   
     6    4    5 1   
     7    4   29 1   
     8    4   30 1   
     9    5    6 1   
    10    6    7 1   
    11    7    8 1   
    12    7   31 1   
    13    8   32 1   
    14   10   11 1   
    15   10   16 1   
    16   11   15 1   
    17   12   13 1   
    18   12   14 1   
    19   15   17 1   
    20   16   17 1   
    21   16   18 1   
    22   18   26 1   
    23   19   20 1   
    24   19   34 1   
    25   20   23 1   
    26   21   22 1   
    27   21   35 1   
    28   21   36 1   
    29   22   37 1   
    30   22   38 1   
    31   22   39 1   
    32   23   24 1   
    33   23   25 1   
    34   24   40 1   
    35   25   41 1   
    36   26   27 1   
    37   27   42 1   
@<TRIPOS>SUBSTRUCTURE
     1 4BC         1 TEMP              0 ****  ****    0 ROOT
