@<TRIPOS>MOLECULE
4BC
   42    45     1     0     0
SMALL
bcc


@<TRIPOS>ATOM
      1 C15         0.4650   -0.3490   -2.4290 ca        1 4BC     -0.081000
      2 C12         1.6890    0.1500   -2.8200 ca        1 4BC      0.040100
      3 O17         2.4830   -0.2460   -3.9010 os        1 4BC     -0.333900
      4 C19         3.6520    0.5960   -3.8870 c3        1 4BC      0.322200
      5 O18         3.5570    1.4860   -2.7540 os        1 4BC     -0.351900
      6 C16         2.3440    1.1970   -2.1260 ca        1 4BC      0.026100
      7 C22         1.7850    1.7850   -1.0100 ca        1 4BC     -0.125000
      8 C20         0.5410    1.2790   -0.6000 ca        1 4BC     -0.141000
      9 C8         -0.1110    0.2340   -1.2720 ca        1 4BC      0.033000
     10 C4         -1.3750   -0.2500   -0.7780 cc        1 4BC     -0.223300
     11 C1         -2.5170   -0.6830   -1.4970 cd        1 4BC     -0.090900
     12 C7         -2.8970   -0.8450   -2.9700 c         1 4BC      0.936200
     13 O21        -4.1130   -0.6540   -3.2440 o         1 4BC     -0.802800
     14 O23        -2.0070   -1.1930   -3.7850 o         1 4BC     -0.802800
     15 N5         -3.4710   -0.9940   -0.5220 na        1 4BC      0.002400
     16 C2         -1.7610   -0.3550    0.6250 cc        1 4BC      0.310800
     17 N3         -3.0510   -0.8070    0.7220 nd        1 4BC     -0.548800
     18 C6         -0.9270   -0.1010    1.7920 ca        1 4BC     -0.190500
     19 C10         0.0940   -0.9920    2.1280 ca        1 4BC     -0.034000
     20 C14         0.9080   -0.7920    3.2470 ca        1 4BC     -0.204300
     21 C26         1.9800   -1.7740    3.5640 c3        1 4BC     -0.026100
     22 C27         3.3520   -1.2760    3.1710 c3        1 4BC     -0.097100
     23 C13         0.6740    0.3420    4.0480 ca        1 4BC      0.150100
     24 O25         1.4080    0.6370    5.1780 oh        1 4BC     -0.510100
     25 C11        -0.3440    1.2540    3.7450 ca        1 4BC     -0.204000
     26 C9         -1.1410    1.0260    2.6150 ca        1 4BC      0.174100
     27 O24        -2.1110    1.9650    2.3710 oh        1 4BC     -0.505100
     28 H15        -0.0750   -1.1310   -2.9950 ha        1 4BC      0.219000
     29 H191        3.6680    1.2080   -4.8220 h2        1 4BC      0.052700
     30 H192        4.5570   -0.0490   -3.7570 h2        1 4BC      0.052700
     31 H22         2.2780    2.6020   -0.4720 ha        1 4BC      0.137000
     32 H20         0.0620    1.7220    0.2880 ha        1 4BC      0.136000
     33 HN5        -4.4130   -1.2480   -0.7230 hn        1 4BC      0.331700
     34 H10         0.2600   -1.8740    1.4870 ha        1 4BC      0.147000
     35 H261        1.7730   -2.7380    3.0240 hc        1 4BC      0.040700
     36 H262        1.9640   -2.0130    4.6620 hc        1 4BC      0.040700
     37 H271        4.1280   -2.0300    3.4470 hc        1 4BC      0.035367
     38 H272        3.4010   -1.1000    2.0700 hc        1 4BC      0.035367
     39 H273        3.5910   -0.3150    3.6870 hc        1 4BC      0.035367
     40 H25         2.1190   -0.0150    5.2550 ho        1 4BC      0.416000
     41 H11        -0.5150    2.1320    4.3810 ha        1 4BC      0.156000
     42 H24        -2.5880    1.7070    1.5650 ho        1 4BC      0.444000
@<TRIPOS>BOND
     1    1    2 ar  
     2    1    9 ar  
     3    1   28 1   
     4    2    3 1   
     5    2    6 ar  
     6    3    4 1   
     7    4    5 1   
     8    4   29 1   
     9    4   30 1   
    10    5    6 1   
    11    6    7 ar  
    12    7    8 ar  
    13    7   31 1   
    14    8    9 ar  
    15    8   32 1   
    16    9   10 1   
    17   10   11 2   
    18   10   16 1   
    19   11   12 1   
    20   11   15 1   
    21   12   13 1   
    22   12   14 1   
    23   15   17 1   
    24   15   33 1   
    25   16   17 2   
    26   16   18 1   
    27   18   19 ar  
    28   18   26 ar  
    29   19   20 ar  
    30   19   34 1   
    31   20   21 1   
    32   20   23 ar  
    33   21   22 1   
    34   21   35 1   
    35   21   36 1   
    36   22   37 1   
    37   22   38 1   
    38   22   39 1   
    39   23   24 1   
    40   23   25 ar  
    41   24   40 1   
    42   25   26 ar  
    43   25   41 1   
    44   26   27 1   
    45   27   42 1   
@<TRIPOS>SUBSTRUCTURE
     1 4BC         1 TEMP              0 ****  ****    0 ROOT
