@<TRIPOS>MOLECULE
4BE
   31    32     1     0     0
SMALL
bcc


@<TRIPOS>ATOM
      1 CAJ        -4.9250   -1.2500    0.5140 ca        1 4BE     -0.091000
      2 CAH        -6.2550   -0.8490    0.6220 ca        1 4BE     -0.110000
      3 CAP        -6.6770    0.3430    0.0250 ca        1 4BE     -0.005900
      4 BRAD       -8.4630    0.8840    0.1720 br        1 4BE     -0.070100
      5 CAI        -5.7650    1.1290   -0.6870 ca        1 4BE     -0.110000
      6 CAK        -4.4330    0.7320   -0.7900 ca        1 4BE     -0.091000
      7 CAU        -4.0100   -0.4550   -0.1850 ca        1 4BE     -0.140600
      8 CAO        -2.6020   -0.9340   -0.2930 c         1 4BE      0.695700
      9 OAA        -2.3180   -2.1090   -0.5590 o         1 4BE     -0.531100
     10 NAN        -1.6270    0.0630   -0.0580 n         1 4BE     -0.333900
     11 NAM        -0.3240   -0.1980   -0.0980 n2        1 4BE     -0.475300
     12 CAG         0.5710    0.7060    0.2020 ce        1 4BE      0.395800
     13 CAT         2.0100    0.4470    0.1490 ca        1 4BE     -0.256900
     14 CAL         2.8370    1.5320    0.4750 ca        1 4BE     -0.011000
     15 CAQ         4.2230    1.4360    0.4690 ca        1 4BE     -0.107900
     16 BRAE        5.2180    2.9550    0.9230 br        1 4BE     -0.055100
     17 CAR         4.8170    0.2020    0.1230 ca        1 4BE      0.232100
     18 OAB         6.1830    0.1580    0.1320 oh        1 4BE     -0.471100
     19 CAV         4.0220   -0.9110   -0.2110 ca        1 4BE     -0.171900
     20 BRAF        4.8510   -2.5370   -0.6660 br        1 4BE     -0.053100
     21 CAS         2.6110   -0.7850   -0.1970 ca        1 4BE      0.262100
     22 OAC         1.9200   -1.9090   -0.5320 oh        1 4BE     -0.479100
     23 HAJ        -4.5910   -2.1980    0.9660 ha        1 4BE      0.152500
     24 HAH        -6.9680   -1.4800    1.1760 ha        1 4BE      0.155500
     25 HAI        -6.0910    2.0630   -1.1710 ha        1 4BE      0.155500
     26 HAK        -3.7300    1.3500   -1.3690 ha        1 4BE      0.152500
     27 HNAN       -1.9550    0.9650    0.2370 hn        1 4BE      0.303500
     28 HAG         0.3140    1.7430    0.5170 h4        1 4BE     -0.006200
     29 HAL         2.3670    2.4940    0.7450 ha        1 4BE      0.149000
     30 HOAB        6.4700   -0.7390   -0.1220 ho        1 4BE      0.442000
     31 HOAC        0.9600   -1.7490   -0.5020 ho        1 4BE      0.473000
@<TRIPOS>BOND
     1    1    2 ar  
     2    1    7 ar  
     3    1   23 1   
     4    2    3 ar  
     5    2   24 1   
     6    3    4 1   
     7    3    5 ar  
     8    5    6 ar  
     9    5   25 1   
    10    6    7 ar  
    11    6   26 1   
    12    7    8 1   
    13    8    9 2   
    14    8   10 1   
    15   10   11 1   
    16   10   27 1   
    17   11   12 2   
    18   12   13 1   
    19   12   28 1   
    20   13   14 ar  
    21   13   21 ar  
    22   14   15 ar  
    23   14   29 1   
    24   15   16 1   
    25   15   17 ar  
    26   17   18 1   
    27   17   19 ar  
    28   18   30 1   
    29   19   20 1   
    30   19   21 ar  
    31   21   22 1   
    32   22   31 1   
@<TRIPOS>SUBSTRUCTURE
     1 4BE         1 TEMP              0 ****  ****    0 ROOT
