@<TRIPOS>MOLECULE
4BE
   32    33     1     0     0
SMALL
bcc


@<TRIPOS>ATOM
      1 CAJ        -0.3040   -1.4790    1.2240 ca        1 4BE     -0.066500
      2 CAH         0.8420   -1.4190    0.4340 ca        1 4BE     -0.102500
      3 CAP         1.6330   -0.2650    0.4260 ca        1 4BE      0.030100
      4 BrAD        3.1660   -0.1830   -0.6310 br        1 4BE     -0.000100
      5 CAI         1.2710    0.8310    1.2240 ca        1 4BE     -0.102500
      6 CAK         0.1250    0.7800    2.0090 ca        1 4BE     -0.066500
      7 CAU        -0.6750   -0.3730    2.0070 ca        1 4BE     -0.198600
      8 CAO        -1.8810   -0.5050    2.8210 c         1 4BE      0.565700
      9 OAA        -2.3570   -1.5180    3.3160 o         1 4BE     -0.439100
     10 NAN        -2.6650    0.7930    3.0680 ny        1 4BE     -0.366900
     11 NAM        -4.0430    0.8180    2.8320 n2        1 4BE     -0.549400
     12 CAG        -4.8620   -0.0440    3.3900 ce        1 4BE      0.576800
     13 CAT        -6.2960   -0.0420    3.1900 ca        1 4BE     -0.289900
     14 CAL        -6.9790   -1.2110    3.5950 ca        1 4BE      0.015000
     15 CAQ        -8.3440   -1.3620    3.4440 ca        1 4BE     -0.108900
     16 BrAE       -9.1350   -2.9600    4.0070 br        1 4BE     -0.002100
     17 CAR        -9.0920   -0.2960    2.8660 ca        1 4BE      0.292100
     18 OAB       -10.4250   -0.5000    2.7350 oh        1 4BE     -0.440100
     19 CAV        -8.4510    0.8940    2.4680 ca        1 4BE     -0.250900
     20 BrAF       -9.4440    2.3010    1.7220 br        1 4BE     -0.030100
     21 CAS        -7.0530    1.0190    2.6340 ca        1 4BE      0.292100
     22 OAC        -6.3800    2.1510    2.2990 oh        1 4BE     -0.465100
     23 HAJ        -0.9190   -2.3950    1.2370 ha        1 4BE      0.153000
     24 HAH         1.1190   -2.2940   -0.1810 ha        1 4BE      0.179000
     25 HAI         1.8970    1.7400    1.2370 ha        1 4BE      0.179000
     26 HAK        -0.1120    1.6470    2.6460 ha        1 4BE      0.153000
     27 HNAN       -2.4540    1.1000    4.0320 hn        1 4BE      0.465300
     28 HAG        -4.5080   -0.8770    4.0510 h4        1 4BE      0.034800
     29 HAL        -6.3930   -2.0360    4.0430 ha        1 4BE      0.164000
     30 HOAB      -10.8450    0.2860    2.3340 ho        1 4BE      0.459000
     31 HOAC       -7.0060    2.8050    1.9310 ho        1 4BE      0.458000
     32 HAN2       -2.3100    1.5130    2.4110 hn        1 4BE      0.465300
@<TRIPOS>BOND
     1    1    2 ar  
     2    1    7 ar  
     3    1   23 1   
     4    2    3 ar  
     5    2   24 1   
     6    3    4 1   
     7    3    5 ar  
     8    5    6 ar  
     9    5   25 1   
    10    6    7 ar  
    11    6   26 1   
    12    7    8 1   
    13    8    9 2   
    14    8   10 1   
    15   10   11 1   
    16   10   27 1   
    17   10   32 1   
    18   11   12 2   
    19   12   13 1   
    20   12   28 1   
    21   13   14 ar  
    22   13   21 ar  
    23   14   15 ar  
    24   14   29 1   
    25   15   16 1   
    26   15   17 ar  
    27   17   18 1   
    28   17   19 ar  
    29   18   30 1   
    30   19   20 1   
    31   19   21 ar  
    32   21   22 1   
    33   22   31 1   
@<TRIPOS>SUBSTRUCTURE
     1 4BE         1 TEMP              0 ****  ****    0 ROOT
