@<TRIPOS>MOLECULE
4BE
   31    26     1     0     0
SMALL
bcc


@<TRIPOS>ATOM
      1 CAJ         1.9280   -3.6860    0.7360 c1        1 4BE     -0.080000
      2 CAH         1.5780   -5.0160    0.5460 c1        1 4BE     -0.110000
      3 CAP         0.4970   -5.3400   -0.2570 c1        1 4BE     -0.147000
      4 BRAD        0.0430   -7.1750   -0.5570 br        1 4BE      0.076000
      5 CAI        -0.2370   -4.3350   -0.8720 c2        1 4BE     -0.110000
      6 CAK         0.1130   -3.0060   -0.6830 c1        1 4BE     -0.103000
      7 CAU         1.1950   -2.6810    0.1210 c1        1 4BE     -0.120000
      8 CAO         1.5270   -1.2180    0.3970 c2        1 4BE      0.365000
      9 OAA         2.4340   -0.9340    1.1560 o         1 4BE     -0.288000
     10 NAN         0.8130   -0.1800   -0.2840 n         1 4BE     -0.324000
     11 NAM         1.4780    0.6500   -1.1760 n2        1 4BE      0.009000
     12 CAG         1.0920    1.9070   -1.3250 c1        1 4BE     -0.121000
     13 CAT        -0.0820    2.4430   -0.5190 c1        1 4BE     -0.195000
     14 CAL        -1.3760    2.0610   -0.8440 c2        1 4BE     -0.028000
     15 CAQ        -2.4550    2.6370   -0.1890 c1        1 4BE     -0.195000
     16 BRAE       -4.2390    2.1360   -0.6620 br        1 4BE      0.076000
     17 CAR        -2.2400    3.5950    0.7920 c2        1 4BE      0.185500
     18 OAB        -3.3360    4.1910    1.4460 oh        1 4BE     -0.224500
     19 CAV        -0.9490    3.9770    1.1170 c1        1 4BE     -0.354000
     20 BRAF       -0.6550    5.3020    2.4660 br        1 4BE      0.076000
     21 CAS         0.1320    3.4010    0.4620 c2        1 4BE      0.185500
     22 OAC         1.4340    3.8670    0.7140 oh        1 4BE     -0.224500
     23 HAJ         2.6900   -3.4580    1.3020 ha        1 4BE      0.160000
     24 HAH         2.0940   -5.7250    0.9800 ha        1 4BE      0.155000
     25 HAI        -0.9990   -4.5630   -1.4380 ha        1 4BE      0.154000
     26 HAK        -0.4020   -2.3010   -1.1140 ha        1 4BE      0.144000
     27 HNAN       -0.0850   -0.0870   -0.1570 hn        1 4BE      0.214000
     28 HAG         1.5610    2.4910   -1.9530 ha        1 4BE      0.184000
     29 HAL        -1.5300    1.4350   -1.5780 ha        1 4BE      0.160000
     30 HOAB       -3.5610    4.9390    1.0240 ho        1 4BE      0.239000
     31 HOAC        1.5370    4.6740    0.3500 ho        1 4BE      0.239000
@<TRIPOS>BOND
     1    1    7 1   
     2    1   23 1   
     3    2    3 1   
     4    2   24 1   
     5    3    5 1   
     6    5    6 1   
     7    5   25 1   
     8    6   26 1   
     9    7    8 1   
    10    8    9 1   
    11    8   10 1   
    12   10   11 1   
    13   10   27 1   
    14   11   12 1   
    15   12   28 1   
    16   13   14 1   
    17   13   21 1   
    18   14   15 1   
    19   14   29 1   
    20   15   17 1   
    21   17   18 1   
    22   17   19 1   
    23   18   30 1   
    24   19   21 1   
    25   21   22 1   
    26   22   31 1   
@<TRIPOS>SUBSTRUCTURE
     1 4BE         1 TEMP              0 ****  ****    0 ROOT
