@<TRIPOS>MOLECULE
4BE
   32    33     1     0     0
SMALL
bcc


@<TRIPOS>ATOM
      1 CAJ        -0.2760   -1.4070    1.2210 ca        1 4BE     -0.066500
      2 CAH         0.8650   -1.3280    0.4250 ca        1 4BE     -0.102500
      3 CAP         1.6290   -0.1560    0.4030 ca        1 4BE      0.030100
      4 BRAD        3.1560   -0.0490   -0.6610 br        1 4BE     -0.000100
      5 CAI         1.2440    0.9390    1.1920 ca        1 4BE     -0.102500
      6 CAK         0.1030    0.8700    1.9820 ca        1 4BE     -0.066500
      7 CAU        -0.6690   -0.3030    1.9940 ca        1 4BE     -0.198600
      8 CAO        -1.8690   -0.4550    2.8150 c         1 4BE      0.565700
      9 OAA        -2.3190   -1.4740    3.3210 o         1 4BE     -0.439100
     10 NAN        -2.6820    0.8270    3.0530 n4        1 4BE     -0.366900
     11 NAM        -4.0610    0.8180    2.8240 n2        1 4BE     -0.549400
     12 CAG        -4.8560   -0.0580    3.3940 ce        1 4BE      0.576800
     13 CAT        -6.2920   -0.0910    3.2020 ca        1 4BE     -0.289900
     14 CAL        -6.9450   -1.2740    3.6180 ca        1 4BE      0.015000
     15 CAQ        -8.3070   -1.4570    3.4750 ca        1 4BE     -0.108900
     16 BRAE       -9.0570   -3.0690    4.0530 br        1 4BE     -0.002100
     17 CAR        -9.0820   -0.4130    2.8940 ca        1 4BE      0.292100
     18 OAB       -10.4110   -0.6500    2.7700 oh        1 4BE     -0.440100
     19 CAV        -8.4710    0.7880    2.4840 ca        1 4BE     -0.250900
     20 BRAF       -9.5010    2.1670    1.7340 br        1 4BE     -0.030100
     21 CAS        -7.0760    0.9470    2.6420 ca        1 4BE      0.292100
     22 OAC        -6.4320    2.0930    2.2960 oh        1 4BE     -0.465100
     23 HAJ        -0.8690   -2.3370    1.2450 ha        1 4BE      0.153000
     24 HAH         1.1610   -2.2020   -0.1820 ha        1 4BE      0.179000
     25 HAI         1.8500    1.8620    1.1930 ha        1 4BE      0.179000
     26 HAK        -0.1510    1.7360    2.6110 ha        1 4BE      0.153000
     27 HNAN       -2.4730    1.1490    4.0120 hn        1 4BE      0.465300
     28 HAG        -4.4800   -0.8770    4.0610 h4        1 4BE      0.034800
     29 HAL        -6.3370   -2.0810    4.0690 ha        1 4BE      0.164000
     30 HOAB      -10.8510    0.1230    2.3660 ho        1 4BE      0.459000
     31 HOAC       -7.0750    2.7290    1.9270 ho        1 4BE      0.458000
     32 HAN2       -2.3470    1.5480    2.3870 hn        1 4BE      0.465300
@<TRIPOS>BOND
     1    1    2 ar  
     2    1    7 ar  
     3    1   23 1   
     4    2    3 ar  
     5    2   24 1   
     6    3    4 1   
     7    3    5 ar  
     8    5    6 ar  
     9    5   25 1   
    10    6    7 ar  
    11    6   26 1   
    12    7    8 1   
    13    8    9 2   
    14    8   10 1   
    15   10   11 1   
    16   10   27 1   
    17   10   32 1   
    18   11   12 2   
    19   12   13 1   
    20   12   28 1   
    21   13   14 ar  
    22   13   21 ar  
    23   14   15 ar  
    24   14   29 1   
    25   15   16 1   
    26   15   17 ar  
    27   17   18 1   
    28   17   19 ar  
    29   18   30 1   
    30   19   20 1   
    31   19   21 ar  
    32   21   22 1   
    33   22   31 1   
@<TRIPOS>SUBSTRUCTURE
     1 4BE         1 TEMP              0 ****  ****    0 ROOT
