@<TRIPOS>MOLECULE
4BE
   32    33     1     0     0
SMALL
bcc


@<TRIPOS>ATOM
      1 CAJ        -0.3050   -1.4780    1.2220 ca        1 4BE     -0.066500
      2 CAH         0.8410   -1.4180    0.4320 ca        1 4BE     -0.102500
      3 CAP         1.6320   -0.2640    0.4260 ca        1 4BE      0.030100
      4 BRAD        3.1650   -0.1810   -0.6320 br        1 4BE     -0.000100
      5 CAI         1.2710    0.8310    1.2250 ca        1 4BE     -0.102500
      6 CAK         0.1250    0.7800    2.0100 ca        1 4BE     -0.066500
      7 CAU        -0.6750   -0.3730    2.0070 ca        1 4BE     -0.198600
      8 CAO        -1.8810   -0.5060    2.8220 c         1 4BE      0.565700
      9 OAA        -2.3570   -1.5190    3.3160 o         1 4BE     -0.439100
     10 NAN        -2.6640    0.7920    3.0700 n4        1 4BE     -0.366900
     11 NAM        -4.0420    0.8180    2.8340 n2        1 4BE     -0.549400
     12 CAG        -4.8610   -0.0440    3.3900 ce        1 4BE      0.576800
     13 CAT        -6.2960   -0.0430    3.1900 ca        1 4BE     -0.289900
     14 CAL        -6.9790   -1.2110    3.5970 ca        1 4BE      0.015000
     15 CAQ        -8.3450   -1.3610    3.4460 ca        1 4BE     -0.108900
     16 BRAE       -9.1360   -2.9580    4.0120 br        1 4BE     -0.002100
     17 CAR        -9.0920   -0.2960    2.8670 ca        1 4BE      0.292100
     18 OAB       -10.4250   -0.5000    2.7350 oh        1 4BE     -0.440100
     19 CAV        -8.4500    0.8930    2.4660 ca        1 4BE     -0.250900
     20 BRAF       -9.4430    2.3000    1.7180 br        1 4BE     -0.030100
     21 CAS        -7.0520    1.0180    2.6320 ca        1 4BE      0.292100
     22 OAC        -6.3790    2.1490    2.2950 oh        1 4BE     -0.465100
     23 HAJ        -0.9210   -2.3940    1.2340 ha        1 4BE      0.153000
     24 HAH         1.1170   -2.2920   -0.1840 ha        1 4BE      0.179000
     25 HAI         1.8980    1.7400    1.2390 ha        1 4BE      0.179000
     26 HAK        -0.1110    1.6460    2.6480 ha        1 4BE      0.153000
     27 HNAN       -2.4540    1.0980    4.0340 hn        1 4BE      0.465300
     28 HAG        -4.5080   -0.8780    4.0510 h4        1 4BE      0.034800
     29 HAL        -6.3940   -2.0350    4.0460 ha        1 4BE      0.164000
     30 HOAB      -10.8450    0.2860    2.3340 ho        1 4BE      0.459000
     31 HOAC       -7.0050    2.8030    1.9260 ho        1 4BE      0.458000
     32 HAN2       -2.3100    1.5130    2.4140 hn        1 4BE      0.465300
@<TRIPOS>BOND
     1    1    2 ar  
     2    1    7 ar  
     3    1   23 1   
     4    2    3 ar  
     5    2   24 1   
     6    3    4 1   
     7    3    5 ar  
     8    5    6 ar  
     9    5   25 1   
    10    6    7 ar  
    11    6   26 1   
    12    7    8 1   
    13    8    9 2   
    14    8   10 1   
    15   10   11 1   
    16   10   27 1   
    17   10   32 1   
    18   11   12 2   
    19   12   13 1   
    20   12   28 1   
    21   13   14 ar  
    22   13   21 ar  
    23   14   15 ar  
    24   14   29 1   
    25   15   16 1   
    26   15   17 ar  
    27   17   18 1   
    28   17   19 ar  
    29   18   30 1   
    30   19   20 1   
    31   19   21 ar  
    32   21   22 1   
    33   22   31 1   
@<TRIPOS>SUBSTRUCTURE
     1 4BE         1 TEMP              0 ****  ****    0 ROOT
