@<TRIPOS>MOLECULE
4BF
   22    22     1     0     0
SMALL
bcc


@<TRIPOS>ATOM
      1 CD1        -0.1080   -1.3660    0.2330 ca        1 4BF     -0.129500
      2 CE1         1.2700   -1.3460    0.0320 ca        1 4BF     -0.112500
      3 CZ          1.9740   -0.1460    0.1590 ca        1 4BF     -0.044900
      4 BR          3.8350   -0.1160   -0.1020 br        1 4BF     -0.142100
      5 CE2         1.2930    1.0310    0.4770 ca        1 4BF     -0.112500
      6 CD2        -0.0840    1.0040    0.6790 ca        1 4BF     -0.129500
      7 CG         -0.8020   -0.1940    0.5640 ca        1 4BF     -0.017300
      8 CB         -2.2700   -0.2300    0.7980 c3        1 4BF     -0.039100
      9 CA         -3.0800    0.2340   -0.4190 c3        1 4BF      0.021500
     10 N          -2.9600    1.6640   -0.6670 n3        1 4BF     -0.889800
     11 C          -4.5540   -0.2700   -0.2360 c         1 4BF      0.888600
     12 OXT        -4.7200   -1.4910    0.0350 o         1 4BF     -0.838800
     13 O          -5.4870    0.5670   -0.3900 o         1 4BF     -0.838800
     14 HD1        -0.6630   -2.3110    0.1260 ha        1 4BF      0.145500
     15 HE1         1.7950   -2.2770   -0.2280 ha        1 4BF      0.129000
     16 HE2         1.8370    1.9830    0.5660 ha        1 4BF      0.129000
     17 HD2        -0.6250    1.9350    0.9090 ha        1 4BF      0.145500
     18 HB3        -2.5220    0.4040    1.6890 hc        1 4BF      0.062700
     19 HB2        -2.6020   -1.2820    1.0240 hc        1 4BF      0.062700
     20 HCA        -2.6760   -0.2930   -1.3310 h1        1 4BF      0.046700
     21 H          -3.5780    1.8850   -1.4310 hn        1 4BF      0.331800
     22 H2         -3.3250    2.1530    0.1330 hn        1 4BF      0.331800
@<TRIPOS>BOND
     1    1    2 ar  
     2    1    7 ar  
     3    1   14 1   
     4    2    3 ar  
     5    2   15 1   
     6    3    4 1   
     7    3    5 ar  
     8    5    6 ar  
     9    5   16 1   
    10    6    7 ar  
    11    6   17 1   
    12    7    8 1   
    13    8    9 1   
    14    8   18 1   
    15    8   19 1   
    16    9   10 1   
    17    9   11 1   
    18    9   20 1   
    19   10   21 1   
    20   10   22 1   
    21   11   12 1   
    22   11   13 1   
@<TRIPOS>SUBSTRUCTURE
     1 4BF         1 TEMP              0 ****  ****    0 ROOT
