@<TRIPOS>MOLECULE
4BG
   36    37     1     0     0
SMALL
bcc


@<TRIPOS>ATOM
      1 C1          0.1160    0.6250    0.0260 ca        1 4BG     -0.107500
      2 C2          1.5070    0.6410    0.1170 ca        1 4BG     -0.128000
      3 C3          2.1440    0.0490    1.2090 ca        1 4BG     -0.113000
      4 C4          1.3890   -0.5590    2.2110 ca        1 4BG     -0.128000
      5 C5         -0.0030   -0.5700    2.1280 ca        1 4BG     -0.107500
      6 C6         -0.6430    0.0240    1.0360 ca        1 4BG     -0.109300
      7 C7         -2.1320    0.0560    0.9500 c3        1 4BG      0.176700
      8 O8         -2.6080   -1.2440    1.3490 os        1 4BG     -0.311900
      9 C9         -3.9660   -1.4320    1.3000 ca        1 4BG      0.155100
     10 C12        -4.3950   -2.7310    1.6420 ca        1 4BG     -0.165000
     11 C13        -5.7460   -3.0400    1.6330 ca        1 4BG     -0.097000
     12 C10        -4.9040   -0.4490    0.9530 ca        1 4BG     -0.165000
     13 C11        -6.2590   -0.7590    0.9490 ca        1 4BG     -0.097000
     14 C14        -6.6960   -2.0570    1.2860 ca        1 4BG     -0.039400
     15 N15        -8.0900   -2.3290    1.2380 ns        1 4BG     -0.404100
     16 C16        -8.7180   -3.3350    1.9000 c         1 4BG      0.645100
     17 O17        -8.1870   -4.2170    2.6070 o         1 4BG     -0.603100
     18 C18       -10.2600   -3.4100    1.7140 c3        1 4BG     -0.000200
     19 N19       -10.8480   -4.3950    2.6600 nz        1 4BG     -0.829600
     20 H1         -0.3820    1.0870   -0.8400 ha        1 4BG      0.136500
     21 H2          2.1020    1.1190   -0.6750 ha        1 4BG      0.139500
     22 H3          3.2420    0.0610    1.2770 ha        1 4BG      0.140000
     23 H4          1.8900   -1.0300    3.0700 ha        1 4BG      0.139500
     24 H5         -0.6040   -1.0540    2.9130 ha        1 4BG      0.136500
     25 H7         -2.4780    0.2680   -0.0970 h1        1 4BG      0.050700
     26 H7A        -2.5500    0.8260    1.6550 h1        1 4BG      0.050700
     27 H12        -3.6460   -3.4910    1.9120 ha        1 4BG      0.162000
     28 H13        -6.0620   -4.0600    1.9070 ha        1 4BG      0.150000
     29 H10        -4.5860    0.5690    0.6850 ha        1 4BG      0.162000
     30 H11        -6.9790    0.0280    0.6720 ha        1 4BG      0.150000
     31 HN15       -8.6380   -1.6750    0.7220 hn        1 4BG      0.332500
     32 H18       -10.4780   -3.7480    0.6590 hx        1 4BG      0.126700
     33 H18A      -10.7400   -2.4070    1.8920 hx        1 4BG      0.126700
     34 HN19      -11.0470   -3.9480    3.5610 hn        1 4BG      0.474800
     35 HN1A      -11.7090   -4.7930    2.2780 hn        1 4BG      0.474800
     36 H193      -10.1540   -5.1500    2.8290 hn        1 4BG      0.474800
@<TRIPOS>BOND
     1    1    2 ar  
     2    1    6 ar  
     3    1   20 1   
     4    2    3 ar  
     5    2   21 1   
     6    3    4 ar  
     7    3   22 1   
     8    4    5 ar  
     9    4   23 1   
    10    5    6 ar  
    11    5   24 1   
    12    6    7 1   
    13    7    8 1   
    14    7   25 1   
    15    7   26 1   
    16    8    9 1   
    17    9   10 ar  
    18    9   12 ar  
    19   10   11 ar  
    20   10   27 1   
    21   11   14 ar  
    22   11   28 1   
    23   12   13 ar  
    24   12   29 1   
    25   13   14 ar  
    26   13   30 1   
    27   14   15 1   
    28   15   16 1   
    29   15   31 1   
    30   16   17 2   
    31   16   18 1   
    32   18   19 1   
    33   18   32 1   
    34   18   33 1   
    35   19   34 1   
    36   19   35 1   
    37   19   36 1   
@<TRIPOS>SUBSTRUCTURE
     1 4BG         1 TEMP              0 ****  ****    0 ROOT
