@<TRIPOS>MOLECULE
4BG
   36    37     1     0     0
SMALL
bcc


@<TRIPOS>ATOM
      1 C1          0.1110    0.6410    0.0360 ca        1 4BG     -0.107500
      2 C2          1.5030    0.6530    0.1210 ca        1 4BG     -0.128000
      3 C3          2.1440    0.0460    1.2010 ca        1 4BG     -0.113000
      4 C4          1.3930   -0.5750    2.1990 ca        1 4BG     -0.128000
      5 C5          0.0010   -0.5830    2.1230 ca        1 4BG     -0.107500
      6 C6         -0.6440    0.0270    1.0420 ca        1 4BG     -0.109300
      7 C7         -2.1330    0.0620    0.9640 c3        1 4BG      0.176700
      8 O8         -2.6080   -1.2440    1.3450 os        1 4BG     -0.311900
      9 C9         -3.9660   -1.4300    1.3000 ca        1 4BG      0.155100
     10 C12        -4.3950   -2.7330    1.6230 ca        1 4BG     -0.165000
     11 C13        -5.7460   -3.0420    1.6170 ca        1 4BG     -0.097000
     12 C10        -4.9050   -0.4410    0.9730 ca        1 4BG     -0.165000
     13 C11        -6.2610   -0.7490    0.9700 ca        1 4BG     -0.097000
     14 C14        -6.6970   -2.0520    1.2900 ca        1 4BG     -0.039400
     15 N15        -8.0910   -2.3230    1.2440 n         1 4BG     -0.404100
     16 C16        -8.7170   -3.3380    1.8930 c         1 4BG      0.645100
     17 O17        -8.1830   -4.2320    2.5840 o         1 4BG     -0.603100
     18 C18       -10.2610   -3.4090    1.7140 c3        1 4BG     -0.000200
     19 N19       -10.8450   -4.4100    2.6470 n4        1 4BG     -0.829600
     20 H1         -0.3900    1.1150   -0.8210 ha        1 4BG      0.136000
     21 H2          2.0950    1.1410   -0.6680 ha        1 4BG      0.139500
     22 H3          3.2430    0.0550    1.2640 ha        1 4BG      0.140000
     23 H4          1.8970   -1.0580    3.0490 ha        1 4BG      0.139500
     24 H5         -0.5970   -1.0760    2.9040 ha        1 4BG      0.136000
     25 H7         -2.5460    0.8210    1.6820 h1        1 4BG      0.050700
     26 H7A        -2.4830    0.2910   -0.0780 h1        1 4BG      0.050700
     27 H12        -3.6450   -3.4990    1.8770 ha        1 4BG      0.162000
     28 H13        -6.0620   -4.0660    1.8770 ha        1 4BG      0.150000
     29 H10        -4.5880    0.5810    0.7190 ha        1 4BG      0.162000
     30 H11        -6.9810    0.0420    0.7100 ha        1 4BG      0.150000
     31 HN15       -8.6410   -1.6600    0.7410 hn        1 4BG      0.332500
     32 H18       -10.7390   -2.4090    1.9110 hx        1 4BG      0.126700
     33 H18A      -10.4830   -3.7300    0.6550 hx        1 4BG      0.126700
     34 HN19      -11.7070   -4.8010    2.2620 hn        1 4BG      0.474800
     35 HN1A      -10.1500   -5.1670    2.8000 hn        1 4BG      0.474800
     36 H193      -11.0390   -3.9760    3.5560 hn        1 4BG      0.474800
@<TRIPOS>BOND
     1    1    2 ar  
     2    1    6 ar  
     3    1   20 1   
     4    2    3 ar  
     5    2   21 1   
     6    3    4 ar  
     7    3   22 1   
     8    4    5 ar  
     9    4   23 1   
    10    5    6 ar  
    11    5   24 1   
    12    6    7 1   
    13    7    8 1   
    14    7   25 1   
    15    7   26 1   
    16    8    9 1   
    17    9   10 ar  
    18    9   12 ar  
    19   10   11 ar  
    20   10   27 1   
    21   11   14 ar  
    22   11   28 1   
    23   12   13 ar  
    24   12   29 1   
    25   13   14 ar  
    26   13   30 1   
    27   14   15 1   
    28   15   16 1   
    29   15   31 1   
    30   16   17 2   
    31   16   18 1   
    32   18   19 1   
    33   18   32 1   
    34   18   33 1   
    35   19   34 1   
    36   19   35 1   
    37   19   36 1   
@<TRIPOS>SUBSTRUCTURE
     1 4BG         1 TEMP              0 ****  ****    0 ROOT
