@<TRIPOS>MOLECULE
4BG
   35    31     1     0     0
SMALL
bcc


@<TRIPOS>ATOM
      1 C1          3.8600   -2.7110   -0.0360 c1        1 4BG     -0.101000
      2 C2          5.1490   -3.1490    0.1620 c1        1 4BG     -0.128250
      3 C3          6.2080   -2.4320   -0.3580 c1        1 4BG     -0.128250
      4 C4          5.9760   -1.2730   -1.0790 c1        1 4BG     -0.128250
      5 C5          4.6820   -0.8280   -1.2820 c1        1 4BG     -0.128250
      6 C6          3.6240   -1.5360   -0.7680 c1        1 4BG     -0.086000
      7 C7          2.1290   -1.0530   -1.0460 c3        1 4BG      0.017000
      8 O8          1.5020   -0.7680    0.1620 os        1 4BG     -0.211000
      9 C9          0.2470   -0.1840    0.0220 c2        1 4BG      0.056000
     10 C12        -0.8280   -0.9430   -0.4740 c1        1 4BG     -0.131000
     11 C13        -2.1030   -0.3900   -0.5230 c1        1 4BG     -0.148000
     12 C10         0.0350    1.1220    0.4660 c2        1 4BG     -0.180000
     13 C11        -1.2370    1.6770    0.4190 c1        1 4BG     -0.120000
     14 C14        -2.3130    0.9240   -0.0760 c1        1 4BG      0.038000
     15 N15        -3.6100    1.5170   -0.1840 n         1 4BG     -0.307000
     16 C16        -4.3250    1.8530    0.9780 c2        1 4BG      0.303000
     17 O17        -3.8480    1.6420    2.0530 o         1 4BG     -0.361000
     18 C18        -5.7200    2.5240    0.8660 c3        1 4BG     -0.105000
     19 N19        -6.3090    2.5920    2.1410 n3        1 4BG     -0.360000
     20 H1          3.1120   -3.2170    0.3300 ha        1 4BG      0.148000
     21 H2          5.3160   -3.9720    0.6740 ha        1 4BG      0.131500
     22 H3          7.0970   -2.7340   -0.2200 ha        1 4BG      0.131500
     23 H4          6.6960   -0.7900   -1.4280 ha        1 4BG      0.131500
     24 H5          4.5230   -0.0130   -1.7890 ha        1 4BG      0.131500
     25 H7          1.6340   -1.7690   -1.5100 h1        1 4BG      0.088000
     26 H7A         2.1420   -0.2660   -1.5930 h1        1 4BG      0.088000
     27 H12        -0.6740   -1.8930   -0.7970 ha        1 4BG      0.149000
     28 H13        -2.9010   -0.9520   -0.8920 ha        1 4BG      0.133000
     29 H10         0.7960    1.6560    0.8150 ha        1 4BG      0.139000
     30 H11        -1.3830    2.6000    0.7330 ha        1 4BG      0.173000
     31 HN15       -3.9430    1.7710   -1.0360 hn        1 4BG      0.245000
     32 H18        -6.3180    1.9730    0.2400 h1        1 4BG      0.101000
     33 H18A       -5.6230    3.3960    0.5200 h1        1 4BG      0.101000
     34 HN19       -7.1200    2.1240    2.1380 hn        1 4BG      0.158500
     35 HN1A       -6.4680    3.5040    2.3690 hn        1 4BG      0.158500
@<TRIPOS>BOND
     1    1    6 1   
     2    1   20 1   
     3    2    3 1   
     4    2   21 1   
     5    3   22 1   
     6    4    5 1   
     7    4   23 1   
     8    5   24 1   
     9    6    7 1   
    10    7    8 1   
    11    7   25 1   
    12    7   26 1   
    13    8    9 1   
    14    9   10 1   
    15    9   12 1   
    16   10   27 1   
    17   11   14 1   
    18   11   28 1   
    19   12   13 1   
    20   12   29 1   
    21   13   30 1   
    22   14   15 1   
    23   15   16 1   
    24   15   31 1   
    25   16   17 1   
    26   16   18 1   
    27   18   19 1   
    28   18   32 1   
    29   18   33 1   
    30   19   34 1   
    31   19   35 1   
@<TRIPOS>SUBSTRUCTURE
     1 4BG         1 TEMP              0 ****  ****    0 ROOT
