@<TRIPOS>MOLECULE
4BG
   37    38     1     0     0
SMALL
bcc


@<TRIPOS>ATOM
      1 C1         -0.2520    0.1190    0.2720 ca        1 4BG     -0.093000
      2 C2          1.1290    0.1750    0.4470 ca        1 4BG     -0.125000
      3 C3          1.6700    0.2290    1.7320 ca        1 4BG     -0.083000
      4 C4          0.8280    0.2270    2.8460 ca        1 4BG     -0.125000
      5 C5         -0.5540    0.1710    2.6760 ca        1 4BG     -0.093000
      6 C6         -1.0980    0.1220    1.3870 ca        1 4BG     -0.147300
      7 C7         -2.5720    0.1070    1.2020 c3        1 4BG      0.186700
      8 O8         -2.9460   -1.3040    1.1210 os        1 4BG     -0.274900
      9 C9         -4.2340   -1.6060    0.8930 ca        1 4BG      0.250100
     10 C12        -4.5100   -2.9970    0.7420 ca        1 4BG     -0.182500
     11 C13        -5.7940   -3.4240    0.4910 ca        1 4BG     -0.052000
     12 C10        -5.2910   -0.6700    0.8000 ca        1 4BG     -0.182500
     13 C11        -6.5810   -1.1000    0.5520 ca        1 4BG     -0.052000
     14 C14        -6.8470   -2.4780    0.4080 ca        1 4BG     -0.221400
     15 N15        -8.1860   -2.9290    0.0390 n4        1 4BG     -0.486200
     16 C16        -8.8940   -3.6170    1.1600 c         1 4BG      0.505100
     17 O17        -9.4000   -4.7110    0.9490 o         1 4BG     -0.382100
     18 C18        -8.9210   -2.9040    2.5060 c3        1 4BG      0.027800
     19 N19        -9.5140   -3.7470    3.5770 n4        1 4BG     -0.832600
     20 H1         -0.6760    0.0780   -0.7430 ha        1 4BG      0.132500
     21 H2          1.7940    0.1780   -0.4310 ha        1 4BG      0.153500
     22 H3          2.7630    0.2760    1.8690 ha        1 4BG      0.157000
     23 H4          1.2560    0.2720    3.8600 ha        1 4BG      0.153500
     24 H5         -1.2150    0.1710    3.5560 ha        1 4BG      0.132500
     25 H7         -2.8790    0.6040    0.2440 h1        1 4BG      0.062700
     26 H7A        -3.1120    0.5560    2.0760 h1        1 4BG      0.062700
     27 H12        -3.6710   -3.7120    0.8060 ha        1 4BG      0.196000
     28 H13        -5.9820   -4.5010    0.3370 ha        1 4BG      0.157000
     29 H10        -5.0870    0.4100    0.9020 ha        1 4BG      0.196000
     30 H11        -7.3820   -0.3470    0.4490 ha        1 4BG      0.157000
     31 HN15       -8.7470   -2.1210   -0.2740 hn        1 4BG      0.491800
     32 H18        -7.8600   -2.6200    2.8020 hx        1 4BG      0.169700
     33 H18A       -9.5330   -1.9530    2.4130 hx        1 4BG      0.169700
     34 HN19      -10.4610   -4.0630    3.3140 hn        1 4BG      0.492800
     35 HN1A       -9.5750   -3.1980    4.4500 hn        1 4BG      0.492800
     36 H152       -8.1090   -3.5970   -0.7530 hn        1 4BG      0.491800
     37 H193       -8.9350   -4.5820    3.7490 hn        1 4BG      0.492800
@<TRIPOS>BOND
     1    1    2 ar  
     2    1    6 ar  
     3    1   20 1   
     4    2    3 ar  
     5    2   21 1   
     6    3    4 ar  
     7    3   22 1   
     8    4    5 ar  
     9    4   23 1   
    10    5    6 ar  
    11    5   24 1   
    12    6    7 1   
    13    7    8 1   
    14    7   25 1   
    15    7   26 1   
    16    8    9 1   
    17    9   10 ar  
    18    9   12 ar  
    19   10   11 ar  
    20   10   27 1   
    21   11   14 ar  
    22   11   28 1   
    23   12   13 ar  
    24   12   29 1   
    25   13   14 ar  
    26   13   30 1   
    27   14   15 1   
    28   15   16 1   
    29   15   31 1   
    30   15   36 1   
    31   16   17 2   
    32   16   18 1   
    33   18   19 1   
    34   18   32 1   
    35   18   33 1   
    36   19   34 1   
    37   19   35 1   
    38   19   37 1   
@<TRIPOS>SUBSTRUCTURE
     1 4BG         1 TEMP              0 ****  ****    0 ROOT
