@<TRIPOS>MOLECULE
4BG
   35    36     1     0     0
SMALL
bcc


@<TRIPOS>ATOM
      1 C1         -4.2990    0.2690   -1.0300 ca        1 4BG     -0.113000
      2 C2         -5.6190    0.6170   -1.3130 ca        1 4BG     -0.131500
      3 C3         -6.5990    0.5100   -0.3270 ca        1 4BG     -0.125000
      4 C4         -6.2560    0.0570    0.9480 ca        1 4BG     -0.131500
      5 C5         -4.9380   -0.2860    1.2370 ca        1 4BG     -0.113000
      6 C6         -3.9540   -0.1860    0.2470 ca        1 4BG     -0.094300
      7 C7         -2.5570   -0.6000    0.5730 c3        1 4BG      0.175700
      8 O8         -1.6670    0.1530   -0.2620 os        1 4BG     -0.325900
      9 C9         -0.3200   -0.0770   -0.0550 ca        1 4BG      0.102100
     10 C12         0.5410    0.7320   -0.8190 ca        1 4BG     -0.154500
     11 C13         1.9150    0.5860   -0.7070 ca        1 4BG     -0.136000
     12 C10         0.2070   -1.0300    0.8220 ca        1 4BG     -0.154500
     13 C11         1.5860   -1.1750    0.9340 ca        1 4BG     -0.136000
     14 C14         2.4660   -0.3720    0.1740 ca        1 4BG      0.034600
     15 N15         3.8510   -0.5640    0.3320 n         1 4BG     -0.465100
     16 C16         4.8780    0.0850   -0.3290 c         1 4BG      0.615100
     17 O17         4.6980    0.9690   -1.1870 o         1 4BG     -0.604100
     18 C18         6.3070   -0.3530    0.0610 c3        1 4BG      0.089800
     19 N19         7.3670    0.3240   -0.6250 n3        1 4BG     -0.884800
     20 H1         -3.5200    0.3570   -1.8030 ha        1 4BG      0.139500
     21 H2         -5.8860    0.9780   -2.3170 ha        1 4BG      0.132500
     22 H3         -7.6400    0.7830   -0.5520 ha        1 4BG      0.132000
     23 H4         -7.0270   -0.0250    1.7280 ha        1 4BG      0.132500
     24 H5         -4.6690   -0.6360    2.2450 ha        1 4BG      0.139500
     25 H7         -2.3190   -0.3940    1.6510 h1        1 4BG      0.047200
     26 H7A        -2.4220   -1.6960    0.3600 h1        1 4BG      0.047200
     27 H12         0.1120    1.4790   -1.5040 ha        1 4BG      0.145000
     28 H13         2.5700    1.2320   -1.3170 ha        1 4BG      0.153000
     29 H10        -0.4480   -1.6720    1.4270 ha        1 4BG      0.145000
     30 H11         1.9780   -1.9320    1.6310 ha        1 4BG      0.153000
     31 HN15        4.1090   -1.2590    0.9960 hn        1 4BG      0.314500
     32 H18         6.4350   -0.1810    1.1680 h1        1 4BG      0.072700
     33 H18A        6.4020   -1.4570   -0.1420 h1        1 4BG      0.072700
     34 HN19        7.3040    0.1770   -1.6150 hn        1 4BG      0.362800
     35 HN1A        7.3340    1.3110   -0.4500 hn        1 4BG      0.362800
@<TRIPOS>BOND
     1    1    2 ar  
     2    1    6 ar  
     3    1   20 1   
     4    2    3 ar  
     5    2   21 1   
     6    3    4 ar  
     7    3   22 1   
     8    4    5 ar  
     9    4   23 1   
    10    5    6 ar  
    11    5   24 1   
    12    6    7 1   
    13    7    8 1   
    14    7   25 1   
    15    7   26 1   
    16    8    9 1   
    17    9   10 ar  
    18    9   12 ar  
    19   10   11 ar  
    20   10   27 1   
    21   11   14 ar  
    22   11   28 1   
    23   12   13 ar  
    24   12   29 1   
    25   13   14 ar  
    26   13   30 1   
    27   14   15 1   
    28   15   16 1   
    29   15   31 1   
    30   16   17 2   
    31   16   18 1   
    32   18   19 1   
    33   18   32 1   
    34   18   33 1   
    35   19   34 1   
    36   19   35 1   
@<TRIPOS>SUBSTRUCTURE
     1 4BG         1 TEMP              0 ****  ****    0 ROOT
