@<TRIPOS>MOLECULE
4BH
   35    37     1     0     0
SMALL
bcc


@<TRIPOS>ATOM
      1 CL          0.5380    1.4320    0.1020 cl        1 4BH     -0.089400
      2 C1          1.8920    0.4000    0.0820 ca        1 4BH     -0.107600
      3 C2          2.0360   -0.6150    1.0450 ca        1 4BH      0.180100
      4 O2          1.1410   -0.8550    2.0550 oh        1 4BH     -0.486100
      5 C3          3.1520   -1.4630    1.0060 ca        1 4BH     -0.245000
      6 C4          4.1150   -1.2830    0.0080 ca        1 4BH      0.166100
      7 O4          5.2080   -2.1150   -0.0710 oh        1 4BH     -0.506100
      8 C5          2.8630    0.5670   -0.9070 ca        1 4BH     -0.031000
      9 C6          3.9960   -0.2550   -0.9570 ca        1 4BH     -0.063000
     10 C7          4.9910   -0.0360   -1.9850 cc        1 4BH     -0.070300
     11 N1          5.6710   -1.0780   -2.6440 na        1 4BH      0.005400
     12 N2          6.5300   -0.6380   -3.5520 nc        1 4BH     -0.496800
     13 C8          6.4380    0.7160   -3.5710 cd        1 4BH      0.260200
     14 C9          5.4690    1.1650   -2.5800 cd        1 4BH     -0.044700
     15 N3          5.0360    2.4770   -2.3300 nh        1 4BH     -0.595000
     16 C11         5.4720    3.4410   -3.3360 c3        1 4BH      0.173800
     17 C12         4.8980    4.8480   -3.0760 c3        1 4BH      0.160300
     18 C15         5.3000    2.9400   -0.9690 c3        1 4BH      0.173800
     19 C14         4.7320    4.3500   -0.7140 c3        1 4BH      0.160300
     20 N4          5.1310    5.3110   -1.7230 n3        1 4BH     -0.820200
     21 H2          0.4100   -0.2200    1.9750 ho        1 4BH      0.435000
     22 H3          3.2530   -2.2560    1.7610 ha        1 4BH      0.159000
     23 H4          5.1990   -2.7030    0.6990 ho        1 4BH      0.433000
     24 H5          2.7370    1.3580   -1.6670 ha        1 4BH      0.180000
     25 H1          5.6800   -2.0280   -2.3460 hn        1 4BH      0.331700
     26 H8          7.0200    1.3300   -4.2570 h4        1 4BH      0.043100
     27 H111        6.5980    3.5120   -3.3830 h1        1 4BH      0.046700
     28 H112        5.1010    3.0880   -4.3380 h1        1 4BH      0.046700
     29 H121        5.4160    5.5640   -3.7750 h1        1 4BH      0.035450
     30 H122        3.8010    4.8390   -3.3430 h1        1 4BH      0.035450
     31 H151        4.7970    2.2230   -0.2610 h1        1 4BH      0.046700
     32 H152        6.4040    2.9460   -0.7410 h1        1 4BH      0.046700
     33 H141        5.1350    4.7090    0.2750 h1        1 4BH      0.035450
     34 H142        3.6100    4.2690   -0.6210 h1        1 4BH      0.035450
     35 HA          4.6600    6.1830   -1.5720 hn        1 4BH      0.364800
@<TRIPOS>BOND
     1    1    2 1   
     2    2    3 ar  
     3    2    8 ar  
     4    3    4 1   
     5    3    5 ar  
     6    4   21 1   
     7    5    6 ar  
     8    5   22 1   
     9    6    7 1   
    10    6    9 ar  
    11    7   23 1   
    12    8    9 ar  
    13    8   24 1   
    14    9   10 1   
    15   10   11 1   
    16   10   14 2   
    17   11   12 1   
    18   11   25 1   
    19   12   13 2   
    20   13   14 1   
    21   13   26 1   
    22   14   15 1   
    23   15   16 1   
    24   15   18 1   
    25   16   17 1   
    26   16   27 1   
    27   16   28 1   
    28   17   20 1   
    29   17   29 1   
    30   17   30 1   
    31   18   19 1   
    32   18   31 1   
    33   18   32 1   
    34   19   20 1   
    35   19   33 1   
    36   19   34 1   
    37   20   35 1   
@<TRIPOS>SUBSTRUCTURE
     1 4BH         1 TEMP              0 ****  ****    0 ROOT
