@<TRIPOS>MOLECULE
4BH
   35    37     1     0     0
SMALL
bcc


@<TRIPOS>ATOM
      1 Cl          0.5320    1.3940    0.0830 cl        1 4BH     -0.089400
      2 C1          1.8980    0.3790    0.0770 ca        1 4BH     -0.107600
      3 C2          2.0500   -0.6280    1.0490 ca        1 4BH      0.180100
      4 O2          1.1540   -0.8710    2.0560 oh        1 4BH     -0.486100
      5 C3          3.1770   -1.4620    1.0220 ca        1 4BH     -0.245000
      6 C4          4.1430   -1.2770    0.0270 ca        1 4BH      0.166100
      7 O4          5.2460   -2.0960   -0.0420 oh        1 4BH     -0.506100
      8 C5          2.8720    0.5510   -0.9070 ca        1 4BH     -0.031000
      9 C6          4.0160   -0.2570   -0.9460 ca        1 4BH     -0.063000
     10 C7          5.0130   -0.0340   -1.9710 cc        1 4BH     -0.070300
     11 N1          5.7100   -1.0710   -2.6190 na        1 4BH      0.005400
     12 N2          6.5670   -0.6280   -3.5260 nc        1 4BH     -0.496800
     13 C8          6.4590    0.7250   -3.5550 cd        1 4BH      0.260200
     14 C9          5.4790    1.1690   -2.5720 cd        1 4BH     -0.044700
     15 N3          5.0290    2.4770   -2.3350 nh        1 4BH     -0.595000
     16 C11         5.4580    3.4390   -3.3450 c3        1 4BH      0.173800
     17 C12         4.8650    4.8410   -3.0990 c3        1 4BH      0.160300
     18 C15         5.2810    2.9530   -0.9750 c3        1 4BH      0.173800
     19 C14         4.6940    4.3580   -0.7330 c3        1 4BH      0.160300
     20 N4          5.0860    5.3170   -1.7470 n7        1 4BH     -0.820200
     21 H2          0.4150   -0.2460    1.9680 ho        1 4BH      0.435000
     22 H3          3.2830   -2.2480    1.7820 ha        1 4BH      0.159000
     23 H4          5.2400   -2.6790    0.7330 ho        1 4BH      0.433000
     24 H5          2.7410    1.3350   -1.6730 ha        1 4BH      0.180000
     25 H1          5.7280   -2.0190   -2.3140 hn        1 4BH      0.331700
     26 H8          7.0360    1.3410   -4.2430 h4        1 4BH      0.043100
     27 H111        5.0960    3.0750   -4.3460 h1        1 4BH      0.046700
     28 H112        6.5820    3.5240   -3.3880 h1        1 4BH      0.046700
     29 H121        3.7690    4.8160   -3.3700 h1        1 4BH      0.035450
     30 H122        5.3780    5.5580   -3.8000 h1        1 4BH      0.035450
     31 H151        4.7830    2.2350   -0.2650 h1        1 4BH      0.046700
     32 H152        6.3840    2.9740   -0.7420 h1        1 4BH      0.046700
     33 H141        3.5720    4.2640   -0.6450 h1        1 4BH      0.035450
     34 H142        5.0880    4.7290    0.2550 h1        1 4BH      0.035450
     35 HA          4.6030    6.1840   -1.6050 hn        1 4BH      0.364800
@<TRIPOS>BOND
     1    1    2 1   
     2    2    3 ar  
     3    2    8 ar  
     4    3    4 1   
     5    3    5 ar  
     6    4   21 1   
     7    5    6 ar  
     8    5   22 1   
     9    6    7 1   
    10    6    9 ar  
    11    7   23 1   
    12    8    9 ar  
    13    8   24 1   
    14    9   10 1   
    15   10   11 1   
    16   10   14 2   
    17   11   12 1   
    18   11   25 1   
    19   12   13 2   
    20   13   14 1   
    21   13   26 1   
    22   14   15 1   
    23   15   16 1   
    24   15   18 1   
    25   16   17 1   
    26   16   27 1   
    27   16   28 1   
    28   17   20 1   
    29   17   29 1   
    30   17   30 1   
    31   18   19 1   
    32   18   31 1   
    33   18   32 1   
    34   19   20 1   
    35   19   33 1   
    36   19   34 1   
    37   20   35 1   
@<TRIPOS>SUBSTRUCTURE
     1 4BH         1 TEMP              0 ****  ****    0 ROOT
