@<TRIPOS>MOLECULE
4BH
   35    37     1     0     0
SMALL
bcc


@<TRIPOS>ATOM
      1 CL          0.5270    1.4020    0.0690 cl        1 4BH     -0.089400
      2 C1          1.8910    0.3840    0.0690 ca        1 4BH     -0.107600
      3 C2          2.0380   -0.6220    1.0410 ca        1 4BH      0.180100
      4 O2          1.1370   -0.8630    2.0460 oh        1 4BH     -0.486100
      5 C3          3.1630   -1.4580    1.0180 ca        1 4BH     -0.245000
      6 C4          4.1320   -1.2760    0.0270 ca        1 4BH      0.166100
      7 O4          5.2340   -2.0970   -0.0380 oh        1 4BH     -0.506100
      8 C5          2.8690    0.5540   -0.9130 ca        1 4BH     -0.031000
      9 C6          4.0110   -0.2560   -0.9480 ca        1 4BH     -0.063000
     10 C7          5.0120   -0.0350   -1.9680 cc        1 4BH     -0.070300
     11 N1          5.7080   -1.0740   -2.6140 na        1 4BH      0.005400
     12 N2          6.5710   -0.6330   -3.5180 nc        1 4BH     -0.496800
     13 C8          6.4650    0.7200   -3.5480 cd        1 4BH      0.260200
     14 C9          5.4830    1.1670   -2.5680 cd        1 4BH     -0.044700
     15 N3          5.0350    2.4750   -2.3330 nh        1 4BH     -0.595000
     16 C11         5.4700    3.4370   -3.3410 c3        1 4BH      0.173800
     17 C12         4.8800    4.8400   -3.0980 c3        1 4BH      0.160300
     18 C15         5.2820    2.9510   -0.9730 c3        1 4BH      0.173800
     19 C14         4.6970    4.3570   -0.7330 c3        1 4BH      0.160300
     20 N4          5.0950    5.3150   -1.7460 n3        1 4BH     -0.820200
     21 H2          0.4000   -0.2360    1.9550 ho        1 4BH      0.435000
     22 H3          3.2650   -2.2440    1.7790 ha        1 4BH      0.159000
     23 H4          5.2250   -2.6790    0.7370 ho        1 4BH      0.433000
     24 H5          2.7420    1.3380   -1.6800 ha        1 4BH      0.180000
     25 H1          5.7240   -2.0220   -2.3090 hn        1 4BH      0.331700
     26 H8          7.0460    1.3350   -4.2340 h4        1 4BH      0.043100
     27 H111        6.5950    3.5190   -3.3790 h1        1 4BH      0.046700
     28 H112        5.1120    3.0730   -4.3440 h1        1 4BH      0.046700
     29 H121        3.7850    4.8180   -3.3740 h1        1 4BH      0.035450
     30 H122        5.3960    5.5560   -3.7960 h1        1 4BH      0.035450
     31 H151        6.3840    2.9700   -0.7350 h1        1 4BH      0.046700
     32 H152        4.7800    2.2350   -0.2640 h1        1 4BH      0.046700
     33 H141        5.0880    4.7270    0.2570 h1        1 4BH      0.035450
     34 H142        3.5750    4.2660   -0.6490 h1        1 4BH      0.035450
     35 HA          4.6140    6.1840   -1.6050 hn        1 4BH      0.364800
@<TRIPOS>BOND
     1    1    2 1   
     2    2    3 ar  
     3    2    8 ar  
     4    3    4 1   
     5    3    5 ar  
     6    4   21 1   
     7    5    6 ar  
     8    5   22 1   
     9    6    7 1   
    10    6    9 ar  
    11    7   23 1   
    12    8    9 ar  
    13    8   24 1   
    14    9   10 1   
    15   10   11 1   
    16   10   14 2   
    17   11   12 1   
    18   11   25 1   
    19   12   13 2   
    20   13   14 1   
    21   13   26 1   
    22   14   15 1   
    23   15   16 1   
    24   15   18 1   
    25   16   17 1   
    26   16   27 1   
    27   16   28 1   
    28   17   20 1   
    29   17   29 1   
    30   17   30 1   
    31   18   19 1   
    32   18   31 1   
    33   18   32 1   
    34   19   20 1   
    35   19   33 1   
    36   19   34 1   
    37   20   35 1   
@<TRIPOS>SUBSTRUCTURE
     1 4BH         1 TEMP              0 ****  ****    0 ROOT
