@<TRIPOS>MOLECULE
4BH
   35    31     1     0     0
SMALL
bcc


@<TRIPOS>ATOM
      1 CL         -4.0860    0.6460    1.8460 cl        1 4BH      0.016000
      2 C1         -2.4170    1.1480    1.8100 c2        1 4BH     -0.128000
      3 C2         -1.8080    1.6130    2.9640 c2        1 4BH      0.133000
      4 O2         -2.5520    1.7300    4.1520 oh        1 4BH     -0.229000
      5 C3         -0.4900    2.0340    2.9310 c1        1 4BH     -0.300000
      6 C4          0.2220    1.9900    1.7420 c1        1 4BH      0.124000
      7 O4          1.5600    2.4210    1.7080 oh        1 4BH     -0.261000
      8 C5         -1.7060    1.1040    0.6210 c1        1 4BH     -0.036000
      9 C6         -0.3860    1.5250    0.5870 c1        1 4BH     -0.066000
     10 C7          0.2890    1.5860   -0.6210 c1        1 4BH     -0.121000
     11 N1          0.6610    2.7110   -1.2650 n2        1 4BH     -0.101500
     12 N2          1.3590    2.3470   -2.3880 n2        1 4BH     -0.101500
     13 C8          1.4120    0.9990   -2.4280 c1        1 4BH     -0.121000
     14 C9          0.7500    0.5180   -1.3360 c1        1 4BH     -0.083000
     15 N3          0.5020   -0.8470   -1.0470 n2        1 4BH     -0.176000
     16 C11        -0.2830   -1.3270   -1.9200 c3        1 4BH     -0.106500
     17 C12        -0.4800   -2.8130   -1.7210 c3        1 4BH     -0.116000
     18 C15         1.5590   -1.3800   -0.5900 c3        1 4BH     -0.106500
     19 C14         1.3760   -2.8660   -0.3810 c3        1 4BH     -0.116000
     20 N4         -0.1100   -3.2800   -0.2970 n3        1 4BH     -0.270000
     21 H2         -2.2970    1.1000    4.7240 ho        1 4BH      0.224000
     22 H3         -0.0620    2.3620    3.7430 ha        1 4BH      0.141000
     23 H4          1.6680    3.0960    2.2750 ho        1 4BH      0.229000
     24 H5         -2.1340    0.7760   -0.1910 ha        1 4BH      0.181000
     25 H1          0.4810    3.5640   -1.0000 DU        1 4BH      0.231000
     26 H8          1.8470    0.4620   -3.1180 DU        1 4BH      0.231000
     27 H111        0.0930   -1.1700   -2.8110 h1        1 4BH      0.100000
     28 H112       -1.1510   -0.8760   -1.8540 h1        1 4BH      0.100000
     29 H121        0.0770   -3.2940   -2.3650 h1        1 4BH      0.094250
     30 H122       -1.4190   -3.0310   -1.8900 h1        1 4BH      0.094250
     31 H151        1.7850   -0.9610    0.2660 h1        1 4BH      0.100000
     32 H152        2.2920   -1.2330   -1.2230 h1        1 4BH      0.100000
     33 H141        1.7950   -3.3430   -1.1260 h1        1 4BH      0.094250
     34 H142        1.8230   -3.1240    0.4500 h1        1 4BH      0.094250
     35 HA         -0.1700   -4.1880   -0.2490 hn        1 4BH      0.151000
@<TRIPOS>BOND
     1    1    2 1   
     2    2    3 1   
     3    2    8 1   
     4    3    4 1   
     5    3    5 1   
     6    4   21 1   
     7    5   22 1   
     8    6    7 1   
     9    6    9 1   
    10    7   23 1   
    11    8   24 1   
    12   10   11 1   
    13   10   14 1   
    14   11   12 1   
    15   12   13 1   
    16   13   14 1   
    17   15   16 1   
    18   15   18 1   
    19   16   17 1   
    20   16   27 1   
    21   16   28 1   
    22   17   20 1   
    23   17   29 1   
    24   17   30 1   
    25   18   19 1   
    26   18   31 1   
    27   18   32 1   
    28   19   20 1   
    29   19   33 1   
    30   19   34 1   
    31   20   35 1   
@<TRIPOS>SUBSTRUCTURE
     1 4BH         1 TEMP              0 ****  ****    0 ROOT
