@<TRIPOS>MOLECULE
4BH
   35    37     1     0     0
SMALL
bcc


@<TRIPOS>ATOM
      1 CL          4.1470    0.5180   -1.4750 cl        1 4BH     -0.089400
      2 C1          2.9230    0.4300   -0.2960 ca        1 4BH     -0.115600
      3 C2          3.1760   -0.1450    0.9670 ca        1 4BH      0.181100
      4 O2          4.3880   -0.6640    1.3420 oh        1 4BH     -0.484100
      5 C3          2.1620   -0.2140    1.9300 ca        1 4BH     -0.196000
      6 C4          0.8950    0.2980    1.6210 ca        1 4BH      0.187100
      7 O4         -0.0480    0.1950    2.6090 oh        1 4BH     -0.487100
      8 C5          1.6560    0.9360   -0.5870 ca        1 4BH     -0.032000
      9 C6          0.6290    0.8780    0.3600 ca        1 4BH     -0.136000
     10 C7         -0.6750    1.4300    0.0530 cc        1 4BH     -0.146300
     11 N1         -0.9050    2.8220    0.0250 na        1 4BH     -0.009600
     12 N2         -2.1500    3.1300   -0.3010 nc        1 4BH     -0.485800
     13 C8         -2.8150    1.9660   -0.5030 cd        1 4BH      0.262200
     14 C9         -1.9150    0.8310   -0.2990 cd        1 4BH     -0.005700
     15 N3         -2.2420   -0.5040   -0.5340 nh        1 4BH     -0.599000
     16 C11        -3.5540   -0.9070   -0.0410 c3        1 4BH      0.182300
     17 C12        -3.9330   -2.3370   -0.4780 c3        1 4BH      0.159800
     18 C15        -1.1980   -1.4790   -0.2600 c3        1 4BH      0.182300
     19 C14        -1.5940   -2.9080   -0.6840 c3        1 4BH      0.159800
     20 N4         -2.8950   -3.3050   -0.1850 n3        1 4BH     -0.820200
     21 H2          5.0090   -0.5620    0.6020 ho        1 4BH      0.434000
     22 H3          2.3590   -0.6630    2.9140 ha        1 4BH      0.176000
     23 H4         -0.8810    0.5700    2.2770 ho        1 4BH      0.439000
     24 H5          1.4560    1.3830   -1.5750 ha        1 4BH      0.159000
     25 H1         -0.2210    3.5280    0.1710 hn        1 4BH      0.326700
     26 H8         -3.8660    1.9380   -0.7870 h4        1 4BH      0.048100
     27 H111       -3.6030   -0.8470    1.0850 h1        1 4BH      0.046950
     28 H112       -4.3230   -0.2020   -0.4640 h1        1 4BH      0.046950
     29 H121       -4.8540   -2.6380    0.0960 h1        1 4BH      0.038200
     30 H122       -4.2000   -2.3130   -1.5750 h1        1 4BH      0.038200
     31 H151       -0.2830   -1.1820   -0.8460 h1        1 4BH      0.046950
     32 H152       -0.9220   -1.4850    0.8370 h1        1 4BH      0.046950
     33 H141       -0.8320   -3.6150   -0.2520 h1        1 4BH      0.038200
     34 H142       -1.5300   -2.9730   -1.8100 h1        1 4BH      0.038200
     35 HA         -3.1470   -4.2030   -0.5550 hn        1 4BH      0.366800
@<TRIPOS>BOND
     1    1    2 1   
     2    2    3 ar  
     3    2    8 ar  
     4    3    4 1   
     5    3    5 ar  
     6    4   21 1   
     7    5    6 ar  
     8    5   22 1   
     9    6    7 1   
    10    6    9 ar  
    11    7   23 1   
    12    8    9 ar  
    13    8   24 1   
    14    9   10 1   
    15   10   11 1   
    16   10   14 2   
    17   11   12 1   
    18   11   25 1   
    19   12   13 2   
    20   13   14 1   
    21   13   26 1   
    22   14   15 1   
    23   15   16 1   
    24   15   18 1   
    25   16   17 1   
    26   16   27 1   
    27   16   28 1   
    28   17   20 1   
    29   17   29 1   
    30   17   30 1   
    31   18   19 1   
    32   18   31 1   
    33   18   32 1   
    34   19   20 1   
    35   19   33 1   
    36   19   34 1   
    37   20   35 1   
@<TRIPOS>SUBSTRUCTURE
     1 4BH         1 TEMP              0 ****  ****    0 ROOT
