@<TRIPOS>MOLECULE
4BI
   48    50     1     0     0
SMALL
bcc


@<TRIPOS>ATOM
      1 N1          0.0010   -0.2130   -0.0560 nb        1 4BI     -0.704000
      2 C2          1.3760   -0.1500    0.0030 ca        1 4BI      0.398600
      3 C3          2.0780   -0.0770    1.2420 ca        1 4BI     -0.138300
      4 C4          1.3080   -0.0650    2.4540 cp        1 4BI     -0.023000
      5 C5         -0.0750   -0.0630    2.3860 ca        1 4BI     -0.111600
      6 C6         -0.6940   -0.1650    1.0750 ca        1 4BI      0.483600
      7 C7          3.4940   -0.0030    1.2270 ca        1 4BI     -0.106000
      8 C8          4.1910   -0.0150    0.0430 ca        1 4BI     -0.155000
      9 C9          3.5010   -0.1000   -1.1870 ca        1 4BI     -0.143000
     10 C10         2.1310   -0.1640   -1.2150 ca        1 4BI     -0.172300
     11 C11        -0.9100    0.0670    3.6270 c3        1 4BI      0.043400
     12 C12        -1.4840    1.5190    3.7800 c         1 4BI      0.909600
     13 O13        -0.7420    2.3440    4.3860 o         1 4BI     -0.819800
     14 O14        -2.6320    1.7870    3.3410 o         1 4BI     -0.819800
     15 O15        -1.9450   -0.9220    3.5650 os        1 4BI     -0.414600
     16 C16        -2.4590   -1.3580    4.8300 c3        1 4BI      0.164800
     17 C17        -2.1870   -0.2420    0.9890 c3        1 4BI     -0.177400
     18 C18         2.0440   -0.0760    3.7260 cp        1 4BI     -0.036000
     19 C19         1.9550    0.9960    4.6250 ca        1 4BI     -0.105500
     20 C20         2.6870    0.9790    5.8120 ca        1 4BI     -0.141000
     21 C21         3.5050   -0.1140    6.1060 ca        1 4BI      0.012400
     22 C22         3.5900   -1.1980    5.2280 ca        1 4BI     -0.141000
     23 C23         2.8610   -1.1730    4.0410 ca        1 4BI     -0.105500
     24 CL          4.4080   -0.1360    7.5560 cl        1 4BI     -0.135400
     25 C25        -2.8440   -0.1950    5.7310 c3        1 4BI     -0.110767
     26 C26        -3.7070   -2.1620    4.4600 c3        1 4BI     -0.110767
     27 C27        -1.4540   -2.2690    5.5280 c3        1 4BI     -0.110767
     28 H7          4.0300    0.0740    2.1860 ha        1 4BI      0.136000
     29 H8          5.2880    0.0470    0.0400 ha        1 4BI      0.118000
     30 H9          4.0770   -0.1080   -2.1230 ha        1 4BI      0.116000
     31 H10         1.5900   -0.2230   -2.1720 ha        1 4BI      0.136000
     32 H11        -0.2670   -0.1290    4.5320 h1        1 4BI      0.047700
     33 H17        -2.6390    0.5330    1.6670 hc        1 4BI      0.073700
     34 H17A       -2.5590   -0.0880   -0.0520 hc        1 4BI      0.073700
     35 H17B       -2.5150   -1.2500    1.3470 hc        1 4BI      0.073700
     36 H19         1.2620    1.8390    4.4100 ha        1 4BI      0.178500
     37 H20         2.6060    1.8230    6.5120 ha        1 4BI      0.139500
     38 H22         4.2230   -2.0630    5.4680 ha        1 4BI      0.139500
     39 H23         2.9240   -2.0210    3.3440 ha        1 4BI      0.178500
     40 H25        -3.3910   -0.5720    6.6260 hc        1 4BI      0.039589
     41 H25A       -3.4890    0.5200    5.1600 hc        1 4BI      0.039589
     42 H25B       -1.9340    0.3630    6.0630 hc        1 4BI      0.039589
     43 H26        -4.1830   -2.5610    5.3850 hc        1 4BI      0.039589
     44 H26A       -4.4300   -1.5040    3.9230 hc        1 4BI      0.039589
     45 H26B       -3.4300   -3.0110    3.7910 hc        1 4BI      0.039589
     46 H27        -1.0720   -3.0350    4.8120 hc        1 4BI      0.039589
     47 H27A       -0.5890   -1.6810    5.9160 hc        1 4BI      0.039589
     48 H27B       -1.9450   -2.7850    6.3870 hc        1 4BI      0.039589
@<TRIPOS>BOND
     1    1    2 ar  
     2    1    6 ar  
     3    2    3 ar  
     4    2   10 ar  
     5    3    4 ar  
     6    3    7 ar  
     7    4    5 ar  
     8    4   18 1   
     9    5    6 ar  
    10    5   11 1   
    11    6   17 1   
    12    7    8 ar  
    13    7   28 1   
    14    8    9 ar  
    15    8   29 1   
    16    9   10 ar  
    17    9   30 1   
    18   10   31 1   
    19   11   12 1   
    20   11   15 1   
    21   11   32 1   
    22   12   13 1   
    23   12   14 1   
    24   15   16 1   
    25   16   25 1   
    26   16   26 1   
    27   16   27 1   
    28   17   33 1   
    29   17   34 1   
    30   17   35 1   
    31   18   19 ar  
    32   18   23 ar  
    33   19   20 ar  
    34   19   36 1   
    35   20   21 ar  
    36   20   37 1   
    37   21   22 ar  
    38   21   24 1   
    39   22   23 ar  
    40   22   38 1   
    41   23   39 1   
    42   25   40 1   
    43   25   41 1   
    44   25   42 1   
    45   26   43 1   
    46   26   44 1   
    47   26   45 1   
    48   27   46 1   
    49   27   47 1   
    50   27   48 1   
@<TRIPOS>SUBSTRUCTURE
     1 4BI         1 TEMP              0 ****  ****    0 ROOT
