@<TRIPOS>MOLECULE
4BI
   48    50     1     0     0
SMALL
bcc


@<TRIPOS>ATOM
      1 N1          0.0060   -0.2100   -0.0560 nb        1 4BI     -0.704000
      2 C2          1.3820   -0.1570    0.0040 ca        1 4BI      0.398600
      3 C3          2.0820   -0.0880    1.2440 ca        1 4BI     -0.138300
      4 C4          1.3120   -0.0720    2.4560 cp        1 4BI     -0.023000
      5 C5         -0.0720   -0.0610    2.3860 ca        1 4BI     -0.111600
      6 C6         -0.6900   -0.1580    1.0740 ca        1 4BI      0.483600
      7 C7          3.4990   -0.0230    1.2310 ca        1 4BI     -0.106000
      8 C8          4.1970   -0.0390    0.0480 ca        1 4BI     -0.155000
      9 C9          3.5080   -0.1190   -1.1830 ca        1 4BI     -0.143000
     10 C10         2.1370   -0.1750   -1.2130 ca        1 4BI     -0.172300
     11 C11        -0.9070    0.0740    3.6260 c3        1 4BI      0.043400
     12 C12        -1.4720    1.5300    3.7790 c         1 4BI      0.909600
     13 O13        -0.7260    2.3490    4.3860 o         1 4BI     -0.819800
     14 O14        -2.6170    1.8050    3.3380 o         1 4BI     -0.819800
     15 O15        -1.9480   -0.9080    3.5620 os        1 4BI     -0.414600
     16 C16        -2.4670   -1.3420    4.8270 c3        1 4BI      0.164800
     17 C17        -2.1830   -0.2260    0.9860 c3        1 4BI     -0.177400
     18 C18         2.0460   -0.0880    3.7280 cp        1 4BI     -0.036000
     19 C19         1.9620    0.9840    4.6280 ca        1 4BI     -0.105500
     20 C20         2.6930    0.9620    5.8160 ca        1 4BI     -0.141000
     21 C21         3.5030   -0.1370    6.1100 ca        1 4BI      0.012400
     22 C22         3.5830   -1.2200    5.2310 ca        1 4BI     -0.141000
     23 C23         2.8550   -1.1900    4.0440 ca        1 4BI     -0.105500
     24 Cl          4.4040   -0.1650    7.5610 cl        1 4BI     -0.135400
     25 C25        -2.8450   -0.1770    5.7270 c3        1 4BI     -0.110767
     26 C26        -3.7190   -2.1380    4.4540 c3        1 4BI     -0.110767
     27 C27        -1.4680   -2.2600    5.5250 c3        1 4BI     -0.110767
     28 H7          4.0350    0.0500    2.1910 ha        1 4BI      0.136000
     29 H8          5.2940    0.0160    0.0460 ha        1 4BI      0.118000
     30 H9          4.0850   -0.1310   -2.1190 ha        1 4BI      0.116000
     31 H10         1.5980   -0.2290   -2.1710 ha        1 4BI      0.136000
     32 H11        -0.2670   -0.1270    4.5320 h1        1 4BI      0.047700
     33 H17        -2.5530   -0.0690   -0.0560 hc        1 4BI      0.073700
     34 H17A       -2.6310    0.5520    1.6640 hc        1 4BI      0.073700
     35 H17B       -2.5180   -1.2320    1.3430 hc        1 4BI      0.073700
     36 H19         1.2750    1.8320    4.4120 ha        1 4BI      0.178500
     37 H20         2.6160    1.8060    6.5160 ha        1 4BI      0.139500
     38 H22         4.2100   -2.0900    5.4710 ha        1 4BI      0.139500
     39 H23         2.9140   -2.0390    3.3460 ha        1 4BI      0.178500
     40 H25        -3.3960   -0.5500    6.6220 hc        1 4BI      0.039589
     41 H25A       -3.4850    0.5430    5.1560 hc        1 4BI      0.039589
     42 H25B       -1.9330    0.3750    6.0610 hc        1 4BI      0.039589
     43 H26        -4.4370   -1.4740    3.9170 hc        1 4BI      0.039589
     44 H26A       -4.1990   -2.5340    5.3790 hc        1 4BI      0.039589
     45 H26B       -3.4470   -2.9870    3.7850 hc        1 4BI      0.039589
     46 H27        -0.6000   -1.6770    5.9140 hc        1 4BI      0.039589
     47 H27A       -1.9640   -2.7720    6.3830 hc        1 4BI      0.039589
     48 H27B       -1.0910   -3.0270    4.8090 hc        1 4BI      0.039589
@<TRIPOS>BOND
     1    1    2 ar  
     2    1    6 ar  
     3    2    3 ar  
     4    2   10 ar  
     5    3    4 ar  
     6    3    7 ar  
     7    4    5 ar  
     8    4   18 1   
     9    5    6 ar  
    10    5   11 1   
    11    6   17 1   
    12    7    8 ar  
    13    7   28 1   
    14    8    9 ar  
    15    8   29 1   
    16    9   10 ar  
    17    9   30 1   
    18   10   31 1   
    19   11   12 1   
    20   11   15 1   
    21   11   32 1   
    22   12   13 1   
    23   12   14 1   
    24   15   16 1   
    25   16   25 1   
    26   16   26 1   
    27   16   27 1   
    28   17   33 1   
    29   17   34 1   
    30   17   35 1   
    31   18   19 ar  
    32   18   23 ar  
    33   19   20 ar  
    34   19   36 1   
    35   20   21 ar  
    36   20   37 1   
    37   21   22 ar  
    38   21   24 1   
    39   22   23 ar  
    40   22   38 1   
    41   23   39 1   
    42   25   40 1   
    43   25   41 1   
    44   25   42 1   
    45   26   43 1   
    46   26   44 1   
    47   26   45 1   
    48   27   46 1   
    49   27   47 1   
    50   27   48 1   
@<TRIPOS>SUBSTRUCTURE
     1 4BI         1 TEMP              0 ****  ****    0 ROOT
