@<TRIPOS>MOLECULE
4BJ
   70    74     1     0     0
SMALL
bcc


@<TRIPOS>ATOM
      1 CBK         0.0900   -1.0660    0.4490 c3        1 4BJ      0.105700
      2 OBJ         1.5080   -1.1720    0.5190 os        1 4BJ     -0.303900
      3 CBE         2.0990   -0.6240    1.6400 ca        1 4BJ      0.079100
      4 CBD         1.4180   -0.0380    2.6990 ca        1 4BJ     -0.070000
      5 CBF         3.5220   -0.6960    1.6710 ca        1 4BJ      0.176100
      6 OBI         4.1060   -1.2900    0.5810 os        1 4BJ     -0.293900
      7 CBL         5.5290   -1.3810    0.5970 c3        1 4BJ      0.106700
      8 CBG         4.2150   -0.1800    2.7690 ca        1 4BJ     -0.217000
      9 CBH         3.5090    0.4050    3.8180 ca        1 4BJ      0.003000
     10 CBC         2.1160    0.4880    3.8000 ca        1 4BJ     -0.405500
     11 SAZ         1.2810    1.1670    5.0830 sy        1 4BJ      1.523200
     12 OBA         0.0070    0.5730    5.1700 o         1 4BJ     -0.651300
     13 OBB         2.0910    1.1180    6.2380 o         1 4BJ     -0.651300
     14 NAK         1.1570    2.7470    4.6650 nu        1 4BJ     -0.759500
     15 CAC         0.2940    3.3550    3.7470 ca        1 4BJ      0.190600
     16 CAD        -0.9610    2.7750    3.4310 ca        1 4BJ     -0.181000
     17 CAE        -1.7760    3.4100    2.5070 ca        1 4BJ      0.022600
     18 NAG        -3.0290    3.0230    1.9780 n         1 4BJ     -0.336000
     19 CBO        -3.9580    2.1900    2.6760 c3        1 4BJ      0.077300
     20 CAH        -3.4670    4.0900    1.1130 c         1 4BJ      0.771500
     21 OBM        -4.5540    4.1320    0.5160 o         1 4BJ     -0.609500
     22 NAI        -2.3850    5.0260    0.9500 n         1 4BJ     -0.328000
     23 CBN        -2.6220    6.3810    0.5600 c3        1 4BJ      0.077300
     24 CAF        -1.3800    4.6520    1.8750 ca        1 4BJ     -0.029400
     25 CAA        -0.1640    5.2340    2.1910 ca        1 4BJ     -0.105000
     26 CAB         0.6570    4.5760    3.1180 ca        1 4BJ      0.034100
     27 OAJ         1.9390    5.0780    3.3540 os        1 4BJ     -0.250200
     28 CAL         2.0150    6.2810    4.0500 ca        1 4BJ      0.137100
     29 CAM         0.9290    6.8790    4.6880 ca        1 4BJ     -0.219000
     30 CAQ         3.3010    6.8510    4.0910 ca        1 4BJ     -0.185000
     31 CAP         3.4830    8.0370    4.7900 ca        1 4BJ     -0.068000
     32 CAO         2.4180    8.6650    5.4390 ca        1 4BJ     -0.232000
     33 CAN         1.1460    8.0830    5.3840 ca        1 4BJ      0.159100
     34 OAR         0.0120    8.6100    5.9670 os        1 4BJ     -0.325900
     35 CAS         0.2190    9.7700    6.7890 c3        1 4BJ      0.175700
     36 CAT        -1.0950   10.1400    7.3940 ca        1 4BJ     -0.095300
     37 CAU        -2.2980    9.8920    6.7270 ca        1 4BJ     -0.112000
     38 CAV        -3.5080   10.2800    7.3030 ca        1 4BJ     -0.130500
     39 CAW        -3.5200   10.9200    8.5420 ca        1 4BJ     -0.123000
     40 CAX        -2.3200   11.1680    9.2090 ca        1 4BJ     -0.130500
     41 CAY        -1.1090   10.7760    8.6410 ca        1 4BJ     -0.112000
     42 H1         -0.3900   -1.6240    1.2900 h1        1 4BJ      0.049367
     43 H2         -0.1530   -1.5460   -0.5330 h1        1 4BJ      0.049367
     44 H3         -0.2280    0.0050    0.4540 h1        1 4BJ      0.049367
     45 H4          0.3150    0.0120    2.6970 ha        1 4BJ      0.159000
     46 H5          5.7610   -1.8910   -0.3730 h1        1 4BJ      0.050700
     47 H6          5.8740   -1.9970    1.4620 h1        1 4BJ      0.050700
     48 H7          5.9880   -0.3630    0.6280 h1        1 4BJ      0.050700
     49 H8          5.3120   -0.2330    2.8150 ha        1 4BJ      0.149000
     50 H9          4.0640    0.7960    4.6900 ha        1 4BJ      0.156000
     51 H10         1.8430    3.3870    5.0130 hn        1 4BJ      0.464800
     52 H11        -1.2960    1.8410    3.9160 ha        1 4BJ      0.185000
     53 H12        -3.4660    1.2030    2.8850 h1        1 4BJ      0.057700
     54 H13        -4.2830    2.6460    3.6500 h1        1 4BJ      0.057700
     55 H14        -4.8580    2.0350    2.0220 h1        1 4BJ      0.057700
     56 H15        -1.6970    6.7740    0.0610 h1        1 4BJ      0.055700
     57 H16        -3.4790    6.3980   -0.1660 h1        1 4BJ      0.055700
     58 H17        -2.8690    7.0380    1.4370 h1        1 4BJ      0.055700
     59 H18         0.1700    6.1790    1.7370 ha        1 4BJ      0.162000
     60 H19        -0.0760    6.4350    4.6580 ha        1 4BJ      0.164000
     61 H20         4.1340    6.3540    3.5760 ha        1 4BJ      0.152000
     62 H21         4.4840    8.4930    4.8330 ha        1 4BJ      0.137000
     63 H22         2.5920    9.6040    5.9820 ha        1 4BJ      0.140000
     64 H23         0.5970   10.6110    6.1440 h1        1 4BJ      0.050200
     65 H24         0.9760    9.5330    7.5830 h1        1 4BJ      0.050200
     66 H25        -2.2840    9.3810    5.7530 ha        1 4BJ      0.138500
     67 H26        -4.4530   10.0790    6.7770 ha        1 4BJ      0.133500
     68 H27        -4.4740   11.2270    8.9940 ha        1 4BJ      0.133000
     69 H28        -2.3280   11.6700   10.1880 ha        1 4BJ      0.133500
     70 H29        -0.1660   10.9660    9.1730 ha        1 4BJ      0.138500
@<TRIPOS>BOND
     1    1    2 1   
     2    1   42 1   
     3    1   43 1   
     4    1   44 1   
     5    2    3 1   
     6    3    4 ar  
     7    3    5 ar  
     8    4   10 ar  
     9    4   45 1   
    10    5    6 1   
    11    5    8 ar  
    12    6    7 1   
    13    7   46 1   
    14    7   47 1   
    15    7   48 1   
    16    8    9 ar  
    17    8   49 1   
    18    9   10 ar  
    19    9   50 1   
    20   10   11 1   
    21   11   12 2   
    22   11   13 2   
    23   11   14 1   
    24   14   15 1   
    25   14   51 1   
    26   15   16 ar  
    27   15   26 ar  
    28   16   17 ar  
    29   16   52 1   
    30   17   18 1   
    31   17   24 ar  
    32   18   19 1   
    33   18   20 1   
    34   19   53 1   
    35   19   54 1   
    36   19   55 1   
    37   20   21 2   
    38   20   22 1   
    39   22   23 1   
    40   22   24 1   
    41   23   56 1   
    42   23   57 1   
    43   23   58 1   
    44   24   25 ar  
    45   25   26 ar  
    46   25   59 1   
    47   26   27 1   
    48   27   28 1   
    49   28   29 ar  
    50   28   30 ar  
    51   29   33 ar  
    52   29   60 1   
    53   30   31 ar  
    54   30   61 1   
    55   31   32 ar  
    56   31   62 1   
    57   32   33 ar  
    58   32   63 1   
    59   33   34 1   
    60   34   35 1   
    61   35   36 1   
    62   35   64 1   
    63   35   65 1   
    64   36   37 ar  
    65   36   41 ar  
    66   37   38 ar  
    67   37   66 1   
    68   38   39 ar  
    69   38   67 1   
    70   39   40 ar  
    71   39   68 1   
    72   40   41 ar  
    73   40   69 1   
    74   41   70 1   
@<TRIPOS>SUBSTRUCTURE
     1 4BJ         1 TEMP              0 ****  ****    0 ROOT
