@<TRIPOS>MOLECULE
4BJ
   70    74     1     0     0
SMALL
bcc


@<TRIPOS>ATOM
      1 CBK         0.0860   -1.0500    0.4240 c3        1 4BJ      0.105700
      2 OBJ         1.5030   -1.1680    0.5110 os        1 4BJ     -0.303900
      3 CBE         2.0840   -0.6300    1.6410 ca        1 4BJ      0.079100
      4 CBD         1.3950   -0.0420    2.6940 ca        1 4BJ     -0.070000
      5 CBF         3.5060   -0.7130    1.6880 ca        1 4BJ      0.176100
      6 OBI         4.0980   -1.3060    0.6020 os        1 4BJ     -0.293900
      7 CBL         5.5200   -1.4080    0.6340 c3        1 4BJ      0.106700
      8 CBG         4.1900   -0.2070    2.7970 ca        1 4BJ     -0.217000
      9 CBH         3.4760    0.3790    3.8400 ca        1 4BJ      0.003000
     10 CBC         2.0840    0.4730    3.8060 ca        1 4BJ     -0.405500
     11 SAZ         1.2400    1.1530    5.0820 sy        1 4BJ      1.523200
     12 OBA        -0.0400    0.5680    5.1520 o         1 4BJ     -0.651300
     13 OBB         2.0350    1.0930    6.2460 o         1 4BJ     -0.651300
     14 NAK         1.1330    2.7360    4.6680 nh        1 4BJ     -0.759500
     15 CAC         0.2850    3.3540    3.7440 ca        1 4BJ      0.190600
     16 CAD        -0.9710    2.7850    3.4100 ca        1 4BJ     -0.181000
     17 CAE        -1.7690    3.4300    2.4790 ca        1 4BJ      0.022600
     18 NAG        -3.0190    3.0560    1.9330 n         1 4BJ     -0.336000
     19 CBO        -3.9620    2.2270    2.6170 c3        1 4BJ      0.077300
     20 CAH        -3.4390    4.1290    1.0680 c         1 4BJ      0.771500
     21 OBM        -4.5190    4.1810    0.4590 o         1 4BJ     -0.609500
     22 NAI        -2.3470    5.0580    0.9220 n         1 4BJ     -0.328000
     23 CBN        -2.5700    6.4160    0.5350 c3        1 4BJ      0.077300
     24 CAF        -1.3560    4.6720    1.8570 ca        1 4BJ     -0.029400
     25 CAA        -0.1400    5.2430    2.1890 ca        1 4BJ     -0.105000
     26 CAB         0.6650    4.5750    3.1240 ca        1 4BJ      0.034100
     27 OAJ         1.9480    5.0660    3.3770 os        1 4BJ     -0.250200
     28 CAL         2.0250    6.2660    4.0790 ca        1 4BJ      0.137100
     29 CAM         0.9360    6.8690    4.7050 ca        1 4BJ     -0.219000
     30 CAQ         3.3150    6.8250    4.1380 ca        1 4BJ     -0.185000
     31 CAP         3.4980    8.0070    4.8440 ca        1 4BJ     -0.068000
     32 CAO         2.4300    8.6400    5.4830 ca        1 4BJ     -0.232000
     33 CAN         1.1550    8.0690    5.4090 ca        1 4BJ      0.159100
     34 OAR         0.0180    8.6030    5.9810 os        1 4BJ     -0.325900
     35 CAS         0.2240    9.7580    6.8100 c3        1 4BJ      0.175700
     36 CAT        -1.0930   10.1360    7.4000 ca        1 4BJ     -0.095300
     37 CAU        -2.2910    9.9000    6.7190 ca        1 4BJ     -0.112000
     38 CAV        -3.5040   10.2950    7.2810 ca        1 4BJ     -0.130500
     39 CAW        -3.5260   10.9310    8.5220 ca        1 4BJ     -0.123000
     40 CAX        -2.3320   11.1680    9.2050 ca        1 4BJ     -0.130500
     41 CAY        -1.1180   10.7690    8.6490 ca        1 4BJ     -0.112000
     42 H1         -0.4080   -1.6080    1.2570 h1        1 4BJ      0.049367
     43 H2         -0.2240    0.0230    0.4300 h1        1 4BJ      0.049367
     44 H3         -0.1490   -1.5240   -0.5630 h1        1 4BJ      0.049367
     45 H4          0.2930    0.0160    2.6790 ha        1 4BJ      0.159000
     46 H5          5.9860   -0.3940    0.6750 h1        1 4BJ      0.050700
     47 H6          5.7600   -1.9160   -0.3340 h1        1 4BJ      0.050700
     48 H7          5.8510   -2.0310    1.5010 h1        1 4BJ      0.050700
     49 H8          5.2860   -0.2680    2.8550 ha        1 4BJ      0.149000
     50 H9          4.0240    0.7620    4.7200 ha        1 4BJ      0.156000
     51 H10         1.8200    3.3690    5.0280 hn        1 4BJ      0.464800
     52 H11        -1.3180    1.8520    3.8870 ha        1 4BJ      0.185000
     53 H12        -4.8560    2.0820    1.9530 h1        1 4BJ      0.057700
     54 H13        -3.4810    1.2350    2.8280 h1        1 4BJ      0.057700
     55 H14        -4.2960    2.6810    3.5900 h1        1 4BJ      0.057700
     56 H15        -2.8220    7.0710    1.4120 h1        1 4BJ      0.055700
     57 H16        -3.4180    6.4420   -0.2010 h1        1 4BJ      0.055700
     58 H17        -1.6350    6.8040    0.0480 h1        1 4BJ      0.055700
     59 H18         0.2070    6.1870    1.7430 ha        1 4BJ      0.162000
     60 H19        -0.0710    6.4340    4.6620 ha        1 4BJ      0.164000
     61 H20         4.1500    6.3230    3.6310 ha        1 4BJ      0.152000
     62 H21         4.5030    8.4540    4.9010 ha        1 4BJ      0.137000
     63 H22         2.6060    9.5750    6.0320 ha        1 4BJ      0.140000
     64 H23         0.6170   10.5980    6.1740 h1        1 4BJ      0.050200
     65 H24         0.9700    9.5110    7.6130 h1        1 4BJ      0.050200
     66 H25        -2.2680    9.3920    5.7420 ha        1 4BJ      0.138500
     67 H26        -4.4440   10.1040    6.7440 ha        1 4BJ      0.133500
     68 H27        -4.4830   11.2450    8.9640 ha        1 4BJ      0.133000
     69 H28        -2.3480   11.6660   10.1850 ha        1 4BJ      0.133500
     70 H29        -0.1790   10.9490    9.1930 ha        1 4BJ      0.138500
@<TRIPOS>BOND
     1    1    2 1   
     2    1   42 1   
     3    1   43 1   
     4    1   44 1   
     5    2    3 1   
     6    3    4 ar  
     7    3    5 ar  
     8    4   10 ar  
     9    4   45 1   
    10    5    6 1   
    11    5    8 ar  
    12    6    7 1   
    13    7   46 1   
    14    7   47 1   
    15    7   48 1   
    16    8    9 ar  
    17    8   49 1   
    18    9   10 ar  
    19    9   50 1   
    20   10   11 1   
    21   11   12 2   
    22   11   13 2   
    23   11   14 1   
    24   14   15 1   
    25   14   51 1   
    26   15   16 ar  
    27   15   26 ar  
    28   16   17 ar  
    29   16   52 1   
    30   17   18 1   
    31   17   24 ar  
    32   18   19 1   
    33   18   20 1   
    34   19   53 1   
    35   19   54 1   
    36   19   55 1   
    37   20   21 2   
    38   20   22 1   
    39   22   23 1   
    40   22   24 1   
    41   23   56 1   
    42   23   57 1   
    43   23   58 1   
    44   24   25 ar  
    45   25   26 ar  
    46   25   59 1   
    47   26   27 1   
    48   27   28 1   
    49   28   29 ar  
    50   28   30 ar  
    51   29   33 ar  
    52   29   60 1   
    53   30   31 ar  
    54   30   61 1   
    55   31   32 ar  
    56   31   62 1   
    57   32   33 ar  
    58   32   63 1   
    59   33   34 1   
    60   34   35 1   
    61   35   36 1   
    62   35   64 1   
    63   35   65 1   
    64   36   37 ar  
    65   36   41 ar  
    66   37   38 ar  
    67   37   66 1   
    68   38   39 ar  
    69   38   67 1   
    70   39   40 ar  
    71   39   68 1   
    72   40   41 ar  
    73   40   69 1   
    74   41   70 1   
@<TRIPOS>SUBSTRUCTURE
     1 4BJ         1 TEMP              0 ****  ****    0 ROOT
