@<TRIPOS>MOLECULE
4BK
   64    67     1     0     0
SMALL
bcc


@<TRIPOS>ATOM
      1 CAX         1.3090    0.0580    1.2220 c3        1 4BK     -0.092100
      2 CAW         2.4310    0.3060    0.2380 c3        1 4BK     -0.070700
      3 CAY         3.6950    0.7330    0.9530 c3        1 4BK     -0.092100
      4 CAV         2.7150   -0.9480   -0.5860 c3        1 4BK      0.130400
      5 OAU         1.6290   -1.0670   -1.5160 os        1 4BK     -0.328900
      6 CAS         1.6980   -2.1310   -2.3910 ca        1 4BK      0.155100
      7 CAT         0.6410   -2.1890   -3.3150 ca        1 4BK     -0.183000
      8 CAR         2.7130   -3.0980   -2.3900 ca        1 4BK     -0.231000
      9 CAQ         2.6690   -4.1310   -3.3250 ca        1 4BK     -0.065000
     10 CAP         1.6360   -4.2160   -4.2550 ca        1 4BK     -0.220000
     11 CAO         0.6320   -3.2400   -4.2400 ca        1 4BK      0.135100
     12 OAN        -0.4300   -3.2030   -5.1410 os        1 4BK     -0.247200
     13 CAC        -0.6050   -4.3430   -5.9300 ca        1 4BK      0.027100
     14 CAD        -1.2450   -5.4500   -5.3540 ca        1 4BK     -0.097000
     15 CAE        -1.5370   -6.5270   -6.1740 ca        1 4BK     -0.040400
     16 NAG        -2.2220   -7.7420   -5.9160 n         1 4BK     -0.324000
     17 CAL        -2.2290   -8.3710   -4.6330 c3        1 4BK      0.077300
     18 CAH        -2.1500   -8.5200   -7.1280 c         1 4BK      0.771500
     19 OAJ        -2.5820   -9.6740   -7.2730 o         1 4BK     -0.614500
     20 NAI        -1.6170   -7.6900   -8.1770 n         1 4BK     -0.339000
     21 CAK        -1.0550   -8.2380   -9.3700 c3        1 4BK      0.081300
     22 CAF        -1.1710   -6.4920   -7.5740 ca        1 4BK      0.028600
     23 CAA        -0.5280   -5.3970   -8.1300 ca        1 4BK     -0.186000
     24 CAB        -0.2400   -4.2820   -7.3030 ca        1 4BK      0.199600
     25 NAM         0.4020   -3.1480   -7.8100 nu        1 4BK     -0.750500
     26 SAZ         0.5290   -2.6220   -9.3540 sy        1 4BK      1.485800
     27 OBA         1.5970   -1.7140   -9.4070 o         1 4BK     -0.653300
     28 OBB         0.5910   -3.6980  -10.2670 o         1 4BK     -0.653300
     29 CBC        -0.9200   -1.8420   -9.6170 cc        1 4BK     -0.035800
     30 CBG        -1.8670   -2.0710  -10.6430 cd        1 4BK     -0.083600
     31 NBD        -1.3710   -0.7890   -8.8050 nc        1 4BK     -0.583000
     32 CBE        -2.5500   -0.3830   -9.3160 cd        1 4BK      0.410800
     33 CBI        -3.4210    0.7060   -8.8090 c3        1 4BK     -0.125400
     34 NBF        -2.8870   -1.1600  -10.4620 na        1 4BK     -0.193900
     35 CBH        -4.0620   -1.0130  -11.2570 c3        1 4BK      0.014600
     36 H1          0.4010   -0.3000    0.6790 hc        1 4BK      0.038367
     37 H2          1.0560    1.0000    1.7650 hc        1 4BK      0.038367
     38 H3          1.6040   -0.7140    1.9720 hc        1 4BK      0.038367
     39 H4          2.1140    1.1240   -0.4700 hc        1 4BK      0.068700
     40 H5          3.4940    1.6390    1.5730 hc        1 4BK      0.038367
     41 H6          4.0620   -0.0800    1.6240 hc        1 4BK      0.038367
     42 H7          4.4990    0.9780    0.2180 hc        1 4BK      0.038367
     43 H8          3.6780   -0.8430   -1.1520 h1        1 4BK      0.041200
     44 H9          2.7520   -1.8590    0.0660 h1        1 4BK      0.041200
     45 H10        -0.1500   -1.4280   -3.3120 ha        1 4BK      0.166000
     46 H11         3.5400   -3.0530   -1.6690 ha        1 4BK      0.139000
     47 H12         3.4660   -4.8910   -3.3300 ha        1 4BK      0.135000
     48 H13         1.6080   -5.0310   -4.9900 ha        1 4BK      0.148000
     49 H14        -1.5060   -5.4380   -4.2860 ha        1 4BK      0.160000
     50 H15        -2.8240   -9.3210   -4.7050 h1        1 4BK      0.054367
     51 H16        -1.1930   -8.6120   -4.2700 h1        1 4BK      0.054367
     52 H17        -2.7170   -7.6750   -3.8990 h1        1 4BK      0.054367
     53 H18        -1.6160   -9.1750   -9.6320 h1        1 4BK      0.056700
     54 H19         0.0350   -8.4830   -9.2460 h1        1 4BK      0.056700
     55 H20        -1.1640   -7.4870  -10.1970 h1        1 4BK      0.056700
     56 H21        -0.2430   -5.4070   -9.1970 ha        1 4BK      0.186000
     57 H22         0.6910   -2.5250   -7.0800 hn        1 4BK      0.469800
     58 H23        -1.8500   -2.8080  -11.4520 h4        1 4BK      0.200000
     59 H24        -4.4260    0.2960   -8.5360 hc        1 4BK      0.063033
     60 H25        -2.9650    1.1750   -7.9020 hc        1 4BK      0.063033
     61 H26        -3.5510    1.4900   -9.5950 hc        1 4BK      0.063033
     62 H27        -4.1070    0.0280  -11.6810 h1        1 4BK      0.062033
     63 H28        -4.9740   -1.1840  -10.6230 h1        1 4BK      0.062033
     64 H29        -4.0510   -1.7550  -12.0980 h1        1 4BK      0.062033
@<TRIPOS>BOND
     1    1    2 1   
     2    1   36 1   
     3    1   37 1   
     4    1   38 1   
     5    2    3 1   
     6    2    4 1   
     7    2   39 1   
     8    3   40 1   
     9    3   41 1   
    10    3   42 1   
    11    4    5 1   
    12    4   43 1   
    13    4   44 1   
    14    5    6 1   
    15    6    7 ar  
    16    6    8 ar  
    17    7   11 ar  
    18    7   45 1   
    19    8    9 ar  
    20    8   46 1   
    21    9   10 ar  
    22    9   47 1   
    23   10   11 ar  
    24   10   48 1   
    25   11   12 1   
    26   12   13 1   
    27   13   14 ar  
    28   13   24 ar  
    29   14   15 ar  
    30   14   49 1   
    31   15   16 1   
    32   15   22 ar  
    33   16   17 1   
    34   16   18 1   
    35   17   50 1   
    36   17   51 1   
    37   17   52 1   
    38   18   19 2   
    39   18   20 1   
    40   20   21 1   
    41   20   22 1   
    42   21   53 1   
    43   21   54 1   
    44   21   55 1   
    45   22   23 ar  
    46   23   24 ar  
    47   23   56 1   
    48   24   25 1   
    49   25   26 1   
    50   25   57 1   
    51   26   27 2   
    52   26   28 2   
    53   26   29 1   
    54   29   30 2   
    55   29   31 1   
    56   30   34 1   
    57   30   58 1   
    58   31   32 2   
    59   32   33 1   
    60   32   34 1   
    61   33   59 1   
    62   33   60 1   
    63   33   61 1   
    64   34   35 1   
    65   35   62 1   
    66   35   63 1   
    67   35   64 1   
@<TRIPOS>SUBSTRUCTURE
     1 4BK         1 TEMP              0 ****  ****    0 ROOT
