@<TRIPOS>MOLECULE
4BK
   64    67     1     0     0
SMALL
bcc


@<TRIPOS>ATOM
      1 CAX         1.3530    0.0730    1.2020 c3        1 4BK     -0.092100
      2 CAW         2.4760    0.3080    0.2160 c3        1 4BK     -0.070700
      3 CAY         3.7450    0.7270    0.9280 c3        1 4BK     -0.092100
      4 CAV         2.7480   -0.9520   -0.6040 c3        1 4BK      0.130400
      5 OAU         1.6600   -1.0650   -1.5310 os        1 4BK     -0.328900
      6 CAS         1.7200   -2.1330   -2.4020 ca        1 4BK      0.155100
      7 CAT         0.6600   -2.1870   -3.3240 ca        1 4BK     -0.183000
      8 CAR         2.7270   -3.1090   -2.3990 ca        1 4BK     -0.231000
      9 CAQ         2.6720   -4.1450   -3.3300 ca        1 4BK     -0.065000
     10 CAP         1.6380   -4.2250   -4.2570 ca        1 4BK     -0.220000
     11 CAO         0.6410   -3.2400   -4.2450 ca        1 4BK      0.135100
     12 OAN        -0.4220   -3.1980   -5.1450 os        1 4BK     -0.247200
     13 CAC        -0.6080   -4.3400   -5.9280 ca        1 4BK      0.027100
     14 CAD        -1.2500   -5.4420   -5.3450 ca        1 4BK     -0.097000
     15 CAE        -1.5520   -6.5210   -6.1600 ca        1 4BK     -0.040400
     16 NAG        -2.2410   -7.7310   -5.8950 n         1 4BK     -0.324000
     17 CAL        -2.2430   -8.3570   -4.6090 c3        1 4BK      0.077300
     18 CAH        -2.1800   -8.5130   -7.1040 c         1 4BK      0.771500
     19 OAJ        -2.6190   -9.6660   -7.2430 o         1 4BK     -0.614500
     20 NAI        -1.6500   -7.6890   -8.1590 n         1 4BK     -0.339000
     21 CAK        -1.0990   -8.2440   -9.3540 c3        1 4BK      0.081300
     22 CAF        -1.1940   -6.4920   -7.5630 ca        1 4BK      0.028600
     23 CAA        -0.5490   -5.4010   -8.1260 ca        1 4BK     -0.186000
     24 CAB        -0.2510   -4.2850   -7.3040 ca        1 4BK      0.199600
     25 NAM         0.3930   -3.1560   -7.8190 nh        1 4BK     -0.750500
     26 SAZ         0.5120   -2.6350   -9.3650 sy        1 4BK      1.485800
     27 OBA         1.5840   -1.7320   -9.4280 o         1 4BK     -0.653300
     28 OBB         0.5620   -3.7130  -10.2750 o         1 4BK     -0.653300
     29 CBC        -0.9360   -1.8490   -9.6200 cc        1 4BK     -0.035800
     30 CBG        -1.8910   -2.0760  -10.6390 cd        1 4BK     -0.083600
     31 NBD        -1.3760   -0.7910   -8.8070 nc        1 4BK     -0.583000
     32 CBE        -2.5560   -0.3810   -9.3110 cd        1 4BK      0.410800
     33 CBI        -3.4190    0.7130   -8.8010 c3        1 4BK     -0.125400
     34 NBF        -2.9050   -1.1590  -10.4530 na        1 4BK     -0.193900
     35 CBH        -4.0850   -1.0080  -11.2410 c3        1 4BK      0.014600
     36 H1          1.6420   -0.6990    1.9540 hc        1 4BK      0.038367
     37 H2          0.4410   -0.2800    0.6610 hc        1 4BK      0.038367
     38 H3          1.1090    1.0200    1.7410 hc        1 4BK      0.038367
     39 H4          2.1660    1.1250   -0.4950 hc        1 4BK      0.068700
     40 H5          4.5500    0.9610    0.1910 hc        1 4BK      0.038367
     41 H6          4.1050   -0.0870    1.6020 hc        1 4BK      0.038367
     42 H7          3.5520    1.6370    1.5450 hc        1 4BK      0.038367
     43 H8          2.7790   -1.8610    0.0520 h1        1 4BK      0.041200
     44 H9          3.7120   -0.8570   -1.1710 h1        1 4BK      0.041200
     45 H10        -0.1250   -1.4190   -3.3240 ha        1 4BK      0.166000
     46 H11         3.5540   -3.0680   -1.6790 ha        1 4BK      0.139000
     47 H12         3.4620   -4.9110   -3.3330 ha        1 4BK      0.135000
     48 H13         1.6010   -5.0430   -4.9900 ha        1 4BK      0.148000
     49 H14        -1.5030   -5.4260   -4.2760 ha        1 4BK      0.160000
     50 H15        -2.8430   -9.3040   -4.6740 h1        1 4BK      0.054367
     51 H16        -2.7230   -7.6550   -3.8750 h1        1 4BK      0.054367
     52 H17        -1.2060   -8.6010   -4.2520 h1        1 4BK      0.054367
     53 H18        -1.2090   -7.4940  -10.1830 h1        1 4BK      0.056700
     54 H19        -0.0090   -8.4940   -9.2370 h1        1 4BK      0.056700
     55 H20        -1.6660   -9.1790   -9.6090 h1        1 4BK      0.056700
     56 H21        -0.2720   -5.4160   -9.1940 ha        1 4BK      0.186000
     57 H22         0.6900   -2.5320   -7.0930 hn        1 4BK      0.469800
     58 H23        -1.8830   -2.8140  -11.4450 h4        1 4BK      0.200000
     59 H24        -4.4230    0.3090   -8.5190 hc        1 4BK      0.063033
     60 H25        -2.9530    1.1840   -7.9000 hc        1 4BK      0.063033
     61 H26        -3.5510    1.4960   -9.5890 hc        1 4BK      0.063033
     62 H27        -4.0850   -1.7560  -12.0780 h1        1 4BK      0.062033
     63 H28        -4.9940   -1.1700  -10.5990 h1        1 4BK      0.062033
     64 H29        -4.1250    0.0300  -11.6690 h1        1 4BK      0.062033
@<TRIPOS>BOND
     1    1    2 1   
     2    1   36 1   
     3    1   37 1   
     4    1   38 1   
     5    2    3 1   
     6    2    4 1   
     7    2   39 1   
     8    3   40 1   
     9    3   41 1   
    10    3   42 1   
    11    4    5 1   
    12    4   43 1   
    13    4   44 1   
    14    5    6 1   
    15    6    7 ar  
    16    6    8 ar  
    17    7   11 ar  
    18    7   45 1   
    19    8    9 ar  
    20    8   46 1   
    21    9   10 ar  
    22    9   47 1   
    23   10   11 ar  
    24   10   48 1   
    25   11   12 1   
    26   12   13 1   
    27   13   14 ar  
    28   13   24 ar  
    29   14   15 ar  
    30   14   49 1   
    31   15   16 1   
    32   15   22 ar  
    33   16   17 1   
    34   16   18 1   
    35   17   50 1   
    36   17   51 1   
    37   17   52 1   
    38   18   19 2   
    39   18   20 1   
    40   20   21 1   
    41   20   22 1   
    42   21   53 1   
    43   21   54 1   
    44   21   55 1   
    45   22   23 ar  
    46   23   24 ar  
    47   23   56 1   
    48   24   25 1   
    49   25   26 1   
    50   25   57 1   
    51   26   27 2   
    52   26   28 2   
    53   26   29 1   
    54   29   30 2   
    55   29   31 1   
    56   30   34 1   
    57   30   58 1   
    58   31   32 2   
    59   32   33 1   
    60   32   34 1   
    61   33   59 1   
    62   33   60 1   
    63   33   61 1   
    64   34   35 1   
    65   35   62 1   
    66   35   63 1   
    67   35   64 1   
@<TRIPOS>SUBSTRUCTURE
     1 4BK         1 TEMP              0 ****  ****    0 ROOT
