@<TRIPOS>MOLECULE
4BL
   21    22     1     0     0
SMALL
bcc


@<TRIPOS>ATOM
      1 C1         -0.0440    0.0050    0.0030 cc        1 4BL     -0.072300
      2 N2          1.3560    0.0370    0.0060 na        1 4BL     -0.169400
      3 C3         -0.5080   -0.0390    1.3220 cd        1 4BL     -0.219200
      4 C4          1.8090    0.0140    1.3210 ca        1 4BL     -0.066200
      5 C5         -0.8280    0.0210   -1.3040 c         1 4BL      0.926800
      6 C6          0.6420   -0.0350    2.1880 ca        1 4BL     -0.087800
      7 C7          3.1050    0.0300    1.8540 ca        1 4BL     -0.143000
      8 O8         -0.1590    0.0630   -2.3750 o         1 4BL     -0.817300
      9 C9          0.8320   -0.0650    3.5690 ca        1 4BL     -0.099000
     10 O10        -2.0830   -0.0100   -1.2260 o         1 4BL     -0.817300
     11 C11         3.2500   -0.0020    3.2370 ca        1 4BL     -0.104300
     12 C12         2.1200   -0.0490    4.0800 ca        1 4BL     -0.175000
     13 C13         4.6000    0.0130    3.8490 c3        1 4BL     -0.034800
     14 H3         -1.5500   -0.0700    1.6210 ha        1 4BL      0.157000
     15 H7          3.9830    0.0660    1.1960 ha        1 4BL      0.116000
     16 H9         -0.0370   -0.1020    4.2410 ha        1 4BL      0.117000
     17 H12         2.2770   -0.0730    5.1680 ha        1 4BL      0.105000
     18 H13         4.7570   -0.9050    4.4690 hc        1 4BL      0.025700
     19 H13A        5.4010    0.0510    3.0710 hc        1 4BL      0.025700
     20 H13B        4.7150    0.9040    4.5150 hc        1 4BL      0.025700
     21 HN2         1.9030    0.0700   -0.8140 hn        1 4BL      0.306700
@<TRIPOS>BOND
     1    1    2 1   
     2    1    3 2   
     3    1    5 1   
     4    2    4 1   
     5    2   21 1   
     6    3    6 1   
     7    3   14 1   
     8    4    6 ar  
     9    4    7 ar  
    10    5    8 1   
    11    5   10 1   
    12    6    9 ar  
    13    7   11 ar  
    14    7   15 1   
    15    9   12 ar  
    16    9   16 1   
    17   11   12 ar  
    18   11   13 1   
    19   12   17 1   
    20   13   18 1   
    21   13   19 1   
    22   13   20 1   
@<TRIPOS>SUBSTRUCTURE
     1 4BL         1 TEMP              0 ****  ****    0 ROOT
