@<TRIPOS>MOLECULE
4BL
   21    22     1     0     0
SMALL
bcc


@<TRIPOS>ATOM
      1 C1         -1.5990    0.0780    0.0150 cc        1 4BL     -0.072300
      2 N2         -0.6930   -0.9890    0.0490 na        1 4BL     -0.169400
      3 C3         -0.8910    1.2850   -0.0360 cd        1 4BL     -0.219200
      4 C4          0.6040   -0.4870    0.0210 ca        1 4BL     -0.066200
      5 C5         -3.1030   -0.1660    0.0360 c         1 4BL      0.926800
      6 C6          0.5130    0.9650   -0.0340 ca        1 4BL     -0.087800
      7 C7          1.8480   -1.1320    0.0360 ca        1 4BL     -0.143000
      8 O8         -3.4900   -1.3680    0.0850 o         1 4BL     -0.817300
      9 C9          1.6900    1.7110   -0.0710 ca        1 4BL     -0.099000
     10 O10        -3.8530    0.8420    0.0030 o         1 4BL     -0.817300
     11 C11         2.9980   -0.3510   -0.0020 ca        1 4BL     -0.104300
     12 C12         2.9130    1.0560   -0.0560 ca        1 4BL     -0.175000
     13 C13         4.3360   -0.9870    0.0120 c3        1 4BL     -0.034800
     14 H3         -1.3350    2.2730   -0.0700 ha        1 4BL      0.157000
     15 H7          1.9120   -2.2280    0.0770 ha        1 4BL      0.116000
     16 H9          1.6430    2.8080   -0.1130 ha        1 4BL      0.117000
     17 H12         3.8440    1.6390   -0.0850 ha        1 4BL      0.105000
     18 H13         4.9080   -0.7100   -0.9090 hc        1 4BL      0.025700
     19 H13A        4.9220   -0.6410    0.9000 hc        1 4BL      0.025700
     20 H13B        4.2590   -2.1010    0.0550 hc        1 4BL      0.025700
     21 HN2        -0.9660   -1.9360    0.0880 hn        1 4BL      0.306700
@<TRIPOS>BOND
     1    1    2 1   
     2    1    3 2   
     3    1    5 1   
     4    2    4 1   
     5    2   21 1   
     6    3    6 1   
     7    3   14 1   
     8    4    6 ar  
     9    4    7 ar  
    10    5    8 1   
    11    5   10 1   
    12    6    9 ar  
    13    7   11 ar  
    14    7   15 1   
    15    9   12 ar  
    16    9   16 1   
    17   11   12 ar  
    18   11   13 1   
    19   12   17 1   
    20   13   18 1   
    21   13   19 1   
    22   13   20 1   
@<TRIPOS>SUBSTRUCTURE
     1 4BL         1 TEMP              0 ****  ****    0 ROOT
