@<TRIPOS>MOLECULE
4BL
   21    22     1     0     0
SMALL
bcc


@<TRIPOS>ATOM
      1 C1         -0.0460    0.0110    0.0040 cc        1 4BL     -0.072300
      2 N2          1.3550    0.0240    0.0060 na        1 4BL     -0.169400
      3 C3         -0.5090   -0.0150    1.3250 cd        1 4BL     -0.219200
      4 C4          1.8090    0.0070    1.3200 ca        1 4BL     -0.066200
      5 C5         -0.8310    0.0250   -1.3010 c         1 4BL      0.926800
      6 C6          0.6420   -0.0180    2.1890 ca        1 4BL     -0.087800
      7 C7          3.1060    0.0100    1.8520 ca        1 4BL     -0.143000
      8 O8         -0.1630    0.0490   -2.3740 o         1 4BL     -0.817300
      9 C9          0.8330   -0.0380    3.5700 ca        1 4BL     -0.099000
     10 O10        -2.0860    0.0110   -1.2230 o         1 4BL     -0.817300
     11 C11         3.2520   -0.0110    3.2360 ca        1 4BL     -0.104300
     12 C12         2.1220   -0.0350    4.0800 ca        1 4BL     -0.175000
     13 C13         4.6020   -0.0080    3.8460 c3        1 4BL     -0.034800
     14 H3         -1.5510   -0.0290    1.6250 ha        1 4BL      0.157000
     15 H7          3.9830    0.0290    1.1930 ha        1 4BL      0.116000
     16 H9         -0.0350   -0.0570    4.2430 ha        1 4BL      0.117000
     17 H12         2.2790   -0.0510    5.1680 ha        1 4BL      0.105000
     18 H13         4.7450   -0.9200    4.4780 hc        1 4BL      0.025700
     19 H13A        5.4020    0.0070    3.0670 hc        1 4BL      0.025700
     20 H13B        4.7320    0.8900    4.5000 hc        1 4BL      0.025700
     21 HN2         1.9010    0.0420   -0.8150 hn        1 4BL      0.306700
@<TRIPOS>BOND
     1    1    2 1   
     2    1    3 2   
     3    1    5 1   
     4    2    4 1   
     5    2   21 1   
     6    3    6 1   
     7    3   14 1   
     8    4    6 ar  
     9    4    7 ar  
    10    5    8 1   
    11    5   10 1   
    12    6    9 ar  
    13    7   11 ar  
    14    7   15 1   
    15    9   12 ar  
    16    9   16 1   
    17   11   12 ar  
    18   11   13 1   
    19   12   17 1   
    20   13   18 1   
    21   13   19 1   
    22   13   20 1   
@<TRIPOS>SUBSTRUCTURE
     1 4BL         1 TEMP              0 ****  ****    0 ROOT
