@<TRIPOS>MOLECULE
4BL
   21    16     1     0     0
SMALL
bcc


@<TRIPOS>ATOM
      1 C1         -1.6550    0.0390   -1.9320 c1        1 4BL     -0.023500
      2 N2         -0.2890   -0.0140   -1.9310 n1        1 4BL     -0.192000
      3 C3         -2.0830    0.0430   -0.6200 c1        1 4BL     -0.153500
      4 C4          0.1380   -0.0440   -0.6160 c1        1 4BL     -0.023500
      5 C5         -2.6250    0.1390   -3.0890 c1        1 4BL      0.844000
      6 C6         -0.9710   -0.0090    0.1910 c1        1 4BL     -0.153500
      7 C7          1.4210   -0.1030   -0.0440 c1        1 4BL     -0.085500
      8 O8         -3.0130    1.2680   -3.4890 o         1 4BL     -0.785500
      9 C9         -0.8240   -0.0320    1.5890 c1        1 4BL     -0.079500
     10 O10        -3.0460   -0.9070   -3.6500 o         1 4BL     -0.785500
     11 C11         1.5650   -0.1260    1.3360 c1        1 4BL     -0.070100
     12 C12         0.4430   -0.0900    2.1520 c1        1 4BL     -0.079500
     13 C13         2.9200   -0.0140    1.9980 c3        1 4BL     -0.069000
     14 H3         -3.0110    0.0760   -0.3190 DU        1 4BL      0.207000
     15 H7          2.2100   -0.1280   -0.6170 ha        1 4BL      0.058500
     16 H9         -1.6130   -0.0070    2.1630 ha        1 4BL      0.053500
     17 H12         0.5450   -0.0980    3.1230 ha        1 4BL      0.053500
     18 H13         2.9960    0.8570    2.4430 hc        1 4BL      0.025700
     19 H13A        3.6230   -0.0960    1.3210 hc        1 4BL      0.025700
     20 H13B        3.0200   -0.7280    2.6610 hc        1 4BL      0.025700
     21 HN2         0.2480   -0.0270   -2.6690 DU        1 4BL      0.207000
@<TRIPOS>BOND
     1    1    2 2   
     2    1    3 2   
     3    2    4 2   
     4    3    6 2   
     5    4    6 2   
     6    5    8 2   
     7    5   10 2   
     8    7   11 3   
     9    7   15 1   
    10    9   12 3   
    11    9   16 1   
    12   11   13 1   
    13   12   17 1   
    14   13   18 1   
    15   13   19 1   
    16   13   20 1   
@<TRIPOS>SUBSTRUCTURE
     1 4BL         1 TEMP              0 ****  ****    0 ROOT
