@<TRIPOS>MOLECULE
4BM
   40    36     1     0     0
SMALL
bcc


@<TRIPOS>ATOM
      1 C01        -1.0720    2.5280    2.0620 c1        1 4BM      0.070000
      2 C02        -1.5780    3.0170    3.2630 c1        1 4BM     -0.119500
      3 C03        -2.8770    3.5010    3.3220 c1        1 4BM     -0.119500
      4 C04        -3.6690    3.4970    2.1890 c1        1 4BM     -0.279000
      5 C05        -3.1620    3.0070    0.9870 c1        1 4BM     -0.097000
      6 C06        -1.8640    2.5240    0.9280 c1        1 4BM      0.038000
      7 N07         0.2640    2.0730    1.9930 n3        1 4BM     -0.266000
      8 C08         0.9760    2.1080    0.7300 c2        1 4BM      0.103000
      9 C09         1.4060    0.9200    0.1470 c2        1 4BM     -0.173000
     10 C10         2.2240    0.9530   -0.9810 c1        1 4BM     -0.068000
     11 C11         2.6130    2.1760   -1.5250 c1        1 4BM     -0.170000
     12 C12         2.1850    3.3630   -0.9430 c1        1 4BM      0.099000
     13 C13         1.3660    3.3310    0.1860 c1        1 4BM      0.031000
     14 C14         1.0880   -0.4040    0.8100 c2        1 4BM      0.303000
     15 N15         1.5270   -1.6240    0.2140 n         1 4BM     -0.204000
     16 O16         0.4490   -0.4280    1.8450 o         1 4BM     -0.303000
     17 O17         0.6560   -2.6900    0.1000 os        1 4BM     -0.190000
     18 C18         1.1160   -3.5810   -0.9010 c3        1 4BM     -0.021000
     19 C19        -0.0500   -4.3440   -1.4680 c3        1 4BM      0.000000
     20 C20         0.2600   -4.7530   -2.9010 c3        1 4BM     -0.055000
     21 O21        -0.2770   -5.4840   -0.6990 oh        1 4BM     -0.332000
     22 O22        -0.8620   -5.3930   -3.4600 oh        1 4BM     -0.334000
     23 I23        -5.7090    4.0050    2.3350 i         1 4BM      0.156000
     24 F24        -1.4080    1.9740   -0.2030 f         1 4BM     -0.098000
     25 F25         0.9710    4.4810    0.7630 f         1 4BM     -0.073000
     26 F26         2.5200    4.5380   -1.4950 f         1 4BM     -0.080000
     27 H02        -1.0140    3.0200    4.0720 ha        1 4BM      0.147500
     28 H03        -3.2340    3.8450    4.1670 ha        1 4BM      0.147500
     29 H05        -3.7220    3.0040    0.1850 ha        1 4BM      0.163000
     30 HN07        0.6480    1.6790    2.7210 hn        1 4BM      0.265000
     31 H10         2.5260    0.1170   -1.3910 ha        1 4BM      0.156000
     32 H11         3.1920    2.1980   -2.3220 ha        1 4BM      0.164000
     33 HN15        2.3880   -1.7060   -0.0740 hn        1 4BM      0.208000
     34 H18         1.5500   -3.0730   -1.6140 h1        1 4BM      0.115500
     35 H18A        1.7560   -4.2090   -0.5090 h1        1 4BM      0.115500
     36 H19        -0.8550   -3.7730   -1.4560 h1        1 4BM      0.129000
     37 H20         1.0240   -5.3680   -2.9070 h1        1 4BM      0.071500
     38 H20A        0.4790   -3.9560   -3.4290 h1        1 4BM      0.071500
     39 HO21       -1.1320   -5.4940   -0.4220 ho        1 4BM      0.223000
     40 HO22       -0.7020   -5.5790   -4.3190 ho        1 4BM      0.206000
@<TRIPOS>BOND
     1    1    6 1   
     2    1    7 1   
     3    2    3 1   
     4    2   27 1   
     5    3   28 1   
     6    4    5 1   
     7    4   23 1   
     8    5   29 1   
     9    6   24 1   
    10    7    8 1   
    11    7   30 1   
    12    8    9 1   
    13    8   13 1   
    14    9   10 1   
    15    9   14 1   
    16   10   31 1   
    17   11   12 1   
    18   11   32 1   
    19   12   26 1   
    20   13   25 1   
    21   14   15 1   
    22   14   16 1   
    23   15   17 1   
    24   15   33 1   
    25   17   18 1   
    26   18   19 1   
    27   18   34 1   
    28   18   35 1   
    29   19   20 1   
    30   19   21 1   
    31   19   36 1   
    32   20   22 1   
    33   20   37 1   
    34   20   38 1   
    35   21   39 1   
    36   22   40 1   
@<TRIPOS>SUBSTRUCTURE
     1 4BM         1 TEMP              0 ****  ****    0 ROOT
