@<TRIPOS>MOLECULE
4BM
   41    42     1     0     0
SMALL
bcc


@<TRIPOS>ATOM
      1 C01         0.5560   -1.0090   -0.4300 ca        1 4BM      0.046600
      2 C02         1.9120   -0.6650   -0.5950 ca        1 4BM     -0.189000
      3 C03         2.7970   -0.7160    0.4770 ca        1 4BM     -0.077000
      4 C04         2.3610   -1.1070    1.7440 ca        1 4BM      0.027900
      5 C05         1.0240   -1.4340    1.9440 ca        1 4BM     -0.092000
      6 C06         0.1150   -1.3850    0.8730 ca        1 4BM      0.105900
      7 N07        -0.3510   -1.0750   -1.5250 nh        1 4BM     -0.629000
      8 C08        -0.0370   -0.2980   -2.6780 ca        1 4BM      0.112600
      9 C09         0.4090   -0.9510   -3.8530 ca        1 4BM     -0.182600
     10 C10         0.6790   -0.2260   -5.0220 ca        1 4BM     -0.040000
     11 C11         0.5220    1.1540   -5.0560 ca        1 4BM     -0.144000
     12 C12         0.0620    1.8340   -3.9170 ca        1 4BM      0.178900
     13 C13        -0.2280    1.1070   -2.7250 ca        1 4BM      0.078900
     14 C14         0.5080   -2.4130   -3.9580 c         1 4BM      0.603700
     15 N15         1.2040   -3.1230   -2.7860 n4        1 4BM     -0.457300
     16 O16         0.1230   -3.1320   -4.8620 o         1 4BM     -0.381100
     17 O17         2.0330   -4.0700   -3.3170 os        1 4BM     -0.208100
     18 C18         2.4640   -5.1420   -2.4420 c3        1 4BM      0.095400
     19 C19         1.2980   -6.0350   -2.0280 c3        1 4BM      0.104100
     20 C20         1.8240   -7.3370   -1.4130 c3        1 4BM      0.104400
     21 O21         0.5410   -5.2860   -1.0870 oh        1 4BM     -0.656800
     22 O22         0.6780   -7.9830   -0.8880 oh        1 4BM     -0.609800
     23 I23         3.6610   -1.1820    3.2850 i         1 4BM     -0.075900
     24 F24        -1.1850   -1.6970    1.0890 f         1 4BM     -0.120900
     25 F25        -0.6960    1.7690   -1.6460 f         1 4BM     -0.091900
     26 F26        -0.1140    3.1660   -3.9380 f         1 4BM     -0.079900
     27 H02         2.2760   -0.3000   -1.5690 ha        1 4BM      0.141000
     28 H03         3.8500   -0.4270    0.3150 ha        1 4BM      0.165000
     29 H05         0.6460   -1.7270    2.9390 ha        1 4BM      0.182000
     30 HN07       -1.3010   -0.9130   -1.2260 hn        1 4BM      0.438800
     31 H10         1.0080   -0.7590   -5.9320 ha        1 4BM      0.178000
     32 H11         0.7420    1.7230   -5.9760 ha        1 4BM      0.193000
     33 HN15        1.7630   -2.4520   -2.2280 hn        1 4BM      0.482300
     34 H18         3.1710   -5.6890   -3.1280 h1        1 4BM      0.110200
     35 H18A        3.0030   -4.7230   -1.5540 h1        1 4BM      0.110200
     36 H19         0.6440   -6.2700   -2.9160 h1        1 4BM      0.085700
     37 H20         2.5550   -7.1170   -0.5910 h1        1 4BM      0.051200
     38 H20A        2.3110   -7.9680   -2.2010 h1        1 4BM      0.051200
     39 HO21       -0.0570   -5.8970   -0.6300 ho        1 4BM      0.469000
     40 HO22        0.9710   -8.8160   -0.4990 ho        1 4BM      0.437000
     41 H152        0.4780   -3.5540   -2.1740 hn        1 4BM      0.482300
@<TRIPOS>BOND
     1    1    2 ar  
     2    1    6 ar  
     3    1    7 1   
     4    2    3 ar  
     5    2   27 1   
     6    3    4 ar  
     7    3   28 1   
     8    4    5 ar  
     9    4   23 1   
    10    5    6 ar  
    11    5   29 1   
    12    6   24 1   
    13    7    8 1   
    14    7   30 1   
    15    8    9 ar  
    16    8   13 ar  
    17    9   10 ar  
    18    9   14 1   
    19   10   11 ar  
    20   10   31 1   
    21   11   12 ar  
    22   11   32 1   
    23   12   13 ar  
    24   12   26 1   
    25   13   25 1   
    26   14   15 1   
    27   14   16 2   
    28   15   17 1   
    29   15   33 1   
    30   15   41 1   
    31   17   18 1   
    32   18   19 1   
    33   18   34 1   
    34   18   35 1   
    35   19   20 1   
    36   19   21 1   
    37   19   36 1   
    38   20   22 1   
    39   20   37 1   
    40   20   38 1   
    41   21   39 1   
    42   22   40 1   
@<TRIPOS>SUBSTRUCTURE
     1 4BM         1 TEMP              0 ****  ****    0 ROOT
