@<TRIPOS>MOLECULE
4BM
   40    41     1     0     0
SMALL
bcc


@<TRIPOS>ATOM
      1 C01         0.2750   -0.4640   -0.7400 ca        1 4BM      0.148600
      2 C02         1.1240   -0.9630    0.2690 ca        1 4BM     -0.164000
      3 C03         2.3420   -0.3560    0.5490 ca        1 4BM     -0.071000
      4 C04         2.7550    0.7750   -0.1540 ca        1 4BM      0.007900
      5 C05         1.9380    1.3040   -1.1490 ca        1 4BM     -0.096000
      6 C06         0.7060    0.7040   -1.4480 ca        1 4BM      0.070900
      7 N07        -0.9390   -1.0660   -1.0950 nh        1 4BM     -0.630000
      8 C08        -1.5000   -2.1410   -0.3920 ca        1 4BM      0.187600
      9 C09        -2.7760   -2.0330    0.2160 ca        1 4BM     -0.187600
     10 C10        -3.3890   -3.1390    0.8100 ca        1 4BM     -0.077000
     11 C11        -2.7570   -4.3730    0.8520 ca        1 4BM     -0.165000
     12 C12        -1.4830   -4.5140    0.2800 ca        1 4BM      0.134900
     13 C13        -0.8530   -3.4120   -0.3540 ca        1 4BM      0.069900
     14 C14        -3.5100   -0.7340    0.2020 c         1 4BM      0.642700
     15 N15        -3.9060   -0.2400    1.4740 n         1 4BM     -0.357400
     16 O16        -3.6670   -0.0700   -0.8370 o         1 4BM     -0.577100
     17 O17        -4.9530    0.5940    1.4730 os        1 4BM     -0.261900
     18 C18        -4.6440    1.9900    1.7070 c3        1 4BM      0.132400
     19 C19        -4.0710    2.6420    0.4520 c3        1 4BM      0.082100
     20 C20        -5.0840    2.6210   -0.6990 c3        1 4BM      0.099400
     21 O21        -3.7320    3.9710    0.8180 oh        1 4BM     -0.603800
     22 O22        -4.4250    2.7870   -1.9370 oh        1 4BM     -0.605800
     23 I23         4.5260    1.6450    0.2650 i         1 4BM     -0.127900
     24 F24        -0.0760    1.2490   -2.4130 f         1 4BM     -0.135900
     25 F25         0.3570   -3.6040   -0.9260 f         1 4BM     -0.106900
     26 F26        -0.8520   -5.7080    0.3130 f         1 4BM     -0.113900
     27 H02         0.8290   -1.8580    0.8390 ha        1 4BM      0.146000
     28 H03         2.9780   -0.7840    1.3410 ha        1 4BM      0.151000
     29 H05         2.2360    2.1990   -1.7190 ha        1 4BM      0.163000
     30 HN07       -1.6050   -0.4530   -1.5300 hn        1 4BM      0.463800
     31 H10        -4.3980   -3.0420    1.2430 ha        1 4BM      0.148000
     32 H11        -3.2400   -5.2440    1.3210 ha        1 4BM      0.165000
     33 HN15       -4.0710   -0.9680    2.1590 hn        1 4BM      0.300500
     34 H18        -5.6580    2.4050    1.9530 h1        1 4BM      0.077200
     35 H18A       -3.9480    2.1180    2.5720 h1        1 4BM      0.077200
     36 H19        -3.1370    2.0970    0.1300 h1        1 4BM      0.052700
     37 H20        -5.6540    1.6550   -0.6770 h1        1 4BM      0.061700
     38 H20A       -5.7880    3.4920   -0.6220 h1        1 4BM      0.061700
     39 HO21       -3.5080    4.4270   -0.0040 ho        1 4BM      0.420000
     40 HO22       -3.9550    1.9620   -2.1190 ho        1 4BM      0.416000
@<TRIPOS>BOND
     1    1    2 ar  
     2    1    6 ar  
     3    1    7 1   
     4    2    3 ar  
     5    2   27 1   
     6    3    4 ar  
     7    3   28 1   
     8    4    5 ar  
     9    4   23 1   
    10    5    6 ar  
    11    5   29 1   
    12    6   24 1   
    13    7    8 1   
    14    7   30 1   
    15    8    9 ar  
    16    8   13 ar  
    17    9   10 ar  
    18    9   14 1   
    19   10   11 ar  
    20   10   31 1   
    21   11   12 ar  
    22   11   32 1   
    23   12   13 ar  
    24   12   26 1   
    25   13   25 1   
    26   14   15 1   
    27   14   16 2   
    28   15   17 1   
    29   15   33 1   
    30   17   18 1   
    31   18   19 1   
    32   18   34 1   
    33   18   35 1   
    34   19   20 1   
    35   19   21 1   
    36   19   36 1   
    37   20   22 1   
    38   20   37 1   
    39   20   38 1   
    40   21   39 1   
    41   22   40 1   
@<TRIPOS>SUBSTRUCTURE
     1 4BM         1 TEMP              0 ****  ****    0 ROOT
