@<TRIPOS>MOLECULE
4BM
   42    43     1     0     0
SMALL
bcc


@<TRIPOS>ATOM
      1 C01         0.2010    0.2700    0.1000 ca        1 4BM     -0.102400
      2 C02         0.2280    1.5800    0.6100 ca        1 4BM     -0.070000
      3 C03         0.9410    1.8560    1.7740 ca        1 4BM     -0.073000
      4 C04         1.6380    0.8460    2.4450 ca        1 4BM      0.088900
      5 C05         1.6310   -0.4560    1.9430 ca        1 4BM     -0.098000
      6 C06         0.9240   -0.7530    0.7690 ca        1 4BM      0.140900
      7 N07        -0.6110   -0.0310   -1.0880 n4        1 4BM     -0.502800
      8 C08         0.1710   -0.1220   -2.3310 ca        1 4BM      0.003600
      9 C09         0.5830   -1.3680   -2.8800 ca        1 4BM     -0.170600
     10 C10         1.3150   -1.3890   -4.0700 ca        1 4BM     -0.030000
     11 C11         1.6570   -0.2140   -4.7380 ca        1 4BM     -0.114000
     12 C12         1.2630    1.0270   -4.2210 ca        1 4BM      0.213900
     13 C13         0.5080    1.0750   -3.0020 ca        1 4BM      0.128900
     14 C14         0.1590   -2.6290   -2.2560 c         1 4BM      0.595700
     15 N15         1.1500   -3.7870   -2.2270 n4        1 4BM     -0.446300
     16 O16        -0.9090   -2.8660   -1.7070 o         1 4BM     -0.415100
     17 O17         1.2030   -4.3390   -3.4770 os        1 4BM     -0.227100
     18 C18         1.8570   -5.6370   -3.6060 c3        1 4BM      0.097400
     19 C19         1.1570   -6.7180   -2.7910 c3        1 4BM      0.104100
     20 C20         1.6940   -8.1030   -3.1760 c3        1 4BM      0.108400
     21 O21         1.4200   -6.4150   -1.4260 oh        1 4BM     -0.675800
     22 O22         1.1670   -8.9750   -2.1940 oh        1 4BM     -0.611800
     23 I23         2.6530    1.2640    4.1380 i         1 4BM      0.004100
     24 F24         0.9260   -2.0180    0.2770 f         1 4BM     -0.164900
     25 F25         0.1150    2.2710   -2.5220 f         1 4BM     -0.078900
     26 F26         1.5720    2.1720   -4.8400 f         1 4BM     -0.041900
     27 H02        -0.3090    2.4010    0.1010 ha        1 4BM      0.178000
     28 H03         0.9430    2.8930    2.1630 ha        1 4BM      0.201000
     29 H05         2.1720   -1.2720    2.4580 ha        1 4BM      0.200000
     30 HN07       -1.1270   -0.9120   -0.9240 hn        1 4BM      0.487800
     31 H10         1.6150   -2.3530   -4.5260 ha        1 4BM      0.192000
     32 H11         2.2330   -0.2510   -5.6840 ha        1 4BM      0.219000
     33 HN15        2.0870   -3.4500   -1.9520 hn        1 4BM      0.491300
     34 H18         2.9390   -5.5380   -3.3320 h1        1 4BM      0.121700
     35 H18A        1.7240   -5.8050   -4.7140 h1        1 4BM      0.121700
     36 H19         0.0420   -6.6850   -2.9560 h1        1 4BM      0.086700
     37 H20         2.8160   -8.1150   -3.1440 h1        1 4BM      0.059200
     38 H20A        1.3350   -8.3860   -4.2000 h1        1 4BM      0.059200
     39 HO21        1.2780   -7.2210   -0.9010 ho        1 4BM      0.487000
     40 HO22        1.4510   -9.8720   -2.4170 ho        1 4BM      0.451000
     41 H072       -1.3050    0.7300   -1.2040 hn        1 4BM      0.487800
     42 H152        0.8170   -4.4990   -1.5270 hn        1 4BM      0.491300
@<TRIPOS>BOND
     1    1    2 ar  
     2    1    6 ar  
     3    1    7 1   
     4    2    3 ar  
     5    2   27 1   
     6    3    4 ar  
     7    3   28 1   
     8    4    5 ar  
     9    4   23 1   
    10    5    6 ar  
    11    5   29 1   
    12    6   24 1   
    13    7    8 1   
    14    7   30 1   
    15    7   41 1   
    16    8    9 ar  
    17    8   13 ar  
    18    9   10 ar  
    19    9   14 1   
    20   10   11 ar  
    21   10   31 1   
    22   11   12 ar  
    23   11   32 1   
    24   12   13 ar  
    25   12   26 1   
    26   13   25 1   
    27   14   15 1   
    28   14   16 2   
    29   15   17 1   
    30   15   33 1   
    31   15   42 1   
    32   17   18 1   
    33   18   19 1   
    34   18   34 1   
    35   18   35 1   
    36   19   20 1   
    37   19   21 1   
    38   19   36 1   
    39   20   22 1   
    40   20   37 1   
    41   20   38 1   
    42   21   39 1   
    43   22   40 1   
@<TRIPOS>SUBSTRUCTURE
     1 4BM         1 TEMP              0 ****  ****    0 ROOT
