@<TRIPOS>MOLECULE
4BM
   41    42     1     0     0
SMALL
bcc


@<TRIPOS>ATOM
      1 C01         0.7930   -0.9130   -0.3290 ca        1 4BM      0.037600
      2 C02         2.1400   -0.5550   -0.5180 ca        1 4BM     -0.151000
      3 C03         3.0700   -0.7060    0.5050 ca        1 4BM     -0.077000
      4 C04         2.6850   -1.2060    1.7500 ca        1 4BM      0.035900
      5 C05         1.3560   -1.5520    1.9750 ca        1 4BM     -0.101000
      6 C06         0.4050   -1.4100    0.9500 ca        1 4BM      0.102900
      7 N07        -0.1870   -0.8460   -1.3630 nu        1 4BM     -0.631000
      8 C08         0.1530   -0.1730   -2.5670 ca        1 4BM      0.127600
      9 C09         0.8720   -0.8470   -3.5840 ca        1 4BM     -0.202600
     10 C10         1.1930   -0.2040   -4.7890 ca        1 4BM     -0.034000
     11 C11         0.7740    1.0940   -5.0370 ca        1 4BM     -0.152000
     12 C12         0.0270    1.7840   -4.0660 ca        1 4BM      0.188900
     13 C13        -0.2770    1.1560   -2.8250 ca        1 4BM      0.063900
     14 C14         1.3480   -2.2280   -3.4350 c         1 4BM      0.591700
     15 N15         0.3270   -3.2210   -2.8760 ny        1 4BM     -0.447300
     16 O16         2.4340   -2.6920   -3.7420 o         1 4BM     -0.411100
     17 O17         0.3140   -4.3780   -3.5990 os        1 4BM     -0.210100
     18 C18         1.2230   -5.4390   -3.2060 c3        1 4BM      0.095400
     19 C19         0.8060   -6.0580   -1.8760 c3        1 4BM      0.106100
     20 C20         1.5850   -7.3560   -1.6330 c3        1 4BM      0.103400
     21 O21         1.0900   -5.0890   -0.8760 oh        1 4BM     -0.657800
     22 O22         1.2610   -7.7350   -0.3070 oh        1 4BM     -0.610800
     23 I23         4.0450   -1.4180    3.2250 i         1 4BM     -0.078900
     24 F24        -0.8850   -1.7440    1.1920 f         1 4BM     -0.127900
     25 F25        -0.9870    1.8330   -1.8960 f         1 4BM     -0.094900
     26 F26        -0.3950    3.0400   -4.2930 f         1 4BM     -0.078900
     27 H02         2.4710   -0.1340   -1.4810 ha        1 4BM      0.147000
     28 H03         4.1180   -0.4140    0.3210 ha        1 4BM      0.167000
     29 H05         1.0190   -1.9330    2.9540 ha        1 4BM      0.179000
     30 HN07       -1.0640   -0.5050   -0.9920 hn        1 4BM      0.432800
     31 H10         1.7880   -0.7410   -5.5500 ha        1 4BM      0.177000
     32 H11         1.0210    1.5960   -5.9880 ha        1 4BM      0.192000
     33 HN15        0.5250   -3.3980   -1.8670 hn        1 4BM      0.495800
     34 H18         1.0660   -6.1620   -4.0570 h1        1 4BM      0.117700
     35 H18A        2.2780   -5.0610   -3.1850 h1        1 4BM      0.117700
     36 H19        -0.3010   -6.2710   -1.8660 h1        1 4BM      0.079700
     37 H20         2.6890   -7.1760   -1.7280 h1        1 4BM      0.052200
     38 H20A        1.2610   -8.1440   -2.3620 h1        1 4BM      0.052200
     39 HO21        1.0690   -5.5340   -0.0150 ho        1 4BM      0.469000
     40 HO22        1.7410   -8.5520   -0.1180 ho        1 4BM      0.437000
     41 H152       -0.6310   -2.8320   -2.9720 hn        1 4BM      0.495800
@<TRIPOS>BOND
     1    1    2 ar  
     2    1    6 ar  
     3    1    7 1   
     4    2    3 ar  
     5    2   27 1   
     6    3    4 ar  
     7    3   28 1   
     8    4    5 ar  
     9    4   23 1   
    10    5    6 ar  
    11    5   29 1   
    12    6   24 1   
    13    7    8 1   
    14    7   30 1   
    15    8    9 ar  
    16    8   13 ar  
    17    9   10 ar  
    18    9   14 1   
    19   10   11 ar  
    20   10   31 1   
    21   11   12 ar  
    22   11   32 1   
    23   12   13 ar  
    24   12   26 1   
    25   13   25 1   
    26   14   15 1   
    27   14   16 2   
    28   15   17 1   
    29   15   33 1   
    30   15   41 1   
    31   17   18 1   
    32   18   19 1   
    33   18   34 1   
    34   18   35 1   
    35   19   20 1   
    36   19   21 1   
    37   19   36 1   
    38   20   22 1   
    39   20   37 1   
    40   20   38 1   
    41   21   39 1   
    42   22   40 1   
@<TRIPOS>SUBSTRUCTURE
     1 4BM         1 TEMP              0 ****  ****    0 ROOT
