@<TRIPOS>MOLECULE
4BO
   41    40     1     0     0
SMALL
bcc


@<TRIPOS>ATOM
      1 C12         0.1330   -1.0500    0.9650 c2        1 4BO     -0.002000
      2 C13         1.5480   -0.9870    0.8110 c2        1 4BO     -0.226000
      3 C24         6.8640    0.9140    2.7990 c2        1 4BO     -0.204000
      4 C11        -0.4950   -0.4180    2.0290 c2        1 4BO     -0.075000
      5 C14         2.3170   -0.3060    1.7150 c2        1 4BO      0.060000
      6 C15         1.7030    0.3910    2.8740 c3        1 4BO     -0.196000
      7 O1         -7.6030   -1.4070   -2.5760 o         1 4BO     -0.228000
      8 C4         -5.2040   -1.2460    2.0980 c3        1 4BO     -0.277000
      9 C7         -2.8440   -0.6740    1.2720 c2        1 4BO      0.264000
     10 C5         -4.2280   -0.3430    1.5860 c1        1 4BO     -0.023000
     11 C20         6.2220   -0.4260    0.8140 c3        1 4BO     -0.149000
     12 C21         7.6680   -0.5060    0.5130 c2        1 4BO     -0.081000
     13 C22         8.5960    0.1000    1.2890 c2        1 4BO     -0.211000
     14 C23         8.2450    0.8960    2.4250 c1        1 4BO     -0.056000
     15 C19         5.8940    0.3250    2.0500 c2        1 4BO     -0.041000
     16 C18         4.4590    0.4320    2.4460 c3        1 4BO     -0.010000
     17 O17         3.6740   -0.3040    1.4950 os        1 4BO     -0.212000
     18 C16         0.2580    0.3130    2.9910 c1        1 4BO     -0.135000
     19 N9         -1.8860   -0.4900    2.2610 n         1 4BO     -0.283000
     20 O8         -2.5540   -1.0400    0.1020 o         1 4BO     -0.413000
     21 N6         -5.0150   -0.6610   -1.3910 n3        1 4BO     -0.429000
     22 O3         -7.4340   -2.0580   -0.2930 o         1 4BO     -0.228000
     23 H12        -0.4350   -1.6080    0.1980 ha        1 4BO      0.177000
     24 H13         2.0080   -1.4990   -0.0480 ha        1 4BO      0.154000
     25 H24         6.6110    1.4580    3.7240 ha        1 4BO      0.144000
     26 H15         2.1280   -0.0180    3.8400 hc        1 4BO      0.168500
     27 H4         -4.8250   -2.1810    2.5820 hc        1 4BO      0.143333
     28 H4A        -5.8960   -0.7090    2.8010 hc        1 4BO      0.143333
     29 H5         -5.8360   -1.5400    1.1970 hc        1 4BO      0.143333
     30 H20         5.6820    0.0510   -0.0560 hc        1 4BO      0.148000
     31 H21         5.8020   -1.4710    0.9050 hc        1 4BO      0.148000
     32 H22         7.9340   -1.0810   -0.3890 ha        1 4BO      0.132000
     33 H23         9.6710    0.0210    1.0520 ha        1 4BO      0.149000
     34 H18         4.1360    1.5090    2.4420 h1        1 4BO      0.104000
     35 H18A        4.3060   -0.0020    3.4720 h1        1 4BO      0.104000
     36 H16         1.9670    1.4910    2.8480 hc        1 4BO      0.168500
     37 HN9        -2.1680   -0.0130    3.0940 hn        1 4BO      0.243000
     38 HN6        -4.8000    0.0460   -0.7160 hn        1 4BO      0.145000
     39 HN6A       -5.0630   -0.2380   -2.2950 hn        1 4BO      0.145000
     40 H63        -4.2690   -1.3300   -1.3870 hn        1 4BO      0.145000
     41 C2         -7.4910   -1.7210   -1.4350 c1        1 4BO      0.450000
@<TRIPOS>BOND
     1    1    2 1   
     2    1    4 1   
     3    1   23 1   
     4    2    5 1   
     5    2   24 1   
     6    3   14 1   
     7    3   15 1   
     8    3   25 1   
     9    4   18 1   
    10    4   19 1   
    11    5    6 1   
    12    5   17 1   
    13    6   18 1   
    14    6   26 1   
    15    6   36 1   
    16    7   41 1   
    17    8   10 1   
    18    8   27 1   
    19    8   28 1   
    20    8   29 1   
    21    9   10 1   
    22    9   19 1   
    23    9   20 1   
    24   11   12 1   
    25   11   15 1   
    26   11   30 1   
    27   11   31 1   
    28   12   13 1   
    29   12   32 1   
    30   13   14 1   
    31   13   33 1   
    32   15   16 1   
    33   16   17 1   
    34   16   34 1   
    35   16   35 1   
    36   19   37 1   
    37   21   38 1   
    38   21   39 1   
    39   21   40 1   
    40   22   41 1   
@<TRIPOS>SUBSTRUCTURE
     1 4BO         1 TEMP              0 ****  ****    0 ROOT
