@<TRIPOS>MOLECULE
4BO
   42    41     1     0     0
SMALL
bcc


@<TRIPOS>ATOM
      1 C12        -0.4900    0.4660    2.8400 c2        1 4BO      0.093000
      2 C13         0.6750    0.1760    2.2020 c2        1 4BO     -0.255000
      3 C24         5.3130    0.6360    0.3070 c2        1 4BO     -0.101000
      4 C11        -0.5020    1.1270    4.1620 c2        1 4BO     -0.144000
      5 C14         1.9440    0.4980    2.7770 c2        1 4BO      0.270000
      6 C15         2.0250    1.1800    4.0990 c3        1 4BO     -0.283000
      7 O1         -7.2880   -1.6830   -0.5000 o         1 4BO     -0.217000
      8 C4         -4.1000   -2.5930    0.2180 c3        1 4BO     -0.217000
      9 C7         -2.2350   -1.2170   -0.5890 c2        1 4BO      0.172000
     10 C5         -3.7530   -1.2550   -0.4410 c3        1 4BO     -0.084000
     11 C20         6.2440   -1.0460    1.8750 c3        1 4BO     -0.128000
     12 C21         7.0940   -1.4840    0.7390 c2        1 4BO     -0.078000
     13 C22         7.1380   -0.8060   -0.4350 c2        1 4BO     -0.195000
     14 C23         6.4480    0.4300   -0.5320 c1        1 4BO      0.009000
     15 C19         5.2880    0.0450    1.5330 c2        1 4BO     -0.178000
     16 C18         4.3470    0.4610    2.5970 c3        1 4BO      0.018000
     17 O17         3.0020    0.1580    2.0730 os        1 4BO     -0.115000
     18 C16         0.7770    1.4730    4.7740 c1        1 4BO      0.019000
     19 N9         -1.6390    1.3790    4.7350 n2        1 4BO      0.003000
     20 O8         -1.5000   -0.7730    0.2990 o         1 4BO     -0.357000
     21 N6         -4.4920   -1.0340   -1.6620 n3        1 4BO     -0.353000
     22 O3         -7.2810   -0.1330   -2.3070 o         1 4BO     -0.217000
     23 H12        -1.4580    0.2010    2.3570 ha        1 4BO      0.219000
     24 H13         0.6540   -0.3230    1.2100 ha        1 4BO      0.219000
     25 H24         4.5420    1.3500   -0.0250 ha        1 4BO      0.159000
     26 H15         2.6560    0.5650    4.8190 hc        1 4BO      0.213000
     27 H4         -3.7850   -3.4510   -0.4220 hc        1 4BO      0.097333
     28 H4A        -3.5790   -2.6630    1.2020 hc        1 4BO      0.097333
     29 H5         -5.2050   -2.6590    0.3850 hc        1 4BO      0.097333
     30 H20         5.6590   -1.9370    2.2450 hc        1 4BO      0.128500
     31 H21         6.9130   -0.7180    2.7220 hc        1 4BO      0.128500
     32 H22         7.7420   -2.3540    0.9360 ha        1 4BO      0.156000
     33 H23         7.7790   -1.1220   -1.2740 ha        1 4BO      0.180000
     34 H18         4.3910    1.5650    2.7930 h1        1 4BO      0.120000
     35 H18A        4.4730   -0.1230    3.5450 h1        1 4BO      0.120000
     36 H16         2.5790    2.1700    3.9960 hc        1 4BO      0.213000
     37 HN9        -1.5900    1.8300    5.6320 hn        1 4BO      0.206000
     38 HN6        -4.3760   -1.7850   -2.3110 hn        1 4BO      0.164500
     39 HN6A       -4.2470   -0.1650   -2.0910 hn        1 4BO      0.164500
     40 H92        -1.8120   -1.6250   -1.5350 h4        1 4BO      0.100000
     41 H63        -4.0500   -0.4260    0.2730 h1        1 4BO      0.123000
     42 C2         -7.2770   -0.9090   -1.4050 c1        1 4BO      0.432000
@<TRIPOS>BOND
     1    1    2 1   
     2    1    4 1   
     3    1   23 1   
     4    2    5 1   
     5    2   24 1   
     6    3   14 1   
     7    3   15 1   
     8    3   25 1   
     9    4   18 1   
    10    4   19 1   
    11    5    6 1   
    12    5   17 1   
    13    6   18 1   
    14    6   26 1   
    15    6   36 1   
    16    7   42 1   
    17    8   10 1   
    18    8   27 1   
    19    8   28 1   
    20    8   29 1   
    21    9   10 1   
    22    9   20 1   
    23    9   40 1   
    24   10   21 1   
    25   10   41 1   
    26   11   12 1   
    27   11   15 1   
    28   11   30 1   
    29   11   31 1   
    30   12   13 1   
    31   12   32 1   
    32   13   14 1   
    33   13   33 1   
    34   15   16 1   
    35   16   17 1   
    36   16   34 1   
    37   16   35 1   
    38   19   37 1   
    39   21   38 1   
    40   21   39 1   
    41   22   42 1   
@<TRIPOS>SUBSTRUCTURE
     1 4BO         1 TEMP              0 ****  ****    0 ROOT
