@<TRIPOS>MOLECULE
4BO
   40    33     1     0     0
SMALL
bcc


@<TRIPOS>ATOM
      1 C12        -0.8210   -0.4010   -1.2800 c1        1 4BO     -0.192000
      2 C13         0.5810   -0.3840   -1.2500 c1        1 4BO     -0.106000
      3 C24         5.7030   -1.0630   -0.8510 c1        1 4BO     -0.126500
      4 C11        -1.5420   -0.1600   -0.1190 c1        1 4BO      0.103000
      5 C14         1.2530   -0.1250   -0.0500 c1        1 4BO     -0.014000
      6 C15         0.5300    0.1170    1.1100 c1        1 4BO     -0.125000
      7 O1         -7.4050    0.4510   -2.3480 o         1 4BO     -0.561000
      8 C2         -7.2030    1.3230   -1.4770 c1        1 4BO      0.331000
      9 C4         -5.8060    1.7290   -1.1380 c3        1 4BO     -0.274000
     10 C7         -3.7860    0.9660    0.0710 c1        1 4BO      0.312000
     11 C5         -5.3080    0.8980    0.0160 c2        1 4BO     -0.018000
     12 C20         5.3720   -0.8990    1.5450 c1        1 4BO     -0.132000
     13 C21         6.7400   -0.7300    1.7220 c1        1 4BO     -0.126500
     14 C22         7.5950   -0.7270    0.6130 c1        1 4BO     -0.126500
     15 C23         7.0710   -0.8940   -0.6740 c1        1 4BO     -0.126500
     16 C19         4.8490   -1.0670    0.2580 c1        1 4BO     -0.075000
     17 C18         3.3610   -1.2960    0.0670 c3        1 4BO      0.016000
     18 O17         2.6890   -0.0270   -0.0360 os        1 4BO     -0.228000
     19 C16        -0.8720    0.1000    1.0800 c2        1 4BO     -0.159000
     20 N9         -3.0020   -0.2310   -0.1380 n2        1 4BO     -0.332000
     21 O8         -3.2320    2.0280    0.2640 o         1 4BO     -0.366000
     22 N6         -5.8450    1.3970    1.2260 n3        1 4BO     -0.338000
     23 O3         -8.1690    1.8660   -0.9010 os        1 4BO     -0.585000
     24 H12        -1.2800   -0.5800   -2.1010 ha        1 4BO      0.134000
     25 H13         1.0880   -0.5540   -2.0660 ha        1 4BO      0.137000
     26 H24         5.3290   -1.1320   -1.7600 ha        1 4BO      0.133250
     27 H15         0.9960    0.2970    1.9440 ha        1 4BO      0.134000
     28 H4         -5.2340    1.5900   -1.9070 hc        1 4BO      0.078000
     29 H4A        -5.7930    2.6640   -0.8920 hc        1 4BO      0.078000
     30 H5         -5.5900   -0.0360   -0.1080 h4        1 4BO      0.109000
     31 H20         4.7740   -0.8530    2.3110 ha        1 4BO      0.129000
     32 H21         7.1050   -0.5540    2.6310 ha        1 4BO      0.133250
     33 H22         8.5340   -0.6100    0.7350 ha        1 4BO      0.133250
     34 H23         7.6740   -0.9790   -1.4360 ha        1 4BO      0.133250
     35 H18         3.2120   -1.8170   -0.7610 h1        1 4BO      0.083000
     36 H18A        3.0130   -1.7840    0.8190 h1        1 4BO      0.083000
     37 H16        -1.3700    0.2660    1.8820 ha        1 4BO      0.178000
     38 HN9        -3.4220   -1.0260   -0.3510 hn        1 4BO      0.238000
     39 HN6        -5.2120    1.3430    1.8860 hn        1 4BO      0.167000
     40 HN6A       -6.5800    0.8960    1.4640 hn        1 4BO      0.167000
@<TRIPOS>BOND
     1    1    4 1   
     2    1   24 1   
     3    2    5 1   
     4    2   25 1   
     5    3   15 1   
     6    3   26 1   
     7    4   19 1   
     8    5   18 1   
     9    6   19 1   
    10    6   27 1   
    11    7    8 1   
    12    8    9 1   
    13    9   11 1   
    14    9   28 1   
    15    9   29 1   
    16   10   20 1   
    17   10   21 1   
    18   11   22 1   
    19   11   30 1   
    20   12   16 1   
    21   12   31 1   
    22   13   14 1   
    23   13   32 1   
    24   14   33 1   
    25   15   34 1   
    26   16   17 1   
    27   17   18 1   
    28   17   35 1   
    29   17   36 1   
    30   19   37 1   
    31   20   38 1   
    32   22   39 1   
    33   22   40 1   
@<TRIPOS>SUBSTRUCTURE
     1 4BO         1 TEMP              0 ****  ****    0 ROOT
