@<TRIPOS>MOLECULE
4BO
   41    41     1     0     0
SMALL
bcc


@<TRIPOS>ATOM
      1 C12         0.2970   -0.8750    0.1880 ca        1 4BO     -0.135500
      2 C13         1.6820   -0.8350    0.2640 ca        1 4BO     -0.151500
      3 C24         6.6920    0.8080    3.1280 c2        1 4BO     -0.212000
      4 C11        -0.4950   -0.2850    1.1990 ca        1 4BO      0.047000
      5 C14         2.3090   -0.2020    1.3510 ca        1 4BO      0.052000
      6 C15         1.5440    0.3890    2.3600 ca        1 4BO     -0.151500
      7 O1         -7.8430   -0.7010   -1.5850 o         1 4BO     -0.218500
      8 C4         -4.6150   -1.5450    1.8190 c3        1 4BO     -0.220000
      9 C7         -2.7270   -0.9640    0.2930 c2        1 4BO      0.263000
     10 C5         -4.2550   -0.8040    0.5320 c3        1 4BO     -0.042000
     11 C20         6.3070   -0.4290    1.0150 c3        1 4BO     -0.151000
     12 C21         7.7780   -0.5090    0.8980 c2        1 4BO     -0.083000
     13 C22         8.6010    0.0310    1.8270 c2        1 4BO     -0.210000
     14 C23         8.1120    0.7160    2.9850 c1        1 4BO     -0.064000
     15 C19         5.8240    0.2830    2.2230 c2        1 4BO     -0.029000
     16 C18         4.3500    0.4080    2.4190 c3        1 4BO     -0.010000
     17 O17         3.6930   -0.2260    1.3140 os        1 4BO     -0.222000
     18 C16         0.1550    0.3460    2.2840 ca        1 4BO     -0.135500
     19 N9         -1.9010   -0.2820    1.1680 ns        1 4BO     -0.316000
     20 O8         -2.3060   -1.6590   -0.6500 o         1 4BO     -0.363000
     21 N6         -5.0570   -1.2350   -0.5930 n8        1 4BO     -0.334000
     22 O3         -7.8200   -1.1020    0.7610 o         1 4BO     -0.218500
     23 H12        -0.1740   -1.3790   -0.6730 ha        1 4BO      0.155000
     24 H13         2.2960   -1.2970   -0.5220 ha        1 4BO      0.145000
     25 H24         6.3200    1.3360    4.0220 ha        1 4BO      0.142000
     26 H15         2.0160    0.8890    3.2170 ha        1 4BO      0.145000
     27 H4         -4.2870   -2.6100    1.7700 hc        1 4BO      0.093667
     28 H4A        -5.7230   -1.5180    1.9790 hc        1 4BO      0.093667
     29 H5         -4.1210   -1.0550    2.6910 hc        1 4BO      0.093667
     30 H20         5.8840    0.0840    0.1020 hc        1 4BO      0.149000
     31 H21         5.8720   -1.4720    1.0140 hc        1 4BO      0.149000
     32 H22         8.1560   -1.0350    0.0070 ha        1 4BO      0.129000
     33 H23         9.6960   -0.0400    1.7220 ha        1 4BO      0.146000
     34 H18         4.0560    1.4920    2.4570 h1        1 4BO      0.103000
     35 H18A        4.0440   -0.0980    3.3760 h1        1 4BO      0.103000
     36 H16        -0.4280    0.8180    3.0900 ha        1 4BO      0.155000
     37 HN9        -2.3420    0.2110    1.9130 hn        1 4BO      0.230000
     38 HN6        -4.4700    0.2980    0.6740 h1        1 4BO      0.112000
     39 HN6A       -4.9560   -2.2230   -0.7370 hn        1 4BO      0.163000
     40 H63        -4.7650   -0.7620   -1.4280 hn        1 4BO      0.163000
     41 C2         -7.8130   -0.9040   -0.4130 c1        1 4BO      0.434000
@<TRIPOS>BOND
     1    1    2 1   
     2    1    4 1   
     3    1   23 1   
     4    2    5 1   
     5    2   24 1   
     6    3   14 1   
     7    3   15 1   
     8    3   25 1   
     9    4   18 1   
    10    4   19 1   
    11    5    6 1   
    12    5   17 1   
    13    6   18 1   
    14    6   26 1   
    15    7   41 1   
    16    8   10 1   
    17    8   27 1   
    18    8   28 1   
    19    8   29 1   
    20    9   10 1   
    21    9   19 1   
    22    9   20 1   
    23   10   21 1   
    24   10   38 1   
    25   11   12 1   
    26   11   15 1   
    27   11   30 1   
    28   11   31 1   
    29   12   13 1   
    30   12   32 1   
    31   13   14 1   
    32   13   33 1   
    33   15   16 1   
    34   16   17 1   
    35   16   34 1   
    36   16   35 1   
    37   18   36 1   
    38   19   37 1   
    39   21   39 1   
    40   21   40 1   
    41   22   41 1   
@<TRIPOS>SUBSTRUCTURE
     1 4BO         1 TEMP              0 ****  ****    0 ROOT
