@<TRIPOS>MOLECULE
4BO
   40    41     1     0     0
SMALL
bcc


@<TRIPOS>ATOM
      1 C12         0.2610    1.2260   -0.5180 ca        1 4BO     -0.158000
      2 C13        -1.1260    1.2510   -0.5150 ca        1 4BO     -0.140500
      3 C24        -5.9110    0.6290   -0.4590 ca        1 4BO     -0.115500
      4 C11         0.9620   -0.0010   -0.6060 ca        1 4BO      0.077600
      5 C14        -1.8500    0.0530   -0.6150 ca        1 4BO      0.060100
      6 C15        -1.1810   -1.1700   -0.7080 ca        1 4BO     -0.140500
      7 O1          7.4590   -0.1490    0.7330 o         1 4BO     -0.838300
      8 C4          5.0620   -0.2140    0.9750 c3        1 4BO     -0.245400
      9 C7          3.2790    0.9210   -0.3160 c         1 4BO      0.667100
     10 C5          4.7580    0.4720   -0.3600 c3        1 4BO      0.129500
     11 C20        -6.1460   -1.3200    0.9550 ca        1 4BO     -0.115500
     12 C21        -7.4700   -0.9730    1.2120 ca        1 4BO     -0.134500
     13 C22        -8.0180    0.1750    0.6380 ca        1 4BO     -0.134000
     14 C23        -7.2360    0.9750   -0.1950 ca        1 4BO     -0.134500
     15 C19        -5.3600   -0.5210    0.1150 ca        1 4BO     -0.084300
     16 C18        -3.9540   -0.9420   -0.1630 c3        1 4BO      0.173700
     17 O17        -3.2320    0.1840   -0.6770 os        1 4BO     -0.337900
     18 C16         0.2080   -1.1970   -0.6980 ca        1 4BO     -0.158000
     19 N9          2.3570   -0.0810   -0.6350 n         1 4BO     -0.477100
     20 O8          2.9230    2.0690   -0.0020 o         1 4BO     -0.608100
     21 N6          5.6280    1.5750   -0.7220 n3        1 4BO     -0.905800
     22 O3          6.4960   -2.1390    1.0740 o         1 4BO     -0.838300
     23 H12         0.8160    2.1770   -0.4400 ha        1 4BO      0.155500
     24 H13        -1.6660    2.2060   -0.4430 ha        1 4BO      0.134000
     25 H24        -5.2880    1.2610   -1.1120 ha        1 4BO      0.142000
     26 H15        -1.7400   -2.1120   -0.7870 ha        1 4BO      0.134000
     27 H4          4.2890   -0.9920    1.1920 hc        1 4BO      0.038200
     28 H4A         5.0580    0.5330    1.8060 hc        1 4BO      0.038200
     29 H5          4.8870   -0.2970   -1.1820 h1        1 4BO      0.069700
     30 H20        -5.7140   -2.2220    1.4130 ha        1 4BO      0.142000
     31 H21        -8.0830   -1.6040    1.8710 ha        1 4BO      0.127000
     32 H22        -9.0620    0.4480    0.8440 ha        1 4BO      0.125000
     33 H23        -7.6640    1.8820   -0.6460 ha        1 4BO      0.127000
     34 H18        -3.4620   -1.3230    0.7720 h1        1 4BO      0.046700
     35 H18A       -3.9490   -1.7530   -0.9420 h1        1 4BO      0.046700
     36 H16         0.7190   -2.1710   -0.7650 ha        1 4BO      0.155500
     37 HN9         2.7310   -0.9990   -0.7510 hn        1 4BO      0.322500
     38 HN6         5.4750    2.3440   -0.0960 hn        1 4BO      0.371300
     39 HN6A        6.5830    1.2620   -0.6140 hn        1 4BO      0.371300
     40 C2          6.4490   -0.8880    0.9230 c         1 4BO      0.911600
@<TRIPOS>BOND
     1    1    2 ar  
     2    1    4 ar  
     3    1   23 1   
     4    2    5 ar  
     5    2   24 1   
     6    3   14 ar  
     7    3   15 ar  
     8    3   25 1   
     9    4   18 ar  
    10    4   19 1   
    11    5    6 ar  
    12    5   17 1   
    13    6   18 ar  
    14    6   26 1   
    15    7   40 1   
    16    8   10 1   
    17    8   27 1   
    18    8   28 1   
    19    8   40 1   
    20    9   10 1   
    21    9   19 1   
    22    9   20 2   
    23   10   21 1   
    24   10   29 1   
    25   11   12 ar  
    26   11   15 ar  
    27   11   30 1   
    28   12   13 ar  
    29   12   31 1   
    30   13   14 ar  
    31   13   32 1   
    32   14   33 1   
    33   15   16 1   
    34   16   17 1   
    35   16   34 1   
    36   16   35 1   
    37   18   36 1   
    38   19   37 1   
    39   21   38 1   
    40   21   39 1   
    41   22   40 1   
@<TRIPOS>SUBSTRUCTURE
     1 4BO         1 TEMP              0 ****  ****    0 ROOT
