@<TRIPOS>MOLECULE
4BP
   28    35     1     0     0
SMALL
bcc


@<TRIPOS>ATOM
      1 C12         0.0000    0.0000    0.0000 c3        1 4BP     -0.144000
      2 C11         1.5070    0.0000    0.0000 c3        1 4BP      0.335000
      3 C10         2.1960    0.0000    1.1990 c2        1 4BP      0.120000
      4 C09         3.5770    0.0000    1.2050 c2        1 4BP     -0.165000
      5 C13         2.1960   -0.0070   -1.2000 c2        1 4BP     -0.090000
      6 C14         3.5760   -0.0080   -1.2060 c2        1 4BP     -0.087000
      7 C08         4.2750   -0.0010   -0.0010 c2        1 4BP      0.005000
      8 C05         5.7600   -0.0020   -0.0010 c3        1 4BP      0.325000
      9 C04         6.4590   -0.0060    1.2030 c3        1 4BP     -0.083000
     10 C03         7.8390   -0.0070    1.1970 c2        1 4BP      0.146000
     11 C06         6.4580   -0.0020   -1.2070 c2        1 4BP     -0.083000
     12 C07         7.8390   -0.0030   -1.2020 c2        1 4BP     -0.344000
     13 C02         8.5280   -0.0020   -0.0030 DU        1 4BP      0.228000
     14 C01        10.0350   -0.0020   -0.0030 c3        1 4BP     -0.079000
     15 H1          1.0670    0.0960    0.1620 h1        1 4BP      0.075000
     16 H2         -0.3610    0.5100   -0.8850 h1        1 4BP      0.075000
     17 H4          1.2740   -0.3700    0.7670 DU        1 4BP      0.296000
     18 H5          2.5100    0.1620    1.1050 ha        1 4BP     -0.182000
     19 H6          2.0210   -0.0050   -0.1310 ha        1 4BP     -0.225000
     20 H7          3.7490   -0.0050   -0.1370 ha        1 4BP      0.129000
     21 H8          5.5690   -0.0070    0.5850 DU        1 4BP      0.317000
     22 H9          7.0340   -0.0080    0.4730 DU        1 4BP      0.002000
     23 H10         6.2860   -0.0050   -0.1380 ha        1 4BP     -0.372000
     24 H11         8.0140   -0.0050   -0.1330 ha        1 4BP     -0.301000
     25 H12         9.0750   -0.0020   -0.5030 DU        1 4BP      0.222000
     26 H13         9.3740   -0.0020   -0.8610 DU        1 4BP      0.222000
     27 Br1        10.6910   -1.8560   -0.0100 br        1 4BP     -0.184000
     28 Br2        -0.6550    1.8530   -0.0000 br        1 4BP     -0.157000
@<TRIPOS>BOND
     1    1    2 1   
     2    1   15 1   
     3    1   16 1   
     4    1   28 1   
     5    2    3 1   
     6    2    5 1   
     7    2   17 1   
     8    3    4 1   
     9    3   17 1   
    10    4    7 1   
    11    4   18 1   
    12    5    6 1   
    13    5   19 1   
    14    6    7 1   
    15    6   20 1   
    16    7    8 1   
    17    8    9 1   
    18    8   11 1   
    19    8   21 1   
    20    9   10 1   
    21    9   21 1   
    22    9   22 1   
    23   10   13 1   
    24   10   22 1   
    25   11   12 1   
    26   11   23 1   
    27   12   13 1   
    28   12   24 1   
    29   13   14 1   
    30   13   25 1   
    31   13   26 1   
    32   14   25 1   
    33   14   26 1   
    34   14   27 1   
    35   25   26 1   
@<TRIPOS>SUBSTRUCTURE
     1 4BP         1 TEMP              0 ****  ****    0 ROOT
