@<TRIPOS>MOLECULE
4BP
   28    25     1     0     0
SMALL
bcc


@<TRIPOS>ATOM
      1 C12        -5.0380   -0.0150    0.0360 c3        1 4BP     -0.175000
      2 C11        -3.5260    0.0100    0.0090 c2        1 4BP     -0.082000
      3 C10        -2.8110    0.0130    1.1970 c2        1 4BP     -0.112000
      4 C09        -1.4260    0.0110    1.1720 c1        1 4BP     -0.117000
      5 C13        -2.8540    0.0040   -1.2040 c1        1 4BP     -0.113000
      6 C14        -1.4680    0.0020   -1.2280 c1        1 4BP     -0.118000
      7 C08        -0.7540    0.0060   -0.0400 c1        1 4BP     -0.031000
      8 C05         0.7580   -0.0200   -0.0670 c2        1 4BP     -0.031000
      9 C04         1.4710    1.1680   -0.0450 c2        1 4BP     -0.117000
     10 C03         2.8570    1.1450   -0.0570 c1        1 4BP     -0.112000
     11 C06         1.4300   -1.2310   -0.1000 c1        1 4BP     -0.118000
     12 C07         2.8160   -1.2550   -0.1120 c1        1 4BP     -0.113000
     13 C02         3.5290   -0.0660   -0.0900 c1        1 4BP     -0.082000
     14 C01         5.0410   -0.0940   -0.0340 c3        1 4BP     -0.175000
     15 H1         -5.3420   -0.4680    0.8470 h1        1 4BP      0.119000
     16 H2         -5.3700   -0.4940   -0.7490 h1        1 4BP      0.119000
     17 H4         -3.2840    0.0160    2.0500 ha        1 4BP      0.138000
     18 H5         -0.9230    0.0130    2.0090 ha        1 4BP      0.139000
     19 H6         -3.3570    0.0020   -2.0400 ha        1 4BP      0.137000
     20 H7         -0.9950   -0.0010   -2.0820 ha        1 4BP      0.138000
     21 H8          0.9980    2.0220   -0.0220 ha        1 4BP      0.139000
     22 H9          3.3590    1.9820   -0.0420 ha        1 4BP      0.138000
     23 H10         0.9280   -2.0680   -0.1160 ha        1 4BP      0.138000
     24 H11         3.2890   -2.1080   -0.1360 ha        1 4BP      0.137000
     25 H12         5.3720   -0.8720   -0.5250 h1        1 4BP      0.119000
     26 H13         5.3970    0.7230   -0.4380 h1        1 4BP      0.119000
     27 BR1         5.6090   -0.2010    1.7890 br        1 4BP     -0.043000
     28 BR2        -5.7050    1.7770    0.0180 br        1 4BP     -0.043000
@<TRIPOS>BOND
     1    1    2 1   
     2    1   15 1   
     3    1   16 1   
     4    1   28 1   
     5    2    3 1   
     6    2    5 1   
     7    3    4 1   
     8    3   17 1   
     9    4   18 1   
    10    5   19 1   
    11    6    7 1   
    12    6   20 1   
    13    7    8 1   
    14    8    9 1   
    15    8   11 1   
    16    9   10 1   
    17    9   21 1   
    18   10   22 1   
    19   11   23 1   
    20   12   13 1   
    21   12   24 1   
    22   13   14 1   
    23   14   25 1   
    24   14   26 1   
    25   14   27 1   
@<TRIPOS>SUBSTRUCTURE
     1 4BP         1 TEMP              0 ****  ****    0 ROOT
