@<TRIPOS>MOLECULE
4BP
   28    29     1     0     0
SMALL
bcc


@<TRIPOS>ATOM
      1 C12         4.8700   -0.0130    1.2190 c3        1 4BP      0.038300
      2 C11         3.4380   -0.0110    0.8500 ca        1 4BP     -0.089300
      3 C10         2.8520   -1.1490    0.2820 ca        1 4BP     -0.112500
      4 C09         1.5000   -1.1540   -0.0490 ca        1 4BP     -0.117500
      5 C13         2.6500    1.1230    1.0770 ca        1 4BP     -0.112500
      6 C14         1.2990    1.1210    0.7430 ca        1 4BP     -0.117500
      7 C08         0.7090   -0.0180    0.1770 cp        1 4BP     -0.031000
      8 C05        -0.7090   -0.0220   -0.1730 cp        1 4BP     -0.031000
      9 C04        -1.5000   -1.1540    0.0690 ca        1 4BP     -0.117500
     10 C03        -2.8520   -1.1560   -0.2630 ca        1 4BP     -0.112500
     11 C06        -1.3000    1.1080   -0.7570 ca        1 4BP     -0.117500
     12 C07        -2.6510    1.1050   -1.0910 ca        1 4BP     -0.112500
     13 C02        -3.4390   -0.0270   -0.8470 ca        1 4BP     -0.089300
     14 C01        -4.8700   -0.0350   -1.2160 c3        1 4BP      0.038300
     15 H1          5.0660    0.6700    2.0790 h1        1 4BP      0.079700
     16 H2          5.2190   -1.0410    1.4770 h1        1 4BP      0.079700
     17 H4          3.4640   -2.0450    0.0940 ha        1 4BP      0.137500
     18 H5          1.0510   -2.0520   -0.5000 ha        1 4BP      0.138500
     19 H6          3.1020    2.0230    1.5220 ha        1 4BP      0.137500
     20 H7          0.6870    2.0160    0.9310 ha        1 4BP      0.138500
     21 H8         -1.0500   -2.0450    0.5340 ha        1 4BP      0.138500
     22 H9         -3.4630   -2.0480   -0.0610 ha        1 4BP      0.137500
     23 H10        -0.6890    2.0010   -0.9590 ha        1 4BP      0.138500
     24 H11        -3.1030    1.9980   -1.5490 ha        1 4BP      0.137500
     25 H12        -5.0670    0.6350   -2.0860 h1        1 4BP      0.079700
     26 H13        -5.2190   -1.0670   -1.4580 h1        1 4BP      0.079700
     27 BR1        -6.0140    0.5930    0.2110 br        1 4BP     -0.170400
     28 BR2         6.0130    0.5940   -0.2170 br        1 4BP     -0.170400
@<TRIPOS>BOND
     1    1    2 1   
     2    1   15 1   
     3    1   16 1   
     4    1   28 1   
     5    2    3 ar  
     6    2    5 ar  
     7    3    4 ar  
     8    3   17 1   
     9    4    7 ar  
    10    4   18 1   
    11    5    6 ar  
    12    5   19 1   
    13    6    7 ar  
    14    6   20 1   
    15    7    8 1   
    16    8    9 ar  
    17    8   11 ar  
    18    9   10 ar  
    19    9   21 1   
    20   10   13 ar  
    21   10   22 1   
    22   11   12 ar  
    23   11   23 1   
    24   12   13 ar  
    25   12   24 1   
    26   13   14 1   
    27   14   25 1   
    28   14   26 1   
    29   14   27 1   
@<TRIPOS>SUBSTRUCTURE
     1 4BP         1 TEMP              0 ****  ****    0 ROOT
