@<TRIPOS>MOLECULE
4BQ
   43    44     1     0     0
SMALL
bcc


@<TRIPOS>ATOM
      1 C21        -6.2010   -1.0410    0.7240 ca        1 4BQ     -0.117000
      2 C22        -7.5370   -1.3700    0.9510 ca        1 4BQ     -0.134000
      3 C23        -8.5540   -0.6440    0.3310 ca        1 4BQ     -0.135000
      4 C24        -8.2320    0.4150   -0.5180 ca        1 4BQ     -0.134000
      5 C25        -6.8990    0.7490   -0.7460 ca        1 4BQ     -0.117000
      6 C20        -5.8750    0.0190   -0.1270 ca        1 4BQ     -0.082300
      7 C19        -4.4610    0.3980   -0.4140 c3        1 4BQ      0.173700
      8 O18        -3.6030   -0.2700    0.5240 os        1 4BQ     -0.344900
      9 C15        -2.2530   -0.0630    0.2500 ca        1 4BQ      0.036100
     10 C16        -1.6380   -0.6720   -0.8480 ca        1 4BQ     -0.117500
     11 C17        -0.2700   -0.5330   -1.0460 ca        1 4BQ     -0.171000
     12 C14        -1.4990    0.6860    1.1610 ca        1 4BQ     -0.117500
     13 C13        -0.1310    0.8200    0.9720 ca        1 4BQ     -0.171000
     14 C12         0.5150    0.2190   -0.1410 ca        1 4BQ      0.088600
     15 N10         1.8910    0.4110   -0.2900 n         1 4BQ     -0.473100
     16 C8          2.7320   -0.1090   -1.2710 c         1 4BQ      0.668100
     17 O9          2.3010   -0.8370   -2.1880 o         1 4BQ     -0.625100
     18 C7          4.2010    0.2690   -1.2190 c3        1 4BQ     -0.147400
     19 C6          4.7410    0.6420    0.1410 c3        1 4BQ     -0.077400
     20 C4          6.2480    0.9020    0.1030 c3        1 4BQ      0.017500
     21 C2          6.6420    1.6700    1.4130 c         1 4BQ      0.888600
     22 O3          7.7060    1.3270    1.9990 o         1 4BQ     -0.838300
     23 O1          5.8790    2.6020    1.7910 o         1 4BQ     -0.838300
     24 N5          7.0350   -0.2970   -0.1520 n3        1 4BQ     -0.893800
     25 H21        -5.3950   -1.6100    1.2140 ha        1 4BQ      0.142500
     26 H22        -7.7870   -2.2040    1.6220 ha        1 4BQ      0.127500
     27 H23        -9.6060   -0.9050    0.5100 ha        1 4BQ      0.125000
     28 H24        -9.0320    0.9900   -1.0080 ha        1 4BQ      0.127500
     29 H25        -6.6470    1.5860   -1.4130 ha        1 4BQ      0.142500
     30 H19        -4.1840    0.0890   -1.4600 h1        1 4BQ      0.044200
     31 H19A       -4.3200    1.5070   -0.3090 h1        1 4BQ      0.044200
     32 H16        -2.2370   -1.2650   -1.5540 ha        1 4BQ      0.137000
     33 H17         0.1980   -1.0230   -1.9160 ha        1 4BQ      0.159000
     34 H14        -1.9920    1.1510    2.0270 ha        1 4BQ      0.137000
     35 H13         0.4510    1.4050    1.7020 ha        1 4BQ      0.159000
     36 HN10        2.3250    0.9580    0.4260 hn        1 4BQ      0.335500
     37 H7          4.7730   -0.6060   -1.6330 hc        1 4BQ      0.080700
     38 H7A         4.3380    1.1280   -1.9310 hc        1 4BQ      0.080700
     39 H6          4.2760    1.5980    0.5110 hc        1 4BQ      0.054200
     40 H6A         4.5090   -0.1650    0.8830 hc        1 4BQ      0.054200
     41 H4          6.4620    1.6120   -0.7490 h1        1 4BQ      0.041700
     42 HN5         8.0000   -0.0590    0.0150 hn        1 4BQ      0.334800
     43 HN5A        6.7940   -0.9900    0.5350 hn        1 4BQ      0.334800
@<TRIPOS>BOND
     1    1    2 ar  
     2    1    6 ar  
     3    1   25 1   
     4    2    3 ar  
     5    2   26 1   
     6    3    4 ar  
     7    3   27 1   
     8    4    5 ar  
     9    4   28 1   
    10    5    6 ar  
    11    5   29 1   
    12    6    7 1   
    13    7    8 1   
    14    7   30 1   
    15    7   31 1   
    16    8    9 1   
    17    9   10 ar  
    18    9   12 ar  
    19   10   11 ar  
    20   10   32 1   
    21   11   14 ar  
    22   11   33 1   
    23   12   13 ar  
    24   12   34 1   
    25   13   14 ar  
    26   13   35 1   
    27   14   15 1   
    28   15   16 1   
    29   15   36 1   
    30   16   17 2   
    31   16   18 1   
    32   18   19 1   
    33   18   37 1   
    34   18   38 1   
    35   19   20 1   
    36   19   39 1   
    37   19   40 1   
    38   20   21 1   
    39   20   24 1   
    40   20   41 1   
    41   21   22 1   
    42   21   23 1   
    43   24   42 1   
    44   24   43 1   
@<TRIPOS>SUBSTRUCTURE
     1 4BQ         1 TEMP              0 ****  ****    0 ROOT
