@<TRIPOS>MOLECULE
4BQ
   45    46     1     0     0
SMALL
bcc


@<TRIPOS>ATOM
      1 C21        -0.1100   -0.2650   -0.3660 ca        1 4BQ     -0.103500
      2 C22         1.2630   -0.0640   -0.2270 ca        1 4BQ     -0.128000
      3 C23         1.8190    0.1200    1.0400 ca        1 4BQ     -0.107000
      4 C24         1.0010    0.1050    2.1700 ca        1 4BQ     -0.128000
      5 C25        -0.3730   -0.0880    2.0350 ca        1 4BQ     -0.103500
      6 C20        -0.9320   -0.2690    0.7650 ca        1 4BQ     -0.117300
      7 C19        -2.4050   -0.4370    0.6070 c3        1 4BQ      0.177700
      8 O18        -2.7960   -1.5130    1.4910 os        1 4BQ     -0.301900
      9 C15        -4.1110   -1.8740    1.4690 ca        1 4BQ      0.196100
     10 C16        -4.4360   -2.9730    2.2990 ca        1 4BQ     -0.178500
     11 C17        -5.7400   -3.4270    2.3610 ca        1 4BQ     -0.055500
     12 C14        -5.1090   -1.2410    0.7110 ca        1 4BQ     -0.178500
     13 C13        -6.4200   -1.6970    0.7750 ca        1 4BQ     -0.055500
     14 C12        -6.7420   -2.7900    1.5980 ca        1 4BQ     -0.111400
     15 N10        -8.1130   -3.2850    1.6350 n4        1 4BQ     -0.532200
     16 C8         -8.7720   -3.1220    2.9800 c         1 4BQ      0.559100
     17 O9         -8.2810   -3.7300    3.9220 o         1 4BQ     -0.436100
     18 C7        -10.0040   -2.2510    3.0600 c3        1 4BQ     -0.150400
     19 C6        -11.2190   -3.0710    3.4700 c3        1 4BQ     -0.084400
     20 C4        -11.9200   -3.7060    2.2630 c3        1 4BQ     -0.042500
     21 C2        -10.8360   -4.0530    1.1790 c         1 4BQ      0.892600
     22 O3        -10.2180   -5.1400    1.3400 o         1 4BQ     -0.779800
     23 O1        -10.6000   -3.1730    0.3190 o         1 4BQ     -0.779800
     24 N5        -12.6480   -4.9620    2.6220 n4        1 4BQ     -0.825600
     25 H21        -0.5420   -0.4160   -1.3670 ha        1 4BQ      0.135500
     26 H22         1.9080   -0.0550   -1.1180 ha        1 4BQ      0.142500
     27 H23         2.9030    0.2750    1.1470 ha        1 4BQ      0.143000
     28 H24         1.4390    0.2460    3.1690 ha        1 4BQ      0.142500
     29 H25        -1.0220   -0.1070    2.9230 ha        1 4BQ      0.135500
     30 H19        -2.6800   -0.7110   -0.4460 h1        1 4BQ      0.055200
     31 H19A       -2.9480    0.4960    0.9200 h1        1 4BQ      0.055200
     32 H16        -3.6380   -3.4580    2.8860 ha        1 4BQ      0.173500
     33 H17        -5.9900   -4.2810    3.0160 ha        1 4BQ      0.160500
     34 H14        -4.8700   -0.3860    0.0600 ha        1 4BQ      0.173500
     35 H13        -7.1900   -1.1950    0.1640 ha        1 4BQ      0.160500
     36 HN10       -8.6810   -2.8080    0.9050 hn        1 4BQ      0.495800
     37 H7         -9.7940   -1.4820    3.8570 hc        1 4BQ      0.119200
     38 H7A       -10.2100   -1.7050    2.0990 hc        1 4BQ      0.119200
     39 H6        -10.8980   -3.8500    4.2130 hc        1 4BQ      0.079700
     40 H6A       -11.9410   -2.3840    3.9900 hc        1 4BQ      0.079700
     41 H4        -12.6620   -2.9810    1.8220 hx        1 4BQ      0.122700
     42 HN5       -13.0740   -4.9000    3.5460 hn        1 4BQ      0.461133
     43 HN5A      -11.9570   -5.7350    2.6010 hn        1 4BQ      0.461133
     44 H102       -8.1320   -4.2990    1.4040 hn        1 4BQ      0.495800
     45 H53       -13.3660   -5.1500    1.9180 hn        1 4BQ      0.461133
@<TRIPOS>BOND
     1    1    2 ar  
     2    1    6 ar  
     3    1   25 1   
     4    2    3 ar  
     5    2   26 1   
     6    3    4 ar  
     7    3   27 1   
     8    4    5 ar  
     9    4   28 1   
    10    5    6 ar  
    11    5   29 1   
    12    6    7 1   
    13    7    8 1   
    14    7   30 1   
    15    7   31 1   
    16    8    9 1   
    17    9   10 ar  
    18    9   12 ar  
    19   10   11 ar  
    20   10   32 1   
    21   11   14 ar  
    22   11   33 1   
    23   12   13 ar  
    24   12   34 1   
    25   13   14 ar  
    26   13   35 1   
    27   14   15 1   
    28   15   16 1   
    29   15   36 1   
    30   15   44 1   
    31   16   17 2   
    32   16   18 1   
    33   18   19 1   
    34   18   37 1   
    35   18   38 1   
    36   19   20 1   
    37   19   39 1   
    38   19   40 1   
    39   20   21 1   
    40   20   24 1   
    41   20   41 1   
    42   21   22 1   
    43   21   23 1   
    44   24   42 1   
    45   24   43 1   
    46   24   45 1   
@<TRIPOS>SUBSTRUCTURE
     1 4BQ         1 TEMP              0 ****  ****    0 ROOT
