@<TRIPOS>MOLECULE
4BQ
   44    45     1     0     0
SMALL
bcc


@<TRIPOS>ATOM
      1 C21         0.1810   -0.8040    0.0250 ca        1 4BQ     -0.111500
      2 C22         1.5330   -0.6760    0.3360 ca        1 4BQ     -0.130500
      3 C23         1.9220   -0.2030    1.5900 ca        1 4BQ     -0.123000
      4 C24         0.9550    0.1440    2.5330 ca        1 4BQ     -0.130500
      5 C25        -0.4000    0.0240    2.2240 ca        1 4BQ     -0.111500
      6 C20        -0.7910   -0.4490    0.9680 ca        1 4BQ     -0.097300
      7 C19        -2.2320   -0.5540    0.5950 c3        1 4BQ      0.175700
      8 O18        -2.9700   -0.8670    1.7860 os        1 4BQ     -0.323900
      9 C15        -4.3250   -1.0640    1.6140 ca        1 4BQ      0.118100
     10 C16        -5.0120   -1.4760    2.7710 ca        1 4BQ     -0.160000
     11 C17        -6.3820   -1.6910    2.7250 ca        1 4BQ     -0.120000
     12 C14        -5.0190   -0.8720    0.4140 ca        1 4BQ     -0.160000
     13 C13        -6.3910   -1.0950    0.3690 ca        1 4BQ     -0.120000
     14 C12        -7.0960   -1.5070    1.5210 ca        1 4BQ      0.011600
     15 N10        -8.4910   -1.6940    1.4290 n         1 4BQ     -0.447100
     16 C8         -9.2770   -2.4560    2.2620 c         1 4BQ      0.668100
     17 O9         -8.8150   -3.0620    3.2580 o         1 4BQ     -0.673100
     18 C7        -10.7640   -2.5380    1.9430 c3        1 4BQ     -0.167400
     19 C6        -11.1700   -3.9340    1.5180 c3        1 4BQ     -0.087400
     20 C4        -11.5480   -4.8460    2.6690 c3        1 4BQ     -0.076500
     21 C2        -12.2960   -6.1580    2.1080 c         1 4BQ      0.937600
     22 O3        -13.1220   -5.9480    1.2040 o         1 4BQ     -0.760800
     23 O1        -11.9620   -7.2280    2.6770 o         1 4BQ     -0.760800
     24 N5        -10.3890   -5.2670    3.5060 n4        1 4BQ     -0.820600
     25 H21        -0.1220   -1.1840   -0.9620 ha        1 4BQ      0.139000
     26 H22         2.2950   -0.9520   -0.4080 ha        1 4BQ      0.134000
     27 H23         2.9900   -0.1050    1.8340 ha        1 4BQ      0.133000
     28 H24         1.2580    0.5130    3.5240 ha        1 4BQ      0.134000
     29 H25        -1.1670    0.2900    2.9660 ha        1 4BQ      0.139000
     30 H19        -2.5980    0.4280    0.1870 h1        1 4BQ      0.048700
     31 H19A       -2.3950   -1.3630   -0.1670 h1        1 4BQ      0.048700
     32 H16        -4.4530   -1.6230    3.7070 ha        1 4BQ      0.149000
     33 H17        -6.9040   -2.0150    3.6410 ha        1 4BQ      0.150500
     34 H14        -4.4990   -0.5490   -0.4980 ha        1 4BQ      0.149000
     35 H13        -6.9180   -0.9400   -0.5860 ha        1 4BQ      0.150500
     36 HN10       -8.9240   -1.2880    0.6280 hn        1 4BQ      0.323500
     37 H7        -11.0530   -1.8130    1.1370 hc        1 4BQ      0.074200
     38 H7A       -11.3160   -2.2330    2.8730 hc        1 4BQ      0.074200
     39 H6        -10.3690   -4.4010    0.8870 hc        1 4BQ      0.093700
     40 H6A       -12.0950   -3.8730    0.8730 hc        1 4BQ      0.093700
     41 H4        -12.2870   -4.3360    3.3470 hx        1 4BQ      0.086700
     42 HN5       -10.2170   -4.6090    4.2660 hn        1 4BQ      0.450467
     43 HN5A      -10.6090   -6.2180    3.8620 hn        1 4BQ      0.450467
     44 H53        -9.5440   -5.3120    2.9340 hn        1 4BQ      0.450467
@<TRIPOS>BOND
     1    1    2 ar  
     2    1    6 ar  
     3    1   25 1   
     4    2    3 ar  
     5    2   26 1   
     6    3    4 ar  
     7    3   27 1   
     8    4    5 ar  
     9    4   28 1   
    10    5    6 ar  
    11    5   29 1   
    12    6    7 1   
    13    7    8 1   
    14    7   30 1   
    15    7   31 1   
    16    8    9 1   
    17    9   10 ar  
    18    9   12 ar  
    19   10   11 ar  
    20   10   32 1   
    21   11   14 ar  
    22   11   33 1   
    23   12   13 ar  
    24   12   34 1   
    25   13   14 ar  
    26   13   35 1   
    27   14   15 1   
    28   15   16 1   
    29   15   36 1   
    30   16   17 2   
    31   16   18 1   
    32   18   19 1   
    33   18   37 1   
    34   18   38 1   
    35   19   20 1   
    36   19   39 1   
    37   19   40 1   
    38   20   21 1   
    39   20   24 1   
    40   20   41 1   
    41   21   22 1   
    42   21   23 1   
    43   24   42 1   
    44   24   43 1   
    45   24   44 1   
@<TRIPOS>SUBSTRUCTURE
     1 4BQ         1 TEMP              0 ****  ****    0 ROOT
