@<TRIPOS>MOLECULE
4BQ
   44    45     1     0     0
SMALL
bcc


@<TRIPOS>ATOM
      1 C21         0.1900   -0.7940    0.0650 ca        1 4BQ     -0.111500
      2 C22         1.5370   -0.6510    0.3880 ca        1 4BQ     -0.130500
      3 C23         1.9090   -0.1520    1.6370 ca        1 4BQ     -0.123000
      4 C24         0.9300    0.2050    2.5630 ca        1 4BQ     -0.130500
      5 C25        -0.4200    0.0700    2.2420 ca        1 4BQ     -0.111500
      6 C20        -0.7950   -0.4280    0.9910 ca        1 4BQ     -0.097300
      7 C19        -2.2320   -0.5500    0.6050 c3        1 4BQ      0.175700
      8 O18        -2.9800   -0.8460    1.7940 os        1 4BQ     -0.323900
      9 C15        -4.3320   -1.0550    1.6110 ca        1 4BQ      0.118100
     10 C16        -5.0280   -1.4510    2.7680 ca        1 4BQ     -0.160000
     11 C17        -6.3960   -1.6760    2.7120 ca        1 4BQ     -0.120500
     12 C14        -5.0140   -0.8900    0.4010 ca        1 4BQ     -0.160000
     13 C13        -6.3840   -1.1230    0.3440 ca        1 4BQ     -0.120500
     14 C12        -7.0980   -1.5190    1.4960 ca        1 4BQ      0.011600
     15 N10        -8.4910   -1.7170    1.3930 ns        1 4BQ     -0.447100
     16 C8         -9.2800   -2.4700    2.2320 c         1 4BQ      0.668100
     17 O9         -8.8250   -3.0550    3.2430 o         1 4BQ     -0.673100
     18 C7        -10.7630   -2.5680    1.8990 c3        1 4BQ     -0.167400
     19 C6        -11.1560   -3.9740    1.4950 c3        1 4BQ     -0.087400
     20 C4        -11.5390   -4.8680    2.6580 c3        1 4BQ     -0.076500
     21 C2        -12.2730   -6.1940    2.1130 c         1 4BQ      0.937600
     22 O3        -13.0920   -6.0060    1.1980 o         1 4BQ     -0.760800
     23 O1        -11.9390   -7.2520    2.7050 o         1 4BQ     -0.760800
     24 N5        -10.3860   -5.2660    3.5140 nz        1 4BQ     -0.820600
     25 H21        -0.1000   -1.1950   -0.9180 ha        1 4BQ      0.139000
     26 H22         2.3090   -0.9360   -0.3420 ha        1 4BQ      0.134000
     27 H23         2.9740   -0.0430    1.8910 ha        1 4BQ      0.133000
     28 H24         1.2210    0.5950    3.5500 ha        1 4BQ      0.134000
     29 H25        -1.1980    0.3450    2.9710 ha        1 4BQ      0.139000
     30 H19        -2.3810   -1.3740   -0.1430 h1        1 4BQ      0.048700
     31 H19A       -2.5990    0.4220    0.1740 h1        1 4BQ      0.048700
     32 H16        -4.4780   -1.5770    3.7120 ha        1 4BQ      0.149000
     33 H17        -6.9260   -1.9870    3.6270 ha        1 4BQ      0.150500
     34 H14        -4.4870   -0.5790   -0.5120 ha        1 4BQ      0.149000
     35 H13        -6.9020   -0.9890   -0.6180 ha        1 4BQ      0.150500
     36 HN10       -8.9180   -1.3290    0.5810 hn        1 4BQ      0.323500
     37 H7        -11.0490   -1.8600    1.0760 hc        1 4BQ      0.074200
     38 H7A       -11.3270   -2.2500    2.8170 hc        1 4BQ      0.074200
     39 H6        -12.0750   -3.9310    0.8400 hc        1 4BQ      0.093700
     40 H6A       -10.3450   -4.4470    0.8810 hc        1 4BQ      0.093700
     41 H4        -12.2880   -4.3500    3.3200 hx        1 4BQ      0.086700
     42 HN5       -10.2260   -4.5930    4.2630 hn        1 4BQ      0.450467
     43 HN5A      -10.6040   -6.2120    3.8850 hn        1 4BQ      0.450467
     44 H53        -9.5350   -5.3160    2.9510 hn        1 4BQ      0.450467
@<TRIPOS>BOND
     1    1    2 ar  
     2    1    6 ar  
     3    1   25 1   
     4    2    3 ar  
     5    2   26 1   
     6    3    4 ar  
     7    3   27 1   
     8    4    5 ar  
     9    4   28 1   
    10    5    6 ar  
    11    5   29 1   
    12    6    7 1   
    13    7    8 1   
    14    7   30 1   
    15    7   31 1   
    16    8    9 1   
    17    9   10 ar  
    18    9   12 ar  
    19   10   11 ar  
    20   10   32 1   
    21   11   14 ar  
    22   11   33 1   
    23   12   13 ar  
    24   12   34 1   
    25   13   14 ar  
    26   13   35 1   
    27   14   15 1   
    28   15   16 1   
    29   15   36 1   
    30   16   17 2   
    31   16   18 1   
    32   18   19 1   
    33   18   37 1   
    34   18   38 1   
    35   19   20 1   
    36   19   39 1   
    37   19   40 1   
    38   20   21 1   
    39   20   24 1   
    40   20   41 1   
    41   21   22 1   
    42   21   23 1   
    43   24   42 1   
    44   24   43 1   
    45   24   44 1   
@<TRIPOS>SUBSTRUCTURE
     1 4BQ         1 TEMP              0 ****  ****    0 ROOT
