@<TRIPOS>MOLECULE
4BQ
   43    39     1     0     0
SMALL
bcc


@<TRIPOS>ATOM
      1 C21         3.9450    4.7680    0.8280 c1        1 4BQ     -0.132000
      2 C22         4.9900    5.6050    1.1860 c1        1 4BQ     -0.126250
      3 C23         6.0360    5.1190    1.9530 c1        1 4BQ     -0.126250
      4 C24         6.0380    3.7940    2.3610 c1        1 4BQ     -0.126250
      5 C25         4.9940    2.9570    2.0030 c1        1 4BQ     -0.126250
      6 C20         3.9470    3.4440    1.2360 c1        1 4BQ     -0.075000
      7 C19         2.8560    2.5070    0.7660 c3        1 4BQ      0.016000
      8 O18         2.4370    1.6970    1.8410 os        1 4BQ     -0.228000
      9 C15         1.3800    0.8280    1.5200 c2        1 4BQ     -0.009000
     10 C16         1.6150   -0.2900    0.7350 c1        1 4BQ     -0.107000
     11 C17         0.5810   -1.1690    0.4530 c1        1 4BQ     -0.184000
     12 C14         0.1100    1.0670    2.0220 c2        1 4BQ     -0.128000
     13 C13        -0.9240    0.1890    1.7400 c1        1 4BQ     -0.158000
     14 C12        -0.6890   -0.9290    0.9550 c1        1 4BQ      0.096000
     15 N10        -1.7540   -1.8100    0.6380 n         1 4BQ     -0.327000
     16 C8         -2.5500   -1.5750   -0.5120 c2        1 4BQ      0.312000
     17 O9         -2.3190   -0.6190   -1.2250 o         1 4BQ     -0.386000
     18 C7         -3.7150   -2.4870   -0.8250 c3        1 4BQ     -0.176000
     19 C6         -3.6430   -2.9210   -2.2730 c3        1 4BQ     -0.156000
     20 C4         -4.7930   -3.8530   -2.5780 c3        1 4BQ     -0.130000
     21 C2         -5.3010   -3.5840   -3.9750 c2        1 4BQ      0.308000
     22 O3         -6.4260   -3.0450   -4.1430 o         1 4BQ     -0.573000
     23 O1         -4.6160   -3.9340   -4.9730 o         1 4BQ     -0.573000
     24 N5         -4.3490   -5.2010   -2.4860 n3        1 4BQ     -0.326000
     25 H21         3.2030    5.1140    0.2960 ha        1 4BQ      0.129000
     26 H22         4.9880    6.5380    0.8990 ha        1 4BQ      0.134000
     27 H23         6.7720    5.7090    2.2050 ha        1 4BQ      0.134000
     28 H24         6.7800    3.4490    2.8940 ha        1 4BQ      0.134000
     29 H25         4.9960    2.0240    2.2910 ha        1 4BQ      0.134000
     30 H19         3.2000    1.9410    0.0460 h1        1 4BQ      0.083500
     31 H19A        2.0960    3.0300    0.4360 h1        1 4BQ      0.083500
     32 H16         2.5100   -0.4610    0.3860 ha        1 4BQ      0.140000
     33 H17         0.7470   -1.9560   -0.1000 ha        1 4BQ      0.141000
     34 H14        -0.0560    1.8550    2.5750 ha        1 4BQ      0.134000
     35 H13        -1.8180    0.3570    2.0940 ha        1 4BQ      0.177000
     36 HN10       -1.9360   -2.5200    1.1810 hn        1 4BQ      0.249000
     37 H7         -3.6770   -3.2750   -0.2460 hc        1 4BQ      0.120000
     38 H7A        -4.5550   -2.0090   -0.6690 hc        1 4BQ      0.120000
     39 H6         -3.6970   -2.1340   -2.8520 hc        1 4BQ      0.093500
     40 H6A        -2.7960   -3.3840   -2.4320 hc        1 4BQ      0.093500
     41 H4         -5.5140   -3.7020   -1.9350 h1        1 4BQ      0.081000
     42 HN5        -5.0430   -5.7650   -2.6790 hn        1 4BQ      0.130000
     43 HN5A       -4.0490   -5.3660   -1.6370 hn        1 4BQ      0.130000
@<TRIPOS>BOND
     1    1    6 1   
     2    1   25 1   
     3    2    3 1   
     4    2   26 1   
     5    3   27 1   
     6    4    5 1   
     7    4   28 1   
     8    5   29 1   
     9    6    7 1   
    10    7    8 1   
    11    7   30 1   
    12    7   31 1   
    13    8    9 1   
    14    9   10 1   
    15    9   12 1   
    16   10   32 1   
    17   11   14 1   
    18   11   33 1   
    19   12   13 1   
    20   12   34 1   
    21   13   35 1   
    22   14   15 1   
    23   15   16 1   
    24   15   36 1   
    25   16   17 1   
    26   16   18 1   
    27   18   19 1   
    28   18   37 1   
    29   18   38 1   
    30   19   20 1   
    31   19   39 1   
    32   19   40 1   
    33   20   21 1   
    34   20   24 1   
    35   20   41 1   
    36   21   22 1   
    37   21   23 1   
    38   24   42 1   
    39   24   43 1   
@<TRIPOS>SUBSTRUCTURE
     1 4BQ         1 TEMP              0 ****  ****    0 ROOT
