@<TRIPOS>MOLECULE
4BR
   25    25     1     0     0
SMALL
bcc


@<TRIPOS>ATOM
      1 CA1         0.2600    0.4470   -0.0830 ca        1 4BR     -0.193000
      2 CB1         1.6200    0.6570    0.0870 ca        1 4BR     -0.098000
      3 CG1         2.2790    0.2150    1.2430 ca        1 4BR     -0.146300
      4 CD          1.5440   -0.4490    2.2290 ca        1 4BR     -0.098000
      5 CG2         0.1770   -0.6710    2.0810 ca        1 4BR     -0.193000
      6 CB2        -0.4730   -0.2210    0.9210 ca        1 4BR      0.155100
      7 O          -1.8080   -0.3790    0.6620 os        1 4BR     -0.340900
      8 CZ2        -2.5910   -1.0230    1.6970 c3        1 4BR      0.163400
      9 CA2        -3.9960   -1.1110    1.1880 c3        1 4BR     -0.340600
     10 P          -4.7160   -2.5800    1.7120 p5        1 4BR      1.263600
     11 OP1        -3.9750   -3.0930    2.8920 o         1 4BR     -0.878000
     12 OP2        -6.1870   -2.4020    1.7380 o         1 4BR     -0.878000
     13 CH2         3.7280    0.4600    1.4150 c3        1 4BR     -0.034800
     14 HA1        -0.2620    0.7890   -0.9870 ha        1 4BR      0.148000
     15 HB1         2.1920    1.1760   -0.6970 ha        1 4BR      0.118500
     16 HD          2.0500   -0.8060    3.1390 ha        1 4BR      0.118500
     17 HG2        -0.3800   -1.2020    2.8670 ha        1 4BR      0.148000
     18 HZ21       -2.1750   -2.0500    1.8910 h1        1 4BR      0.052700
     19 HZ22       -2.5020   -0.4010    2.6280 h1        1 4BR      0.052700
     20 HA21       -4.0050   -1.0470    0.0730 hc        1 4BR      0.073700
     21 HA22       -4.6000   -0.2470    1.5540 hc        1 4BR      0.073700
     22 HH21        4.2670    0.3610    0.4410 hc        1 4BR      0.029700
     23 HH22        4.1750   -0.2630    2.1410 hc        1 4BR      0.029700
     24 HH23        3.9010    1.4960    1.8040 hc        1 4BR      0.029700
     25 HP1        -4.3860   -3.3210    0.6560 hp        1 4BR     -0.257400
@<TRIPOS>BOND
     1    1    2 ar  
     2    1    6 ar  
     3    1   14 1   
     4    2    3 ar  
     5    2   15 1   
     6    3    4 ar  
     7    3   13 1   
     8    4    5 ar  
     9    4   16 1   
    10    5    6 ar  
    11    5   17 1   
    12    6    7 1   
    13    7    8 1   
    14    8    9 1   
    15    8   18 1   
    16    8   19 1   
    17    9   10 1   
    18    9   20 1   
    19    9   21 1   
    20   10   11 1   
    21   10   12 1   
    22   10   25 1   
    23   13   22 1   
    24   13   23 1   
    25   13   24 1   
@<TRIPOS>SUBSTRUCTURE
     1 4BR         1 TEMP              0 ****  ****    0 ROOT
