@<TRIPOS>MOLECULE
4BR
   25    25     1     0     0
SMALL
bcc


@<TRIPOS>ATOM
      1 CA1         1.1120    0.0450    1.7440 ca        1 4BR     -0.193000
      2 CB1         1.3970    0.1570    0.3910 ca        1 4BR     -0.098000
      3 CG1         2.0840   -0.8590   -0.2870 ca        1 4BR     -0.146300
      4 CD          2.4800   -1.9980    0.4200 ca        1 4BR     -0.098000
      5 CG2         2.2060   -2.1320    1.7780 ca        1 4BR     -0.193000
      6 CB2         1.5200   -1.1080    2.4490 ca        1 4BR      0.155100
      7 O           1.1930   -1.1240    3.7780 os        1 4BR     -0.340900
      8 CZ2         1.6390   -2.2770    4.5330 c3        1 4BR      0.163400
      9 CA2         1.1520   -2.0930    5.9370 c3        1 4BR     -0.340600
     10 P           0.7000   -3.6110    6.6030 p5        1 4BR      1.263600
     11 OP1         1.3680   -4.6960    5.8400 o         1 4BR     -0.878000
     12 OP2         0.8000   -3.5280    8.0790 o         1 4BR     -0.878000
     13 CH2         2.3940   -0.7180   -1.7280 c3        1 4BR     -0.034800
     14 HA1         0.5720    0.8360    2.2800 ha        1 4BR      0.148000
     15 HB1         1.0770    1.0540   -0.1590 ha        1 4BR      0.118500
     16 HD          3.0150   -2.8050   -0.1030 ha        1 4BR      0.118500
     17 HG2         2.5200   -3.0410    2.3130 ha        1 4BR      0.148000
     18 HZ21        1.2010   -3.2100    4.0810 h1        1 4BR      0.052700
     19 HZ22        2.7600   -2.3180    4.4630 h1        1 4BR      0.052700
     20 HA21        1.9440   -1.6270    6.5690 hc        1 4BR      0.073700
     21 HA22        0.2860   -1.3870    5.9520 hc        1 4BR      0.073700
     22 HH21        2.5490   -1.7160   -2.2060 hc        1 4BR      0.030033
     23 HH22        1.5640   -0.1950   -2.2640 hc        1 4BR      0.030033
     24 HH23        3.3290   -0.1170   -1.8650 hc        1 4BR      0.030033
     25 HP1        -0.5840   -3.5810    6.2500 hp        1 4BR     -0.257400
@<TRIPOS>BOND
     1    1    2 ar  
     2    1    6 ar  
     3    1   14 1   
     4    2    3 ar  
     5    2   15 1   
     6    3    4 ar  
     7    3   13 1   
     8    4    5 ar  
     9    4   16 1   
    10    5    6 ar  
    11    5   17 1   
    12    6    7 1   
    13    7    8 1   
    14    8    9 1   
    15    8   18 1   
    16    8   19 1   
    17    9   10 1   
    18    9   20 1   
    19    9   21 1   
    20   10   11 1   
    21   10   12 1   
    22   10   25 1   
    23   13   22 1   
    24   13   23 1   
    25   13   24 1   
@<TRIPOS>SUBSTRUCTURE
     1 4BR         1 TEMP              0 ****  ****    0 ROOT
