@<TRIPOS>MOLECULE
4BR
   25    22     1     0     0
SMALL
bcc


@<TRIPOS>ATOM
      1 CA1         0.9430    0.7060   -1.0170 c1        1 4BR     -0.149500
      2 CB1         2.3320    0.6730   -0.9650 c1        1 4BR     -0.035500
      3 CG1         2.9850    0.5700    0.2640 c1        1 4BR     -0.111100
      4 CD          2.2410    0.4980    1.4480 c1        1 4BR     -0.082500
      5 CG2         0.8490    0.5300    1.3980 c1        1 4BR     -0.082500
      6 CB2         0.1970    0.6340    0.1610 c1        1 4BR      0.137600
      7 O          -1.2070    0.7180    0.1070 os        1 4BR     -0.317400
      8 CZ2        -1.8580   -0.5450    0.0490 c3        1 4BR      0.145400
      9 CA2        -3.3650   -0.3480    0.2360 c3        1 4BR     -0.335600
     10 P          -4.2790   -1.3730   -0.9960 p5        1 4BR      1.263600
     11 OP1        -5.8290   -1.3180   -0.6830 o         1 4BR     -0.877000
     12 OP2        -4.0330   -0.8470   -2.3380 o         1 4BR     -0.877000
     13 CH2         4.4850    0.6000    0.3200 c3        1 4BR     -0.070000
     14 HA1         0.4900    0.7790   -1.8770 ha        1 4BR      0.098500
     15 HB1         2.8730    0.7260   -1.8270 ha        1 4BR      0.063500
     16 HD          2.7010    0.4260    2.3090 ha        1 4BR      0.070500
     17 HG2         0.3120    0.4770    2.2500 ha        1 4BR      0.070500
     18 HZ21       -1.6830   -0.9750   -0.8460 h1        1 4BR      0.057700
     19 HZ22       -1.5280   -1.0980    0.7320 h1        1 4BR      0.057700
     20 HA21       -3.6270   -0.6250    1.1590 hc        1 4BR      0.071700
     21 HA22       -3.5930    0.6200    0.1000 hc        1 4BR      0.071700
     22 HH21        4.8480    1.0710   -0.5150 hc        1 4BR      0.030367
     23 HH22        4.8380   -0.3430    0.3540 hc        1 4BR      0.030367
     24 HH23        4.7680    1.0800    1.1080 hc        1 4BR      0.030367
     25 HP1        -3.8590   -2.6330   -0.9290 hp        1 4BR     -0.261400
@<TRIPOS>BOND
     1    1    6 3   
     2    1   14 1   
     3    2    3 3   
     4    2   15 1   
     5    3   13 1   
     6    4    5 3   
     7    4   16 1   
     8    5   17 1   
     9    6    7 1   
    10    7    8 1   
    11    8    9 1   
    12    8   18 1   
    13    8   19 1   
    14    9   10 1   
    15    9   20 1   
    16    9   21 1   
    17   10   11 1   
    18   10   12 1   
    19   10   25 1   
    20   13   22 1   
    21   13   23 1   
    22   13   24 1   
@<TRIPOS>SUBSTRUCTURE
     1 4BR         1 TEMP              0 ****  ****    0 ROOT
