@<TRIPOS>MOLECULE
4BR
   25    25     1     0     0
SMALL
bcc


@<TRIPOS>ATOM
      1 CA1         0.2150    0.6510    0.0660 ca        1 4BR     -0.193000
      2 CB1         1.5780    0.8460    0.2280 ca        1 4BR     -0.098000
      3 CG1         2.2700    0.2490    1.2910 ca        1 4BR     -0.146300
      4 CD          1.5640   -0.5520    2.1930 ca        1 4BR     -0.098000
      5 CG2         0.1950   -0.7620    2.0510 ca        1 4BR     -0.193000
      6 CB2        -0.4880   -0.1590    0.9840 ca        1 4BR      0.155100
      7 O          -1.8290   -0.2890    0.7390 os        1 4BR     -0.340900
      8 CZ2        -2.5800   -1.0810    1.6910 c3        1 4BR      0.163400
      9 CA2        -3.9980   -1.1090    1.2120 c3        1 4BR     -0.340600
     10 P          -4.6950   -2.6450    1.5380 p5        1 4BR      1.263600
     11 OP1        -3.9200   -3.3140    2.6140 o         1 4BR     -0.878000
     12 OP2        -6.1650   -2.4870    1.6270 o         1 4BR     -0.878000
     13 CH2         3.7280    0.4540    1.4420 c3        1 4BR     -0.034800
     14 HA1        -0.3330    1.1150   -0.7650 ha        1 4BR      0.148000
     15 HB1         2.1260    1.4780   -0.4870 ha        1 4BR      0.118500
     16 HD          2.0970   -1.0280    3.0310 ha        1 4BR      0.118500
     17 HG2        -0.3380   -1.4020    2.7690 ha        1 4BR      0.148000
     18 HZ21       -2.1540   -2.1220    1.7280 h1        1 4BR      0.052700
     19 HZ22       -2.4700   -0.5960    2.6990 h1        1 4BR      0.052700
     20 HA21       -4.5970   -0.3120    1.7120 hc        1 4BR      0.073700
     21 HA22       -4.0370   -0.8870    0.1180 hc        1 4BR      0.073700
     22 HH21        4.2880   -0.2730    0.8020 hc        1 4BR      0.030367
     23 HH22        4.0190    1.4870    1.1310 hc        1 4BR      0.030367
     24 HH23        4.0470    0.3020    2.5020 hc        1 4BR      0.030367
     25 HP1        -4.3880   -3.2250    0.3790 hp        1 4BR     -0.257400
@<TRIPOS>BOND
     1    1    2 ar  
     2    1    6 ar  
     3    1   14 1   
     4    2    3 ar  
     5    2   15 1   
     6    3    4 ar  
     7    3   13 1   
     8    4    5 ar  
     9    4   16 1   
    10    5    6 ar  
    11    5   17 1   
    12    6    7 1   
    13    7    8 1   
    14    8    9 1   
    15    8   18 1   
    16    8   19 1   
    17    9   10 1   
    18    9   20 1   
    19    9   21 1   
    20   10   11 1   
    21   10   12 1   
    22   10   25 1   
    23   13   22 1   
    24   13   23 1   
    25   13   24 1   
@<TRIPOS>SUBSTRUCTURE
     1 4BR         1 TEMP              0 ****  ****    0 ROOT
