@<TRIPOS>MOLECULE
4BS
   43    44     1     0     0
SMALL
bcc


@<TRIPOS>ATOM
      1 N1          0.4890    1.5620    1.0830 n4        1 4BS     -0.837600
      2 C2          1.9340    1.3710    1.4020 c3        1 4BS      0.102800
      3 C3          2.2500   -0.0420    1.8800 c3        1 4BS     -0.114400
      4 C4          3.7370   -0.1680    2.1750 c3        1 4BS     -0.146400
      5 C5          4.0430   -1.5710    2.6250 c         1 4BS      0.540100
      6 O6          3.2470   -2.4930    2.7330 o         1 4BS     -0.402100
      7 N7          5.4730   -1.8830    2.9830 n4        1 4BS     -0.514200
      8 C9          5.8770   -1.2440    4.2360 ca        1 4BS     -0.172400
      9 C10         5.3050   -1.6830    5.4530 ca        1 4BS     -0.055000
     10 C11         5.7290   -1.1340    6.6450 ca        1 4BS     -0.179500
     11 C12         6.7470   -0.1420    6.6490 ca        1 4BS      0.228100
     12 C13         7.3140    0.2880    5.4320 ca        1 4BS     -0.179500
     13 C14         6.8840   -0.2610    4.2340 ca        1 4BS     -0.055000
     14 O15         7.0870    0.3180    7.8730 os        1 4BS     -0.285900
     15 C16         8.1890    1.2670    7.9550 c3        1 4BS      0.183700
     16 C17         8.3910    1.5350    9.4030 ca        1 4BS     -0.137300
     17 C18         9.2140    0.6950   10.1620 ca        1 4BS     -0.095500
     18 C19         9.4340    0.9690   11.5110 ca        1 4BS     -0.126000
     19 C20         8.8300    2.0780   12.1070 ca        1 4BS     -0.090000
     20 C21         8.0050    2.9130   11.3530 ca        1 4BS     -0.126000
     21 C22         7.7810    2.6430   10.0040 ca        1 4BS     -0.095500
     22 HN1        -0.0900    1.3840    1.9130 hn        1 4BS      0.474800
     23 HN1A        0.1960    0.9160    0.3390 hn        1 4BS      0.474800
     24 H2          2.2090    2.1220    2.2010 hx        1 4BS      0.121200
     25 H2A         2.5230    1.6070    0.4680 hx        1 4BS      0.121200
     26 H3          1.6670   -0.2860    2.8110 hc        1 4BS      0.097200
     27 H3A         1.9620   -0.7990    1.0990 hc        1 4BS      0.097200
     28 H4          4.0430    0.5500    2.9860 hc        1 4BS      0.114200
     29 H4A         4.3400    0.0680    1.2550 hc        1 4BS      0.114200
     30 HN7         6.0960   -1.5760    2.2280 hn        1 4BS      0.472800
     31 H10         4.5310   -2.4700    5.4650 ha        1 4BS      0.155500
     32 H11         5.3030   -1.4630    7.6080 ha        1 4BS      0.187500
     33 H13         8.1110    1.0500    5.4230 ha        1 4BS      0.187500
     34 H14         7.3570    0.0730    3.2950 ha        1 4BS      0.155500
     35 H16         7.8930    2.1930    7.3950 h1        1 4BS      0.058700
     36 H16A        9.0950    0.7970    7.4900 h1        1 4BS      0.058700
     37 H18         9.6910   -0.1800    9.6940 ha        1 4BS      0.132000
     38 H19        10.0850    0.3100   12.1060 ha        1 4BS      0.150500
     39 H20         9.0070    2.2940   13.1720 ha        1 4BS      0.153000
     40 H21         7.5300    3.7880   11.8230 ha        1 4BS      0.150500
     41 H22         7.1300    3.3030    9.4120 ha        1 4BS      0.132000
     42 H131        0.3280    2.5270    0.7670 hn        1 4BS      0.474800
     43 H72         5.5680   -2.9080    3.0980 hn        1 4BS      0.472800
@<TRIPOS>BOND
     1    1    2 1   
     2    1   22 1   
     3    1   23 1   
     4    1   42 1   
     5    2    3 1   
     6    2   24 1   
     7    2   25 1   
     8    3    4 1   
     9    3   26 1   
    10    3   27 1   
    11    4    5 1   
    12    4   28 1   
    13    4   29 1   
    14    5    6 2   
    15    5    7 1   
    16    7    8 1   
    17    7   30 1   
    18    7   43 1   
    19    8    9 ar  
    20    8   13 ar  
    21    9   10 ar  
    22    9   31 1   
    23   10   11 ar  
    24   10   32 1   
    25   11   12 ar  
    26   11   14 1   
    27   12   13 ar  
    28   12   33 1   
    29   13   34 1   
    30   14   15 1   
    31   15   16 1   
    32   15   35 1   
    33   15   36 1   
    34   16   17 ar  
    35   16   21 ar  
    36   17   18 ar  
    37   17   37 1   
    38   18   19 ar  
    39   18   38 1   
    40   19   20 ar  
    41   19   39 1   
    42   20   21 ar  
    43   20   40 1   
    44   21   41 1   
@<TRIPOS>SUBSTRUCTURE
     1 4BS         1 TEMP              0 ****  ****    0 ROOT
