@<TRIPOS>MOLECULE
4BS
   42    43     1     0     0
SMALL
bcc


@<TRIPOS>ATOM
      1 N1          0.0500   -0.0900   -0.4180 nz        1 4BS     -0.838600
      2 C2          1.5270   -0.1040   -0.1940 c3        1 4BS      0.100800
      3 C3          1.8770    0.0140    1.2820 c3        1 4BS     -0.107400
      4 C4          3.3820   -0.0040    1.4630 c3        1 4BS     -0.161400
      5 C5          3.6950    0.1200    2.9580 c         1 4BS      0.662100
      6 O6          2.7550    0.2220    3.7710 o         1 4BS     -0.602100
      7 N7          5.0250    0.0900    3.2980 ns        1 4BS     -0.444100
      8 C9          5.5620    0.2420    4.5970 ca        1 4BS     -0.003400
      9 C10         4.7940    0.0550    5.7660 ca        1 4BS     -0.116500
     10 C11         5.3750    0.1950    7.0170 ca        1 4BS     -0.160000
     11 C12         6.7410    0.5200    7.1290 ca        1 4BS      0.131100
     12 C13         7.5150    0.7060    5.9770 ca        1 4BS     -0.160000
     13 C14         6.9290    0.5700    4.7230 ca        1 4BS     -0.116500
     14 O15         7.2020    0.6370    8.4200 os        1 4BS     -0.317900
     15 C16         8.6090    0.9020    8.5620 c3        1 4BS      0.176700
     16 C17         8.9110    0.9470   10.0220 ca        1 4BS     -0.103300
     17 C18        10.1360    0.4480   10.4810 ca        1 4BS     -0.110000
     18 C19        10.4540    0.5210   11.8360 ca        1 4BS     -0.129000
     19 C20         9.5490    1.0810   12.7390 ca        1 4BS     -0.118000
     20 C21         8.3250    1.5700   12.2850 ca        1 4BS     -0.129000
     21 C22         8.0050    1.5060   10.9290 ca        1 4BS     -0.110000
     22 HN1        -0.3880   -0.8730    0.0810 hn        1 4BS      0.463800
     23 HN1A       -0.3510    0.7840   -0.0600 hn        1 4BS      0.463800
     24 H2          1.9690    0.7570   -0.7730 hx        1 4BS      0.111700
     25 H2A         1.9290   -1.0710   -0.6160 hx        1 4BS      0.111700
     26 H3          1.4710    0.9680    1.7170 hc        1 4BS      0.091700
     27 H3A         1.4310   -0.8330    1.8710 hc        1 4BS      0.091700
     28 H4          3.8530    0.8500    0.9110 hc        1 4BS      0.076200
     29 H4A         3.8120   -0.9610    1.0670 hc        1 4BS      0.076200
     30 HN7         5.6940    0.0490    2.5620 hn        1 4BS      0.319500
     31 H10         3.7220   -0.1970    5.7020 ha        1 4BS      0.149000
     32 H11         4.7800    0.0510    7.9310 ha        1 4BS      0.154000
     33 H13         8.5820    0.9610    6.0450 ha        1 4BS      0.154000
     34 H14         7.5570    0.7220    3.8310 ha        1 4BS      0.149000
     35 H16         9.1910    0.0890    8.0510 h1        1 4BS      0.048700
     36 H16A        8.8420    1.8930    8.0860 h1        1 4BS      0.048700
     37 H18        10.8490   -0.0010    9.7730 ha        1 4BS      0.137000
     38 H19        11.4190    0.1320   12.1930 ha        1 4BS      0.137000
     39 H20         9.8020    1.1340   13.8080 ha        1 4BS      0.137000
     40 H21         7.6090    2.0080   12.9960 ha        1 4BS      0.137000
     41 H22         7.0380    1.8850   10.5660 ha        1 4BS      0.137000
     42 H131       -0.1580   -0.1710   -1.4170 hn        1 4BS      0.463800
@<TRIPOS>BOND
     1    1    2 1   
     2    1   22 1   
     3    1   23 1   
     4    1   42 1   
     5    2    3 1   
     6    2   24 1   
     7    2   25 1   
     8    3    4 1   
     9    3   26 1   
    10    3   27 1   
    11    4    5 1   
    12    4   28 1   
    13    4   29 1   
    14    5    6 2   
    15    5    7 1   
    16    7    8 1   
    17    7   30 1   
    18    8    9 ar  
    19    8   13 ar  
    20    9   10 ar  
    21    9   31 1   
    22   10   11 ar  
    23   10   32 1   
    24   11   12 ar  
    25   11   14 1   
    26   12   13 ar  
    27   12   33 1   
    28   13   34 1   
    29   14   15 1   
    30   15   16 1   
    31   15   35 1   
    32   15   36 1   
    33   16   17 ar  
    34   16   21 ar  
    35   17   18 ar  
    36   17   37 1   
    37   18   19 ar  
    38   18   38 1   
    39   19   20 ar  
    40   19   39 1   
    41   20   21 ar  
    42   20   40 1   
    43   21   41 1   
@<TRIPOS>SUBSTRUCTURE
     1 4BS         1 TEMP              0 ****  ****    0 ROOT
