@<TRIPOS>MOLECULE
4BS
   42    43     1     0     0
SMALL
bcc


@<TRIPOS>ATOM
      1 N1          0.0540   -0.0980   -0.4220 n4        1 4BS     -0.838600
      2 C2          1.5310   -0.1050   -0.1970 c3        1 4BS      0.100800
      3 C3          1.8800    0.0100    1.2790 c3        1 4BS     -0.107400
      4 C4          3.3850    0.0000    1.4610 c3        1 4BS     -0.161400
      5 C5          3.6960    0.1210    2.9560 c         1 4BS      0.662100
      6 O6          2.7560    0.2160    3.7690 o         1 4BS     -0.602100
      7 N7          5.0270    0.0970    3.2970 n         1 4BS     -0.444100
      8 C9          5.5630    0.2480    4.5970 ca        1 4BS     -0.003400
      9 C10         4.7940    0.0560    5.7650 ca        1 4BS     -0.116500
     10 C11         5.3750    0.1930    7.0170 ca        1 4BS     -0.160000
     11 C12         6.7390    0.5220    7.1300 ca        1 4BS      0.131100
     12 C13         7.5140    0.7130    5.9790 ca        1 4BS     -0.160000
     13 C14         6.9290    0.5790    4.7240 ca        1 4BS     -0.116500
     14 O15         7.2000    0.6370    8.4220 os        1 4BS     -0.317900
     15 C16         8.6060    0.9050    8.5650 c3        1 4BS      0.176700
     16 C17         8.9070    0.9470   10.0250 ca        1 4BS     -0.103300
     17 C18        10.1350    0.4530   10.4820 ca        1 4BS     -0.110000
     18 C19        10.4520    0.5220   11.8380 ca        1 4BS     -0.129000
     19 C20         9.5450    1.0750   12.7420 ca        1 4BS     -0.118000
     20 C21         8.3180    1.5600   12.2890 ca        1 4BS     -0.129000
     21 C22         7.9990    1.4990   10.9330 ca        1 4BS     -0.110000
     22 HN1        -0.3510    0.7730   -0.0610 hn        1 4BS      0.463800
     23 HN1A       -0.3790   -0.8850    0.0740 hn        1 4BS      0.463800
     24 H2          1.9380   -1.0680   -0.6230 hx        1 4BS      0.111700
     25 H2A         1.9690    0.7610   -0.7730 hx        1 4BS      0.111700
     26 H3          1.4680    0.9600    1.7180 hc        1 4BS      0.091700
     27 H3A         1.4380   -0.8420    1.8650 hc        1 4BS      0.091700
     28 H4          3.8210   -0.9530    1.0620 hc        1 4BS      0.076200
     29 H4A         3.8520    0.8590    0.9120 hc        1 4BS      0.076200
     30 HN7         5.6960    0.0610    2.5610 hn        1 4BS      0.319500
     31 H10         3.7240   -0.1990    5.6990 ha        1 4BS      0.149000
     32 H11         4.7800    0.0450    7.9300 ha        1 4BS      0.154000
     33 H13         8.5800    0.9710    6.0470 ha        1 4BS      0.154000
     34 H14         7.5570    0.7350    3.8330 ha        1 4BS      0.149000
     35 H16         9.1900    0.0950    8.0520 h1        1 4BS      0.048700
     36 H16A        8.8370    1.8980    8.0920 h1        1 4BS      0.048700
     37 H18        10.8500    0.0090    9.7740 ha        1 4BS      0.137000
     38 H19        11.4190    0.1370   12.1940 ha        1 4BS      0.137000
     39 H20         9.7970    1.1260   13.8120 ha        1 4BS      0.137000
     40 H21         7.6000    1.9920   13.0020 ha        1 4BS      0.137000
     41 H22         7.0300    1.8740   10.5710 ha        1 4BS      0.137000
     42 H131       -0.1530   -0.1760   -1.4220 hn        1 4BS      0.463800
@<TRIPOS>BOND
     1    1    2 1   
     2    1   22 1   
     3    1   23 1   
     4    1   42 1   
     5    2    3 1   
     6    2   24 1   
     7    2   25 1   
     8    3    4 1   
     9    3   26 1   
    10    3   27 1   
    11    4    5 1   
    12    4   28 1   
    13    4   29 1   
    14    5    6 2   
    15    5    7 1   
    16    7    8 1   
    17    7   30 1   
    18    8    9 ar  
    19    8   13 ar  
    20    9   10 ar  
    21    9   31 1   
    22   10   11 ar  
    23   10   32 1   
    24   11   12 ar  
    25   11   14 1   
    26   12   13 ar  
    27   12   33 1   
    28   13   34 1   
    29   14   15 1   
    30   15   16 1   
    31   15   35 1   
    32   15   36 1   
    33   16   17 ar  
    34   16   21 ar  
    35   17   18 ar  
    36   17   37 1   
    37   18   19 ar  
    38   18   38 1   
    39   19   20 ar  
    40   19   39 1   
    41   20   21 ar  
    42   20   40 1   
    43   21   41 1   
@<TRIPOS>SUBSTRUCTURE
     1 4BS         1 TEMP              0 ****  ****    0 ROOT
