@<TRIPOS>MOLECULE
4BS
   41    42     1     0     0
SMALL
bcc


@<TRIPOS>ATOM
      1 N1         -7.9300    1.5550   -0.8320 n3        1 4BS     -0.917800
      2 C2         -7.4090    0.4700   -0.0360 c3        1 4BS      0.159800
      3 C3         -5.9050    0.2630   -0.2190 c3        1 4BS     -0.083400
      4 C4         -5.4190   -0.8110    0.7290 c3        1 4BS     -0.158400
      5 C5         -3.9670   -1.1840    0.4650 c         1 4BS      0.665100
      6 O6         -3.6730   -2.3270    0.0690 o         1 4BS     -0.592100
      7 N7         -3.0270   -0.1970    0.7140 n         1 4BS     -0.469100
      8 C9         -1.6360   -0.2710    0.5240 ca        1 4BS      0.036600
      9 C10        -0.9600   -1.4800    0.2400 ca        1 4BS     -0.136000
     10 C11         0.4170   -1.4960    0.0790 ca        1 4BS     -0.155000
     11 C12         1.1560   -0.3060    0.1980 ca        1 4BS      0.101100
     12 C13         0.5060    0.8990    0.4800 ca        1 4BS     -0.155000
     13 C14        -0.8760    0.9150    0.6400 ca        1 4BS     -0.136000
     14 O15         2.5180   -0.4480    0.0070 os        1 4BS     -0.325900
     15 C16         3.2950    0.7420    0.1980 c3        1 4BS      0.175700
     16 C17         4.7310    0.3910   -0.0090 ca        1 4BS     -0.093300
     17 C18         5.1120   -0.6500   -0.8610 ca        1 4BS     -0.113000
     18 C19         6.4630   -0.9310   -1.0580 ca        1 4BS     -0.131500
     19 C20         7.4390   -0.1740   -0.4100 ca        1 4BS     -0.126000
     20 C21         7.0610    0.8650    0.4410 ca        1 4BS     -0.131500
     21 C22         5.7120    1.1460    0.6460 ca        1 4BS     -0.113000
     22 HN1        -7.6890    1.4440   -1.7970 hn        1 4BS      0.352300
     23 HN1A       -8.9250    1.6040   -0.7430 hn        1 4BS      0.352300
     24 H2         -7.6120    0.7200    1.0450 h1        1 4BS      0.027700
     25 H2A        -7.9240   -0.5140   -0.2490 h1        1 4BS      0.027700
     26 H3         -5.6870   -0.0400   -1.2770 hc        1 4BS      0.054200
     27 H3A        -5.3650    1.2270   -0.0270 hc        1 4BS      0.054200
     28 H4         -5.5360   -0.4760    1.7930 hc        1 4BS      0.075200
     29 H4A        -6.0280   -1.7460    0.5970 hc        1 4BS      0.075200
     30 HN7        -3.3730    0.6970    0.9850 hn        1 4BS      0.315500
     31 H10        -1.5200   -2.4260    0.1410 ha        1 4BS      0.152500
     32 H11         0.9420   -2.4370   -0.1430 ha        1 4BS      0.144500
     33 H13         1.0650    1.8400    0.5770 ha        1 4BS      0.144500
     34 H14        -1.3670    1.8750    0.8610 ha        1 4BS      0.152500
     35 H16         2.9760    1.5140   -0.5560 h1        1 4BS      0.047200
     36 H16A        3.1230    1.1360    1.2360 h1        1 4BS      0.047200
     37 H18         4.3380   -1.2480   -1.3660 ha        1 4BS      0.139500
     38 H19         6.7580   -1.7530   -1.7270 ha        1 4BS      0.132500
     39 H20         8.5040   -0.3960   -0.5680 ha        1 4BS      0.131000
     40 H21         7.8290    1.4610    0.9550 ha        1 4BS      0.132500
     41 H22         5.4170    1.9610    1.3230 ha        1 4BS      0.139500
@<TRIPOS>BOND
     1    1    2 1   
     2    1   22 1   
     3    1   23 1   
     4    2    3 1   
     5    2   24 1   
     6    2   25 1   
     7    3    4 1   
     8    3   26 1   
     9    3   27 1   
    10    4    5 1   
    11    4   28 1   
    12    4   29 1   
    13    5    6 2   
    14    5    7 1   
    15    7    8 1   
    16    7   30 1   
    17    8    9 ar  
    18    8   13 ar  
    19    9   10 ar  
    20    9   31 1   
    21   10   11 ar  
    22   10   32 1   
    23   11   12 ar  
    24   11   14 1   
    25   12   13 ar  
    26   12   33 1   
    27   13   34 1   
    28   14   15 1   
    29   15   16 1   
    30   15   35 1   
    31   15   36 1   
    32   16   17 ar  
    33   16   21 ar  
    34   17   18 ar  
    35   17   37 1   
    36   18   19 ar  
    37   18   38 1   
    38   19   20 ar  
    39   19   39 1   
    40   20   21 ar  
    41   20   40 1   
    42   21   41 1   
@<TRIPOS>SUBSTRUCTURE
     1 4BS         1 TEMP              0 ****  ****    0 ROOT
