@<TRIPOS>MOLECULE
4BS
   41    38     1     0     0
SMALL
bcc


@<TRIPOS>ATOM
      1 N1         -1.5950   -3.7550   -6.8500 n3        1 4BS     -0.350000
      2 C2         -1.9080   -2.3920   -6.4450 c3        1 4BS     -0.077000
      3 C3         -1.3340   -2.1310   -5.0440 c3        1 4BS     -0.162000
      4 C4         -1.6050   -0.6710   -4.6380 c3        1 4BS     -0.187000
      5 C5         -1.1720   -0.4590   -3.1640 c2        1 4BS      0.309000
      6 O6         -0.6170   -1.3480   -2.5660 o         1 4BS     -0.355000
      7 N7         -1.4170    0.8090   -2.5090 n         1 4BS     -0.322000
      8 C9         -0.9940    1.0090   -1.1360 c2        1 4BS      0.042000
      9 C10        -1.6020    0.2890   -0.1070 c2        1 4BS     -0.120000
     10 C11        -1.1350    0.4160    1.2110 c1        1 4BS     -0.179000
     11 C12        -0.0650    1.2610    1.4900 c1        1 4BS      0.056000
     12 C13         0.5410    1.9780    0.4640 c1        1 4BS     -0.130000
     13 C14         0.0720    1.8500   -0.8570 c1        1 4BS     -0.151000
     14 O15         0.3700    1.4450    2.8500 os        1 4BS     -0.211000
     15 C16         1.3420    0.5110    3.2740 c3        1 4BS      0.017000
     16 C17         1.7890    0.8540    4.6870 c2        1 4BS     -0.086000
     17 C18         1.0250    0.4460    5.7720 c2        1 4BS     -0.101000
     18 C19         1.4720    0.6880    7.0650 c1        1 4BS     -0.132000
     19 C20         2.6900    1.3420    7.2740 c1        1 4BS     -0.128500
     20 C21         3.4530    1.7490    6.1880 c1        1 4BS     -0.128500
     21 C22         3.0050    1.5070    4.8940 c1        1 4BS     -0.124000
     22 HN1        -2.3560   -4.1520   -7.2350 hn        1 4BS      0.148000
     23 HN1A       -0.9090   -3.7420   -7.4660 hn        1 4BS      0.148000
     24 H2         -2.8930   -2.2700   -6.4280 h1        1 4BS      0.067000
     25 H2A        -1.5160   -1.7690   -7.0760 h1        1 4BS      0.067000
     26 H3         -1.7600   -2.7330   -4.3990 hc        1 4BS      0.093500
     27 H3A        -0.3690   -2.2930   -5.0530 hc        1 4BS      0.093500
     28 H4         -2.5590   -0.4790   -4.7270 hc        1 4BS      0.114000
     29 H4A        -1.0930   -0.0690   -5.2200 hc        1 4BS      0.114000
     30 HN7        -1.7670    1.5150   -2.9900 hn        1 4BS      0.230000
     31 H10        -2.3540   -0.3050   -0.3050 ha        1 4BS      0.175000
     32 H11        -1.5630   -0.0900    1.9350 ha        1 4BS      0.140000
     33 H13         1.2930    2.5720    0.6610 ha        1 4BS      0.150000
     34 H14         0.5020    2.3590   -1.5830 ha        1 4BS      0.131000
     35 H16         2.1240    0.5430    2.6620 h1        1 4BS      0.088000
     36 H16A        0.9590   -0.3830    3.2630 h1        1 4BS      0.088000
     37 H18         0.1730   -0.0100    5.6260 ha        1 4BS      0.148000
     38 H19         0.9280    0.3970    7.8390 ha        1 4BS      0.133000
     39 H20         3.0050    1.5120    8.1850 ha        1 4BS      0.131500
     40 H21         4.2980    2.2020    6.3320 ha        1 4BS      0.131500
     41 H22         3.5440    1.7950    4.1260 ha        1 4BS      0.131000
@<TRIPOS>BOND
     1    1    2 1   
     2    1   22 1   
     3    1   23 1   
     4    2    3 1   
     5    2   24 1   
     6    2   25 1   
     7    3    4 1   
     8    3   26 1   
     9    3   27 1   
    10    4    5 1   
    11    4   28 1   
    12    4   29 1   
    13    5    6 1   
    14    5    7 1   
    15    7    8 1   
    16    7   30 1   
    17    8    9 1   
    18    8   13 1   
    19    9   10 1   
    20    9   31 1   
    21   10   32 1   
    22   11   12 1   
    23   11   14 1   
    24   12   33 1   
    25   13   34 1   
    26   14   15 1   
    27   15   16 1   
    28   15   35 1   
    29   15   36 1   
    30   16   17 1   
    31   16   21 1   
    32   17   18 1   
    33   17   37 1   
    34   18   38 1   
    35   19   20 1   
    36   19   39 1   
    37   20   40 1   
    38   21   41 1   
@<TRIPOS>SUBSTRUCTURE
     1 4BS         1 TEMP              0 ****  ****    0 ROOT
