@<TRIPOS>MOLECULE
4BT
   36    36     1     0     0
SMALL
bcc


@<TRIPOS>ATOM
      1 CA         -0.0920   -0.0360   -3.7100 c3        1 4BT     -0.002300
      2 CB          1.0100   -0.1810   -2.6860 c3        1 4BT     -0.030100
      3 C4         -0.5380   -0.0360    1.3200 ca        1 4BT     -0.080800
      4 C5         -0.0780   -1.2440    0.7840 ca        1 4BT     -0.121750
      5 C6          0.4200   -1.2940   -0.5160 ca        1 4BT     -0.121750
      6 C1          0.4660   -0.1360   -1.3010 ca        1 4BT     -0.080800
      7 C2          0.0050    1.0720   -0.7640 ca        1 4BT     -0.121750
      8 C3         -0.4930    1.1220    0.5350 ca        1 4BT     -0.121750
      9 CC          0.0350   -0.0400    3.7270 c3        1 4BT     -0.002300
     10 N1'         0.1580    0.0110    7.7720 nh        1 4BT     -0.912800
     11 C'          0.6240   -0.0240    6.4480 c2        1 4BT      0.652100
     12 S'         -0.7470   -0.0890    5.3160 ss        1 4BT     -0.290300
     13 N2'         1.8840   -0.0610    6.1580 n2        1 4BT     -0.851600
     14 N1         -0.0680    0.3320   -7.7710 nh        1 4BT     -0.912800
     15 C          -0.5740    0.1810   -6.4680 c2        1 4BT      0.652100
     16 S           0.7170   -0.0340   -5.2900 ss        1 4BT     -0.290300
     17 N2         -1.8020    0.2480   -6.0640 n2        1 4BT     -0.851600
     18 HCA1       -0.8210   -0.8790   -3.6420 h1        1 4BT      0.078200
     19 HCA2       -0.6580    0.9150   -3.5570 h1        1 4BT      0.078200
     20 HCB1        1.7580    0.6490   -2.8150 hc        1 4BT      0.063700
     21 HCB2        1.5550   -1.1500   -2.8530 hc        1 4BT      0.063700
     22 H51        -0.1130   -2.1590    1.3930 ha        1 4BT      0.134750
     23 H61         0.7780   -2.2500   -0.9270 ha        1 4BT      0.134750
     24 H21         0.0360    1.9860   -1.3760 ha        1 4BT      0.134750
     25 H31        -0.8550    2.0770    0.9450 ha        1 4BT      0.134750
     26 HCD1       -1.7720   -0.8620    2.8640 hc        1 4BT      0.063700
     27 HCD2       -1.6830    0.9470    2.8530 hc        1 4BT      0.063700
     28 HCC1        0.6930    0.8590    3.6320 h1        1 4BT      0.078200
     29 HCC2        0.6640   -0.9490    3.5670 h1        1 4BT      0.078200
     30 H1'1        0.8490    0.1880    8.4700 hn        1 4BT      0.404550
     31 H1'2       -0.6760    0.5430    7.8890 hn        1 4BT      0.404550
     32 HN2'        2.1080   -0.2040    5.1990 hn        1 4BT      0.396900
     33 HN11       -0.6820    0.0910   -8.5160 hn        1 4BT      0.404550
     34 HN12        0.8700    0.0310   -7.9030 hn        1 4BT      0.404550
     35 HN21       -2.5100    0.3720   -6.7560 hn        1 4BT      0.396900
     36 CD         -1.0800    0.0100    2.7070 c3        1 4BT     -0.030100
@<TRIPOS>BOND
     1    1    2 1   
     2    1   16 1   
     3    1   18 1   
     4    1   19 1   
     5    2    6 1   
     6    2   20 1   
     7    2   21 1   
     8    3    4 ar  
     9    3    8 ar  
    10    3   36 1   
    11    4    5 ar  
    12    4   22 1   
    13    5    6 ar  
    14    5   23 1   
    15    6    7 ar  
    16    7    8 ar  
    17    7   24 1   
    18    8   25 1   
    19    9   12 1   
    20    9   28 1   
    21    9   29 1   
    22    9   36 1   
    23   10   11 1   
    24   10   30 1   
    25   10   31 1   
    26   11   12 1   
    27   11   13 2   
    28   13   32 1   
    29   14   15 1   
    30   14   33 1   
    31   14   34 1   
    32   15   16 1   
    33   15   17 2   
    34   17   35 1   
    35   26   36 1   
    36   27   36 1   
@<TRIPOS>SUBSTRUCTURE
     1 4BT         1 TEMP              0 ****  ****    0 ROOT
