@<TRIPOS>MOLECULE
4BT
   38    55     1     0     0
SMALL
bcc


@<TRIPOS>ATOM
      1 CA          0.0000    0.0000    0.0000 DU        1 4BT     -0.103000
      2 CB          1.5290    0.0000    0.0000 DU        1 4BT      0.315000
      3 C4          2.9540    1.3450    3.7940 DU        1 4BT     -0.400000
      4 C5          2.7230    0.0000    3.5810 c2        1 4BT     -0.029000
      5 C6          2.2620   -0.4360    2.3530 c2        1 4BT      0.246000
      6 C1          2.0320    0.4740    1.3400 c3        1 4BT     -0.379000
      7 C2          2.2620    1.8200    1.5540 c3        1 4BT     -0.134000
      8 C3          2.7190    2.2560    2.7830 c3        1 4BT      0.165000
      9 CC          4.9860    1.8190    5.1340 c3        1 4BT     -0.231000
     10 N1'         8.2020    2.6460    7.4710 nz        1 4BT      0.353000
     11 C'          7.3270    2.2920    6.4700 c3        1 4BT      0.718000
     12 S'          5.5900    2.3890    6.7420 ss        1 4BT      0.311000
     13 N2'         7.7850    1.8820    5.3190 n2        1 4BT      0.280000
     14 N1         -3.2150   -0.8280   -2.3380 nz        1 4BT      0.321000
     15 S          -0.6030   -0.5710   -1.6080 s4        1 4BT      0.214000
     16 N2         -2.7980   -0.0650   -0.1850 n2        1 4BT     -0.275000
     17 HCA1        0.5990    0.3020    0.8510 DU        1 4BT      0.105667
     18 HCA2       -0.9000   -0.2230   -0.5600 DU        1 4BT      0.281000
     19 HCB1        0.5770   -0.3350    0.3930 DU        1 4BT      0.105667
     20 HCB2        0.5770    0.5080    0.0940 DU        1 4BT      0.105667
     21 H51         2.4970   -0.2740    2.5570 ha        1 4BT     -0.222000
     22 H61         2.1420   -0.0780    1.3370 ha        1 4BT      0.123000
     23 H21         2.4320    1.1080    2.3520 DU        1 4BT      0.426000
     24 H31         2.5500    1.2000    2.6110 DU        1 4BT     -0.170000
     25 HCD1        3.1430    1.9860    4.1100 DU        1 4BT      0.117000
     26 HCD2        3.1610    2.3850    4.2580 DU        1 4BT      0.117000
     27 HCC1        4.0860    2.3990    5.2990 DU        1 4BT      0.040000
     28 HCC2        4.0860    1.4730    5.6270 DU        1 4BT      0.040000
     29 H1'1        7.5250    2.6080    6.7350 DU        1 4BT     -0.054000
     30 H1'2        7.5250    2.2120    6.8750 DU        1 4BT     -0.470500
     31 HN2'        8.0680    2.4730    6.0760 DU        1 4BT      0.204000
     32 HN11       -2.4630   -0.6660   -1.6970 hn        1 4BT     -0.273333
     33 HN12       -2.3620   -0.7350   -1.8220 hn        1 4BT     -0.273333
     34 HN21       -2.9360   -0.1480   -1.1730 DU        1 4BT      0.237000
     35 H1'3        7.4640    2.3300    6.8730 DU        1 4BT     -0.470500
     36 H13        -2.3970   -0.3490   -2.6600 hn        1 4BT     -0.273333
     37 CD          3.4570    1.8200    5.1340 DU        1 4BT      0.358000
     38 C          -2.3400   -0.4730   -1.3370 c3        1 4BT      0.572000
@<TRIPOS>BOND
     1    1    2 1   
     2    1   15 1   
     3    1   17 1   
     4    1   18 1   
     5    1   19 1   
     6    1   20 1   
     7    2    6 1   
     8    2   17 1   
     9    2   19 1   
    10    2   20 1   
    11    3    4 1   
    12    3    8 1   
    13    3   24 1   
    14    3   25 1   
    15    3   26 1   
    16    3   37 1   
    17    4    5 1   
    18    4   21 1   
    19    5    6 1   
    20    5   22 1   
    21    6    7 1   
    22    6   23 1   
    23    7    8 1   
    24    7   23 1   
    25    7   24 1   
    26    8   23 1   
    27    8   24 1   
    28    9   12 1   
    29    9   27 1   
    30    9   28 1   
    31    9   37 1   
    32   10   11 1   
    33   10   29 1   
    34   10   30 1   
    35   10   35 1   
    36   11   12 1   
    37   11   13 1   
    38   11   31 1   
    39   13   31 1   
    40   14   32 1   
    41   14   33 1   
    42   14   36 1   
    43   14   38 1   
    44   15   18 1   
    45   15   38 1   
    46   16   34 1   
    47   16   38 1   
    48   25   26 1   
    49   25   37 1   
    50   26   37 1   
    51   27   37 1   
    52   28   37 1   
    53   29   30 1   
    54   29   35 1   
    55   34   38 1   
@<TRIPOS>SUBSTRUCTURE
     1 4BT         1 TEMP              0 ****  ****    0 ROOT
