@<TRIPOS>MOLECULE
4BT
   36    35     1     0     0
SMALL
bcc


@<TRIPOS>ATOM
      1 CA         -1.2460    0.1890    0.4590 c3        1 4BT      0.042900
      2 CB         -0.0550    1.0550    0.5330 c2        1 4BT     -0.181200
      3 C4          4.0080    1.9010    3.0810 ce        1 4BT      0.016100
      4 C5          2.7090    1.8050    2.7400 c2        1 4BT     -0.138200
      5 C6          2.2160    1.6400    1.3510 c3        1 4BT     -0.028000
      6 C1          1.0120    0.7730    1.2880 c2        1 4BT     -0.136200
      7 C2          5.9500    1.7710    1.3450 c1        1 4BT     -0.139500
      8 C3          5.0550    1.8280    2.1380 cg        1 4BT     -0.165300
      9 CC          5.1890    0.9350    5.0410 c3        1 4BT      0.004700
     10 N1'         6.9600    2.2900    8.4810 nh        1 4BT     -0.937800
     11 C'          6.7730    2.0850    7.1020 c2        1 4BT      0.643100
     12 S'          5.4290    0.9890    6.7900 ss        1 4BT     -0.249300
     13 N2'         7.4020    2.6310    6.1120 n2        1 4BT     -0.858100
     14 N1         -2.8200   -2.0830   -2.5420 nh        1 4BT     -0.938800
     15 C          -2.7330   -1.4030   -1.3150 c2        1 4BT      0.643100
     16 S          -1.2610   -0.4450   -1.2040 ss        1 4BT     -0.246300
     17 N2         -3.5370   -1.4610   -0.3020 n2        1 4BT     -0.863100
     18 HCA1        1.0570   -0.1430    1.9000 ha        1 4BT      0.129000
     19 HCA2       -2.1770    0.7770    0.6580 h1        1 4BT      0.085700
     20 HCB1       -1.2120   -0.6530    1.1930 h1        1 4BT      0.085700
     21 HCB2       -0.1000    1.9750   -0.0740 ha        1 4BT      0.133000
     22 H51         3.0170    1.1870    0.7010 hc        1 4BT      0.066200
     23 H61         1.9280    1.8680    3.5170 ha        1 4BT      0.132000
     24 H21         1.9920    2.6600    0.9280 hc        1 4BT      0.066200
     25 H31         6.7470    1.7220    0.6470 ha        1 4BT      0.166500
     26 HCD1        5.0620    3.0410    4.5590 hc        1 4BT      0.067700
     27 HCD2        3.5120    2.3000    5.1400 hc        1 4BT      0.067700
     28 HCC1        4.6010   -0.0100    4.9010 h1        1 4BT      0.089200
     29 HCC2        6.1580    0.8290    4.4950 h1        1 4BT      0.089200
     30 H1'1        6.5260    1.6200    9.0740 hn        1 4BT      0.401800
     31 H1'2        7.8740    2.5570    8.7690 hn        1 4BT      0.401800
     32 HN2'        8.1600    3.2420    6.3280 hn        1 4BT      0.392400
     33 HN11       -2.2270   -1.7420   -3.2640 hn        1 4BT      0.401800
     34 HN12       -3.7330   -2.3320   -2.8490 hn        1 4BT      0.401800
     35 HN21       -4.3610   -2.0140   -0.3980 hn        1 4BT      0.391400
     36 CD          4.4200    2.1190    4.5040 c3        1 4BT     -0.037200
@<TRIPOS>BOND
     1    1    2 1   
     2    1   16 1   
     3    1   19 1   
     4    1   20 1   
     5    2    6 2   
     6    2   21 1   
     7    3    4 2   
     8    3    8 1   
     9    3   36 1   
    10    4    5 1   
    11    4   23 1   
    12    5    6 1   
    13    5   22 1   
    14    5   24 1   
    15    6   18 1   
    16    7    8 3   
    17    7   25 1   
    18    9   12 1   
    19    9   28 1   
    20    9   29 1   
    21    9   36 1   
    22   10   11 1   
    23   10   30 1   
    24   10   31 1   
    25   11   12 1   
    26   11   13 2   
    27   13   32 1   
    28   14   15 1   
    29   14   33 1   
    30   14   34 1   
    31   15   16 1   
    32   15   17 2   
    33   17   35 1   
    34   26   36 1   
    35   27   36 1   
@<TRIPOS>SUBSTRUCTURE
     1 4BT         1 TEMP              0 ****  ****    0 ROOT
