@<TRIPOS>MOLECULE
4BT
   38    34     1     0     0
SMALL
bcc


@<TRIPOS>ATOM
      1 CA         -3.0930    0.7240   -1.0710 c3        1 4BT     -0.361000
      2 CB         -0.2060    0.1030    0.6490 c1        1 4BT      0.177000
      3 C4          5.5010    0.1440    4.8030 c2        1 4BT     -0.175000
      4 C5          5.8170   -1.1210    4.6420 c1        1 4BT     -0.067000
      5 C6          6.0940   -2.3730    4.4670 c2        1 4BT     -0.159000
      6 C1          0.7270   -0.0350    1.5670 c2        1 4BT     -0.379000
      7 C2          1.6490    0.9680    2.0420 c2        1 4BT     -0.379000
      8 C3          2.5560    0.8020    2.9860 c1        1 4BT      0.177000
      9 CC          6.0310    2.3770    5.6660 c2        1 4BT     -0.226000
     10 N1'         7.4480    3.0740    9.3260 n4        1 4BT     -0.195000
     11 C'          6.9260    3.3080    6.3560 c2        1 4BT      0.006000
     12 S'          6.6890    2.4430    7.9030 ss        1 4BT      0.087000
     13 N2'         7.5470    4.3080    5.9290 n2        1 4BT     -0.161000
     14 N1         -4.4960   -0.8850   -4.6110 n4        1 4BT     -0.106000
     15 S          -4.1470   -0.2600   -2.0610 ss        1 4BT      0.307000
     16 N2         -2.5110    0.4900   -4.0320 n2        1 4BT     -0.192000
     17 HCA1        0.8150   -1.0450    2.0340 ha        1 4BT      0.197000
     18 HCA2       -3.0020    1.7700   -1.4410 h1        1 4BT      0.152667
     19 HCB1       -2.0680    0.2930   -0.9450 h1        1 4BT      0.152667
     20 HCB2       -3.6080    0.7280   -0.0750 h1        1 4BT      0.152667
     21 H51         6.6190   -2.7410    3.5690 ha        1 4BT      0.167500
     22 H61         5.8230   -3.1490    5.2030 ha        1 4BT      0.167500
     23 H21         1.5760    1.9670    1.5590 ha        1 4BT      0.197000
     24 H31         4.5280    0.5250    4.4200 ha        1 4BT      0.187000
     25 HCD1        3.8670    2.6830    3.4330 ha        1 4BT      0.008500
     26 HCD2        3.3520    2.9940    3.1160 ha        1 4BT      0.008500
     27 HCC1        5.0620    2.7940    5.3410 ha        1 4BT      0.190000
     28 HCC2        7.3830    0.7080    5.7470 ha        1 4BT      0.149000
     29 H1'1        7.1230    4.0120    9.5590 hn        1 4BT      0.254333
     30 H1'2        8.4660    3.0900    9.2570 hn        1 4BT      0.254333
     31 HN2'        8.0890    4.9030    6.5120 hn        1 4BT      0.205000
     32 HN11       -4.8090   -0.2800   -5.3770 hn        1 4BT      0.260333
     33 HN12       -5.3210   -1.2030   -4.0860 hn        1 4BT      0.260333
     34 HN21       -2.1840    0.5710   -4.9690 hn        1 4BT      0.223000
     35 H1'3        7.1940    2.4510   10.0990 hn        1 4BT      0.254333
     36 H13        -4.0220   -1.7030   -5.0060 hn        1 4BT      0.260333
     37 CD          6.3840    1.0820    5.4480 c2        1 4BT      0.057000
     38 C          -3.5580   -0.1320   -3.6770 c2        1 4BT     -0.116000
@<TRIPOS>BOND
     1    1   15 1   
     2    1   18 1   
     3    1   19 1   
     4    1   20 1   
     5    2    6 1   
     6    3    4 1   
     7    3   24 1   
     8    3   37 1   
     9    4    5 1   
    10    5   21 1   
    11    5   22 1   
    12    6    7 1   
    13    6   17 1   
    14    7    8 1   
    15    7   23 1   
    16    9   11 1   
    17    9   27 1   
    18    9   37 1   
    19   10   12 1   
    20   10   29 1   
    21   10   30 1   
    22   10   35 1   
    23   11   12 1   
    24   11   13 1   
    25   13   31 1   
    26   14   32 1   
    27   14   33 1   
    28   14   36 1   
    29   14   38 1   
    30   15   38 1   
    31   16   34 1   
    32   16   38 1   
    33   25   26 1   
    34   28   37 1   
@<TRIPOS>SUBSTRUCTURE
     1 4BT         1 TEMP              0 ****  ****    0 ROOT
