@<TRIPOS>MOLECULE
4BT
   36    31     1     0     0
SMALL
bcc


@<TRIPOS>ATOM
      1 CA         -1.2500    1.0880   -3.0800 c3        1 4BT     -0.253500
      2 CB         -2.2090    0.0960   -2.4590 c3        1 4BT     -0.119000
      3 C4         -0.6420   -1.1280    1.3360 c1        1 4BT     -0.071000
      4 C5         -1.2740    0.1000    1.2100 c1        1 4BT     -0.122000
      5 C6         -1.7910    0.4900   -0.0150 c1        1 4BT     -0.122000
      6 C1         -1.6770   -0.3460   -1.1140 c1        1 4BT     -0.071000
      7 C2         -1.0450   -1.5730   -0.9880 c1        1 4BT     -0.121500
      8 C3         -0.5270   -1.9640    0.2370 c1        1 4BT     -0.121500
      9 CD         -0.0200   -1.5260    2.6560 c3        1 4BT     -0.119000
     10 CC          1.4870   -1.4370    2.5510 c3        1 4BT     -0.253500
     11 N1'         4.3000   -3.2400    4.4960 n3        1 4BT     -0.376500
     12 C'          3.8990   -1.9490    4.0680 c2        1 4BT     -0.018000
     13 S'          2.1950   -1.4690    4.1760 ss        1 4BT      0.149000
     14 N2'         4.7850   -1.1120    3.5950 n1        1 4BT     -0.326000
     15 N1         -2.5360    4.7520   -3.9930 n3        1 4BT     -0.376500
     16 C          -1.5800    3.7290   -4.2200 c2        1 4BT     -0.018000
     17 S          -2.0970    2.0360   -4.3150 ss        1 4BT      0.149000
     18 N2         -0.3160    4.0350   -4.3590 n1        1 4BT     -0.326000
     19 HCA1       -0.5050    0.6070   -3.4920 h1        1 4BT      0.124500
     20 HCA2       -0.9070    1.6880   -2.3870 h1        1 4BT      0.124500
     21 HCB1       -3.0830    0.5180   -2.3410 hc        1 4BT      0.100000
     22 HCB2       -2.2990   -0.6820   -3.0460 hc        1 4BT      0.100000
     23 H51        -1.3540    0.6890    1.9840 ha        1 4BT      0.133500
     24 H61        -2.2360    1.3540   -0.1030 ha        1 4BT      0.133500
     25 H21        -0.9640   -2.1620   -1.7620 ha        1 4BT      0.134500
     26 H31        -0.0820   -2.8280    0.3250 ha        1 4BT      0.134500
     27 HCD1       -0.3340   -0.9230    3.3600 hc        1 4BT      0.100000
     28 HCD2       -0.2780   -2.4430    2.8750 hc        1 4BT      0.100000
     29 HCC1        1.8230   -2.1960    2.0340 h1        1 4BT      0.124500
     30 HCC2        1.7340   -0.6020    2.1040 h1        1 4BT      0.124500
     31 H1'1        3.6740   -3.8450    4.7740 hn        1 4BT      0.197250
     32 H1'2        5.1860   -3.4650    4.5020 hn        1 4BT      0.197250
     33 HN2'        5.6620   -1.3600    3.5390 DU        1 4BT      0.148000
     34 HN11       -2.3400    5.6180   -4.2100 hn        1 4BT      0.197250
     35 HN12       -3.3500    4.5450   -3.6300 hn        1 4BT      0.197250
     36 HN21       -0.0500    4.9070   -4.3100 DU        1 4BT      0.148000
@<TRIPOS>BOND
     1    1    2 1   
     2    1   17 1   
     3    1   19 1   
     4    1   20 1   
     5    2    6 1   
     6    2   21 1   
     7    2   22 1   
     8    3    8 1   
     9    3    9 1   
    10    4    5 1   
    11    4   23 1   
    12    5   24 1   
    13    6    7 1   
    14    7   25 1   
    15    8   26 1   
    16    9   10 1   
    17    9   27 1   
    18    9   28 1   
    19   10   13 1   
    20   10   29 1   
    21   10   30 1   
    22   11   12 1   
    23   11   31 1   
    24   11   32 1   
    25   12   13 1   
    26   12   14 1   
    27   15   16 1   
    28   15   34 1   
    29   15   35 1   
    30   16   17 1   
    31   16   18 1   
@<TRIPOS>SUBSTRUCTURE
     1 4BT         1 TEMP              0 ****  ****    0 ROOT
