@<TRIPOS>MOLECULE
4BU
   49    50     1     0     0
SMALL
bcc


@<TRIPOS>ATOM
      1 O9         -0.4570   -1.1660    0.7910 o         1 4BU     -0.438100
      2 C8          0.7090   -0.8790    0.5510 c         1 4BU      0.560100
      3 C7          1.9060   -1.7000    0.9710 c3        1 4BU     -0.150400
      4 C6          1.9890   -1.7980    2.4870 c3        1 4BU     -0.084400
      5 C4          2.7490   -0.6170    3.1010 c3        1 4BU     -0.042500
      6 N5          2.3140   -0.3250    4.5020 n4        1 4BU     -0.825600
      7 C2          2.4860    0.6600    2.2230 c         1 4BU      0.892600
      8 O3          1.4120    1.2800    2.4530 o         1 4BU     -0.779800
      9 O1          3.3010    0.8850    1.2990 o         1 4BU     -0.779800
     10 N10         0.9640    0.4060   -0.1920 n4        1 4BU     -0.532200
     11 C12         0.4010    0.4130   -1.5370 ca        1 4BU     -0.111400
     12 C13         1.2680    0.4550   -2.6500 ca        1 4BU     -0.055500
     13 C14         0.7430    0.4820   -3.9290 ca        1 4BU     -0.176500
     14 C15        -0.6600    0.4710   -4.1150 ca        1 4BU      0.199100
     15 C16        -1.5210    0.4360   -3.0060 ca        1 4BU     -0.176500
     16 C17        -0.9930    0.4070   -1.7210 ca        1 4BU     -0.055500
     17 O18        -1.0640    0.5080   -5.4170 os        1 4BU     -0.305900
     18 C19        -2.4800    0.3950   -5.6610 c3        1 4BU      0.124400
     19 C20        -2.6120    0.2280   -7.1830 c3        1 4BU      0.191400
     20 O21        -2.5630   -1.1740   -7.4150 oh        1 4BU     -0.599800
     21 C23        -3.8920    0.8460   -7.6610 ca        1 4BU     -0.151300
     22 C24        -5.0610    0.0840   -7.7570 ca        1 4BU     -0.116000
     23 C25        -6.2420    0.6700   -8.2110 ca        1 4BU     -0.126500
     24 C26        -6.2610    2.0180   -8.5690 ca        1 4BU     -0.112000
     25 C27        -5.0960    2.7800   -8.4750 ca        1 4BU     -0.126500
     26 C28        -3.9130    2.1970   -8.0240 ca        1 4BU     -0.116000
     27 H7          1.7470   -2.7310    0.5440 hc        1 4BU      0.119700
     28 H7A         2.8720   -1.2980    0.5550 hc        1 4BU      0.119700
     29 H6          0.9480   -1.8750    2.9030 hc        1 4BU      0.079700
     30 H6A         2.5270   -2.7510    2.7430 hc        1 4BU      0.079700
     31 H4          3.8550   -0.8330    3.1110 hx        1 4BU      0.122700
     32 HN5         3.0500    0.1990    4.9820 hn        1 4BU      0.460800
     33 HN5A        2.1020   -1.1780    5.0170 hn        1 4BU      0.460800
     34 HN10        0.5510    1.1750    0.3740 hn        1 4BU      0.495300
     35 H13         2.3630    0.4730   -2.5190 ha        1 4BU      0.160000
     36 H14         1.4010    0.5150   -4.8120 ha        1 4BU      0.174000
     37 H16        -2.6140    0.4350   -3.1390 ha        1 4BU      0.174000
     38 H17        -1.6760    0.3690   -0.8550 ha        1 4BU      0.160000
     39 H19        -2.8900   -0.5030   -5.1320 h1        1 4BU      0.068700
     40 H19A       -2.9800    1.3360   -5.3160 h1        1 4BU      0.068700
     41 H20        -1.7320    0.7170   -7.6930 h1        1 4BU      0.068700
     42 HO21       -2.7150   -1.3090   -8.3590 ho        1 4BU      0.420000
     43 H24        -5.0410   -0.9810   -7.4760 ha        1 4BU      0.139500
     44 H25        -7.1590    0.0660   -8.2880 ha        1 4BU      0.141500
     45 H26        -7.1930    2.4790   -8.9300 ha        1 4BU      0.142000
     46 H27        -5.1080    3.8420   -8.7620 ha        1 4BU      0.141500
     47 H28        -2.9940    2.7980   -7.9590 ha        1 4BU      0.139500
     48 H53         1.4700    0.2750    4.4440 hn        1 4BU      0.460800
     49 H102        1.9860    0.5900   -0.2350 hn        1 4BU      0.495300
@<TRIPOS>BOND
     1    1    2 2   
     2    2    3 1   
     3    2   10 1   
     4    3    4 1   
     5    3   27 1   
     6    3   28 1   
     7    4    5 1   
     8    4   29 1   
     9    4   30 1   
    10    5    6 1   
    11    5    7 1   
    12    5   31 1   
    13    6   32 1   
    14    6   33 1   
    15    6   48 1   
    16    7    8 1   
    17    7    9 1   
    18   10   11 1   
    19   10   34 1   
    20   10   49 1   
    21   11   12 ar  
    22   11   16 ar  
    23   12   13 ar  
    24   12   35 1   
    25   13   14 ar  
    26   13   36 1   
    27   14   15 ar  
    28   14   17 1   
    29   15   16 ar  
    30   15   37 1   
    31   16   38 1   
    32   17   18 1   
    33   18   19 1   
    34   18   39 1   
    35   18   40 1   
    36   19   20 1   
    37   19   21 1   
    38   19   41 1   
    39   20   42 1   
    40   21   22 ar  
    41   21   26 ar  
    42   22   23 ar  
    43   22   43 1   
    44   23   24 ar  
    45   23   44 1   
    46   24   25 ar  
    47   24   45 1   
    48   25   26 ar  
    49   25   46 1   
    50   26   47 1   
@<TRIPOS>SUBSTRUCTURE
     1 4BU         1 TEMP              0 ****  ****    0 ROOT
