@<TRIPOS>MOLECULE
4BU
   48    49     1     0     0
SMALL
bcc


@<TRIPOS>ATOM
      1 O9          0.3160   -0.8510    0.5280 o         1 4BU     -0.676100
      2 C8          1.5370   -0.7760    0.2500 c         1 4BU      0.668100
      3 C7          2.5790   -0.9600    1.3450 c3        1 4BU     -0.167400
      4 C6          2.5380    0.1700    2.3540 c3        1 4BU     -0.086400
      5 C4          1.5650   -0.0530    3.4940 c3        1 4BU     -0.076500
      6 N5          0.1340    0.0440    3.0880 nz        1 4BU     -0.820600
      7 C2          1.8490    1.0030    4.6760 c         1 4BU      0.937600
      8 O3          3.0490    1.1950    4.9340 o         1 4BU     -0.761300
      9 O1          0.8140    1.4820    5.2040 o         1 4BU     -0.761300
     10 N10         1.9930   -0.5440   -1.0270 ns        1 4BU     -0.445100
     11 C12         1.2080   -0.3200   -2.1780 ca        1 4BU      0.008600
     12 C13         1.8090    0.3270   -3.2870 ca        1 4BU     -0.120000
     13 C14         1.0900    0.5480   -4.4500 ca        1 4BU     -0.159500
     14 C15        -0.2530    0.1330   -4.5310 ca        1 4BU      0.120100
     15 C16        -0.8590   -0.5040   -3.4450 ca        1 4BU     -0.159500
     16 C17        -0.1330   -0.7330   -2.2780 ca        1 4BU     -0.120000
     17 O18        -0.8780    0.4240   -5.7260 os        1 4BU     -0.329900
     18 C19        -2.2000   -0.1080   -5.8830 c3        1 4BU      0.131400
     19 C20        -2.5950    0.2110   -7.3350 c3        1 4BU      0.185400
     20 O21        -2.4050   -0.9990   -8.0590 oh        1 4BU     -0.595800
     21 C23        -4.0120    0.6980   -7.4080 ca        1 4BU     -0.136300
     22 C24        -5.0610   -0.1850   -7.6850 ca        1 4BU     -0.116500
     23 C25        -6.3720    0.2850   -7.7530 ca        1 4BU     -0.130000
     24 C26        -6.6420    1.6370   -7.5430 ca        1 4BU     -0.122000
     25 C27        -5.5980    2.5210   -7.2650 ca        1 4BU     -0.130000
     26 C28        -4.2860    2.0540   -7.1990 ca        1 4BU     -0.116500
     27 H7          3.6150   -1.0300    0.9200 hc        1 4BU      0.074200
     28 H7A         2.3610   -1.9420    1.8440 hc        1 4BU      0.074200
     29 H6          3.5510    0.2690    2.8440 hc        1 4BU      0.093700
     30 H6A         2.3330    1.1470    1.8410 hc        1 4BU      0.093700
     31 H4          1.7190   -1.0720    3.9470 hx        1 4BU      0.085700
     32 HN5         0.0370    0.6990    2.3100 hn        1 4BU      0.450467
     33 HN5A       -0.2300   -0.8580    2.7840 hn        1 4BU      0.450467
     34 HN10        2.9770   -0.4490   -1.1570 hn        1 4BU      0.324500
     35 H13         2.8570    0.6590   -3.2400 ha        1 4BU      0.150000
     36 H14         1.5540    1.0460   -5.3140 ha        1 4BU      0.149000
     37 H16        -1.9070   -0.8340   -3.4930 ha        1 4BU      0.149000
     38 H17        -0.6290   -1.2370   -1.4320 ha        1 4BU      0.150000
     39 H19        -2.8900    0.4020   -5.1620 h1        1 4BU      0.060700
     40 H19A       -2.1940   -1.2160   -5.7140 h1        1 4BU      0.060700
     41 H20        -1.9000    1.0020   -7.7460 h1        1 4BU      0.066700
     42 HO21       -2.6390   -0.8140   -8.9760 ho        1 4BU      0.409000
     43 H24        -4.8430   -1.2520   -7.8470 ha        1 4BU      0.141000
     44 H25        -7.1930   -0.4130   -7.9710 ha        1 4BU      0.135000
     45 H26        -7.6760    2.0070   -7.5960 ha        1 4BU      0.135000
     46 H27        -5.8090    3.5870   -7.1000 ha        1 4BU      0.135000
     47 H28        -3.4640    2.7520   -6.9810 ha        1 4BU      0.141000
     48 H53        -0.3840    0.4120    3.9100 hn        1 4BU      0.450467
@<TRIPOS>BOND
     1    1    2 2   
     2    2    3 1   
     3    2   10 1   
     4    3    4 1   
     5    3   27 1   
     6    3   28 1   
     7    4    5 1   
     8    4   29 1   
     9    4   30 1   
    10    5    6 1   
    11    5    7 1   
    12    5   31 1   
    13    6   32 1   
    14    6   33 1   
    15    6   48 1   
    16    7    8 1   
    17    7    9 1   
    18   10   11 1   
    19   10   34 1   
    20   11   12 ar  
    21   11   16 ar  
    22   12   13 ar  
    23   12   35 1   
    24   13   14 ar  
    25   13   36 1   
    26   14   15 ar  
    27   14   17 1   
    28   15   16 ar  
    29   15   37 1   
    30   16   38 1   
    31   17   18 1   
    32   18   19 1   
    33   18   39 1   
    34   18   40 1   
    35   19   20 1   
    36   19   21 1   
    37   19   41 1   
    38   20   42 1   
    39   21   22 ar  
    40   21   26 ar  
    41   22   23 ar  
    42   22   43 1   
    43   23   24 ar  
    44   23   44 1   
    45   24   25 ar  
    46   24   45 1   
    47   25   26 ar  
    48   25   46 1   
    49   26   47 1   
@<TRIPOS>SUBSTRUCTURE
     1 4BU         1 TEMP              0 ****  ****    0 ROOT
