@<TRIPOS>MOLECULE
4BU
   47    43     1     0     0
SMALL
bcc


@<TRIPOS>ATOM
      1 O9          1.8710   -0.9930    2.3900 o         1 4BU     -0.384000
      2 C8          1.2580   -0.6330    3.3250 c1        1 4BU      0.312000
      3 C7          1.9590   -0.4030    4.6440 c2        1 4BU     -0.176000
      4 C6          3.0260    0.6600    4.4730 c3        1 4BU     -0.156000
      5 C4          3.9390    0.6830    5.7300 c3        1 4BU     -0.130000
      6 N5          3.5470    1.7390    6.5710 n3        1 4BU     -0.325000
      7 C2          5.3610    0.8830    5.3140 c2        1 4BU      0.308000
      8 O3          5.6890    1.9150    4.6650 o         1 4BU     -0.573500
      9 O1          6.2180   -0.0090    5.5510 o         1 4BU     -0.573500
     10 N10        -0.1580   -0.4840    3.2350 n3        1 4BU     -0.327000
     11 C12        -0.8280   -0.7740    2.0050 c2        1 4BU      0.098000
     12 C13        -0.0890   -1.1600    0.8890 c2        1 4BU     -0.160000
     13 C14        -0.7150   -1.3560   -0.3170 c1        1 4BU     -0.110000
     14 C15        -2.0650   -1.1740   -0.4260 c1        1 4BU     -0.007000
     15 C16        -2.8080   -0.7870    0.6880 c1        1 4BU     -0.124000
     16 C17        -2.1780   -0.5900    1.9010 c1        1 4BU     -0.180000
     17 O18        -2.7040   -1.3080   -1.7030 os        1 4BU     -0.246000
     18 C19        -2.1600   -0.4210   -2.7450 c3        1 4BU     -0.055000
     19 C20        -3.0540   -0.4650   -3.9470 c3        1 4BU      0.070000
     20 O21        -4.1750    0.3510   -3.7240 oh        1 4BU     -0.333000
     21 C23        -2.2960    0.0270   -5.1700 c2        1 4BU     -0.078000
     22 C24        -1.6720   -0.9080   -6.0330 c2        1 4BU     -0.127000
     23 C25        -0.9100   -0.4690   -7.0890 c1        1 4BU     -0.134000
     24 C26        -0.7490    0.8930   -7.3150 c1        1 4BU     -0.133000
     25 C27        -1.3620    1.8200   -6.4680 c1        1 4BU     -0.133000
     26 C28        -2.1390    1.3760   -5.3910 c1        1 4BU     -0.098000
     27 H7          1.3140   -0.1100    5.3030 ha        1 4BU      0.120000
     28 H7A         2.3870   -1.2610    4.9510 ha        1 4BU      0.120000
     29 H6          2.6050    1.5270    4.3650 hc        1 4BU      0.093500
     30 H6A         3.5730    0.4540    3.6680 hc        1 4BU      0.093500
     31 H4          3.8550   -0.1820    6.2180 h1        1 4BU      0.081000
     32 HN5         4.2630    2.3100    6.6990 hn        1 4BU      0.130000
     33 HN5A        3.2720    1.4000    7.3870 hn        1 4BU      0.130000
     34 HN10       -0.6230   -0.1700    3.9380 hn        1 4BU      0.250000
     35 H13         0.8660   -1.2890    0.9630 ha        1 4BU      0.178000
     36 H14        -0.2020   -1.6230   -1.0880 ha        1 4BU      0.138000
     37 H16        -3.7870   -0.6550    0.6090 ha        1 4BU      0.135000
     38 H17        -2.7000   -0.3800    2.6920 ha        1 4BU      0.142000
     39 H19        -1.2680   -0.7190   -2.9920 h1        1 4BU      0.089000
     40 H19A       -2.1160    0.4660   -2.4140 h1        1 4BU      0.089000
     41 H20        -3.3400   -1.3650   -4.0960 h1        1 4BU      0.093000
     42 HO21       -4.8820   -0.1100   -3.8210 ho        1 4BU      0.223000
     43 H24        -1.7930   -1.9190   -5.8720 ha        1 4BU      0.132000
     44 H25        -0.4700   -1.1290   -7.6940 ha        1 4BU      0.128000
     45 H26        -0.1790    1.2170   -8.1010 ha        1 4BU      0.127500
     46 H27        -1.2550    2.8010   -6.6390 ha        1 4BU      0.127500
     47 H28        -2.3220    2.3240   -5.1270 ha        1 4BU      0.154000
@<TRIPOS>BOND
     1    1    2 1   
     2    2   10 1   
     3    3    4 1   
     4    3   27 1   
     5    3   28 1   
     6    4    5 1   
     7    4   29 1   
     8    4   30 1   
     9    5    6 1   
    10    5    7 1   
    11    5   31 1   
    12    6   32 1   
    13    6   33 1   
    14    7    8 1   
    15    7    9 1   
    16   10   11 1   
    17   10   34 1   
    18   11   12 1   
    19   11   16 1   
    20   12   13 1   
    21   12   35 1   
    22   13   36 1   
    23   14   15 1   
    24   14   17 1   
    25   15   37 1   
    26   16   38 1   
    27   17   18 1   
    28   18   19 1   
    29   18   39 1   
    30   18   40 1   
    31   19   20 1   
    32   19   21 1   
    33   19   41 1   
    34   20   42 1   
    35   21   22 1   
    36   21   26 1   
    37   22   23 1   
    38   22   43 1   
    39   23   44 1   
    40   24   25 1   
    41   24   45 1   
    42   25   46 1   
    43   26   47 1   
@<TRIPOS>SUBSTRUCTURE
     1 4BU         1 TEMP              0 ****  ****    0 ROOT
