@<TRIPOS>MOLECULE
4BU
   48    49     1     0     0
SMALL
bcc


@<TRIPOS>ATOM
      1 O9          0.2910   -0.8540    0.5340 o         1 4BU     -0.676100
      2 C8          1.5130   -0.8000    0.2590 c         1 4BU      0.668100
      3 C7          2.5510   -0.9930    1.3570 c3        1 4BU     -0.167400
      4 C6          2.5260    0.1420    2.3590 c3        1 4BU     -0.086400
      5 C4          1.5460   -0.0590    3.4990 c3        1 4BU     -0.076500
      6 N5          0.1180    0.0580    3.0890 n4        1 4BU     -0.820600
      7 C2          1.8450    1.0000    4.6750 c         1 4BU      0.937600
      8 O3          3.0470    1.1750    4.9350 o         1 4BU     -0.761300
      9 O1          0.8160    1.4970    5.1990 o         1 4BU     -0.761300
     10 N10         1.9760   -0.5810   -1.0180 n         1 4BU     -0.445100
     11 C12         1.1970   -0.3510   -2.1720 ca        1 4BU      0.008600
     12 C13         1.8100    0.2800   -3.2840 ca        1 4BU     -0.120000
     13 C14         1.0970    0.5060   -4.4490 ca        1 4BU     -0.159500
     14 C15        -0.2520    0.1120   -4.5300 ca        1 4BU      0.120100
     15 C16        -0.8710   -0.5100   -3.4420 ca        1 4BU     -0.159500
     16 C17        -0.1500   -0.7440   -2.2730 ca        1 4BU     -0.120000
     17 O18        -0.8700    0.4070   -5.7280 os        1 4BU     -0.329900
     18 C19        -2.2010   -0.1040   -5.8850 c3        1 4BU      0.131400
     19 C20        -2.5870    0.2140   -7.3390 c3        1 4BU      0.185400
     20 O21        -2.4170   -1.0030   -8.0560 oh        1 4BU     -0.595800
     21 C23        -3.9960    0.7240   -7.4170 ca        1 4BU     -0.136300
     22 C24        -5.0600   -0.1410   -7.6910 ca        1 4BU     -0.116500
     23 C25        -6.3620    0.3510   -7.7640 ca        1 4BU     -0.130000
     24 C26        -6.6090    1.7080   -7.5610 ca        1 4BU     -0.122000
     25 C27        -5.5510    2.5750   -7.2870 ca        1 4BU     -0.130000
     26 C28        -4.2470    2.0860   -7.2150 ca        1 4BU     -0.116500
     27 H7          2.3160   -1.9690    1.8610 hc        1 4BU      0.074200
     28 H7A         3.5870   -1.0830    0.9340 hc        1 4BU      0.074200
     29 H6          2.3370    1.1190    1.8410 hc        1 4BU      0.093700
     30 H6A         3.5390    0.2280    2.8510 hc        1 4BU      0.093700
     31 H4          1.6840   -1.0780    3.9580 hx        1 4BU      0.086700
     32 HN5        -0.3960    0.4390    3.9080 hn        1 4BU      0.450467
     33 HN5A       -0.2600   -0.8400    2.7890 hn        1 4BU      0.450467
     34 HN10        2.9610   -0.5020   -1.1460 hn        1 4BU      0.324500
     35 H13         2.8640    0.5960   -3.2360 ha        1 4BU      0.150000
     36 H14         1.5710    0.9920   -5.3150 ha        1 4BU      0.149000
     37 H16        -1.9230   -0.8230   -3.4900 ha        1 4BU      0.149000
     38 H17        -0.6560   -1.2350   -1.4250 ha        1 4BU      0.150000
     39 H19        -2.8830    0.4200   -5.1680 h1        1 4BU      0.060700
     40 H19A       -2.2130   -1.2110   -5.7100 h1        1 4BU      0.060700
     41 H20        -1.8790    0.9900   -7.7530 h1        1 4BU      0.066700
     42 HO21       -2.6470   -0.8200   -8.9750 ho        1 4BU      0.409000
     43 H24        -4.8600   -1.2130   -7.8470 ha        1 4BU      0.141000
     44 H25        -7.1950   -0.3350   -7.9800 ha        1 4BU      0.135000
     45 H26        -7.6370    2.0960   -7.6190 ha        1 4BU      0.135000
     46 H27        -5.7430    3.6460   -7.1270 ha        1 4BU      0.135000
     47 H28        -3.4130    2.7710   -7.0000 ha        1 4BU      0.141000
     48 H53         0.0330    0.7100    2.3080 hn        1 4BU      0.450467
@<TRIPOS>BOND
     1    1    2 2   
     2    2    3 1   
     3    2   10 1   
     4    3    4 1   
     5    3   27 1   
     6    3   28 1   
     7    4    5 1   
     8    4   29 1   
     9    4   30 1   
    10    5    6 1   
    11    5    7 1   
    12    5   31 1   
    13    6   32 1   
    14    6   33 1   
    15    6   48 1   
    16    7    8 1   
    17    7    9 1   
    18   10   11 1   
    19   10   34 1   
    20   11   12 ar  
    21   11   16 ar  
    22   12   13 ar  
    23   12   35 1   
    24   13   14 ar  
    25   13   36 1   
    26   14   15 ar  
    27   14   17 1   
    28   15   16 ar  
    29   15   37 1   
    30   16   38 1   
    31   17   18 1   
    32   18   19 1   
    33   18   39 1   
    34   18   40 1   
    35   19   20 1   
    36   19   21 1   
    37   19   41 1   
    38   20   42 1   
    39   21   22 ar  
    40   21   26 ar  
    41   22   23 ar  
    42   22   43 1   
    43   23   24 ar  
    44   23   44 1   
    45   24   25 ar  
    46   24   45 1   
    47   25   26 ar  
    48   25   46 1   
    49   26   47 1   
@<TRIPOS>SUBSTRUCTURE
     1 4BU         1 TEMP              0 ****  ****    0 ROOT
