@<TRIPOS>MOLECULE
4BU
   47    48     1     0     0
SMALL
bcc


@<TRIPOS>ATOM
      1 O9         -3.0250    1.9790    0.3700 o         1 4BU     -0.621100
      2 C8         -3.3730    0.8520   -0.0310 c         1 4BU      0.667100
      3 C7         -4.8060    0.3710    0.1100 c3        1 4BU     -0.148400
      4 C6         -4.9280   -0.9920    0.7530 c3        1 4BU     -0.070400
      5 C4         -6.3880   -1.4390    0.8500 c3        1 4BU      0.016500
      6 N5         -7.1580   -0.6850    1.8300 n3        1 4BU     -0.892800
      7 C2         -6.4100   -2.9930    1.0560 c         1 4BU      0.889600
      8 O3         -7.1890   -3.4620    1.9330 o         1 4BU     -0.839300
      9 O1         -5.6600   -3.6850    0.3130 o         1 4BU     -0.839300
     10 N10        -2.4880   -0.0120   -0.6740 n         1 4BU     -0.472100
     11 C12        -1.1150    0.1670   -0.8800 ca        1 4BU      0.066600
     12 C13        -0.3500   -0.9370   -1.3400 ca        1 4BU     -0.150000
     13 C14         1.0090   -0.8130   -1.5790 ca        1 4BU     -0.147000
     14 C15         1.6420    0.4220   -1.3690 ca        1 4BU      0.066100
     15 C16         0.9090    1.5230   -0.9220 ca        1 4BU     -0.147000
     16 C17        -0.4560    1.3990   -0.6780 ca        1 4BU     -0.150000
     17 O18         2.9970    0.4530   -1.6740 os        1 4BU     -0.337900
     18 C19         3.7220    1.5370   -1.0910 c3        1 4BU      0.098400
     19 C20         5.2130    1.2140   -1.2940 c3        1 4BU      0.178400
     20 O21         5.9130    2.4150   -1.5750 oh        1 4BU     -0.591800
     21 C23         5.7950    0.4670   -0.1310 ca        1 4BU     -0.123300
     22 C24         7.0670    0.7820    0.3580 ca        1 4BU     -0.119000
     23 C25         7.6070    0.0620    1.4230 ca        1 4BU     -0.132500
     24 C26         6.8840   -0.9800    2.0020 ca        1 4BU     -0.129000
     25 C27         5.6190   -1.3050    1.5110 ca        1 4BU     -0.132500
     26 C28         5.0760   -0.5860    0.4490 ca        1 4BU     -0.119000
     27 H7         -5.3540    1.1340    0.7250 hc        1 4BU      0.075700
     28 H7A        -5.2730    0.3560   -0.9110 hc        1 4BU      0.075700
     29 H6         -4.4030   -1.7790    0.1460 hc        1 4BU      0.054700
     30 H6A        -4.4540   -0.9760    1.7690 hc        1 4BU      0.054700
     31 H4         -6.8800   -1.2550   -0.1500 h1        1 4BU      0.040700
     32 HN5        -8.0290   -1.1730    1.9620 hn        1 4BU      0.334300
     33 HN5A       -6.6780   -0.7240    2.7130 hn        1 4BU      0.334300
     34 HN10       -2.8370   -0.9240   -0.8850 hn        1 4BU      0.331500
     35 H13        -0.8310   -1.9140   -1.5080 ha        1 4BU      0.159000
     36 H14         1.5970   -1.6710   -1.9370 ha        1 4BU      0.136000
     37 H16         1.3930    2.4960   -0.7580 ha        1 4BU      0.136000
     38 H17        -1.0160    2.2790   -0.3190 ha        1 4BU      0.159000
     39 H19         3.4660    2.4860   -1.6340 h1        1 4BU      0.049200
     40 H19A        3.4680    1.6390   -0.0040 h1        1 4BU      0.049200
     41 H20         5.3380    0.5980   -2.2340 h1        1 4BU      0.105700
     42 HO21        5.8550    2.9720   -0.7880 ho        1 4BU      0.398000
     43 H24         7.6450    1.5940   -0.1090 ha        1 4BU      0.147000
     44 H25         8.6070    0.3170    1.8040 ha        1 4BU      0.131500
     45 H26         7.3110   -1.5470    2.8430 ha        1 4BU      0.128000
     46 H27         5.0470   -2.1280    1.9630 ha        1 4BU      0.131500
     47 H28         4.0780   -0.8420    0.0550 ha        1 4BU      0.147000
@<TRIPOS>BOND
     1    1    2 2   
     2    2    3 1   
     3    2   10 1   
     4    3    4 1   
     5    3   27 1   
     6    3   28 1   
     7    4    5 1   
     8    4   29 1   
     9    4   30 1   
    10    5    6 1   
    11    5    7 1   
    12    5   31 1   
    13    6   32 1   
    14    6   33 1   
    15    7    8 1   
    16    7    9 1   
    17   10   11 1   
    18   10   34 1   
    19   11   12 ar  
    20   11   16 ar  
    21   12   13 ar  
    22   12   35 1   
    23   13   14 ar  
    24   13   36 1   
    25   14   15 ar  
    26   14   17 1   
    27   15   16 ar  
    28   15   37 1   
    29   16   38 1   
    30   17   18 1   
    31   18   19 1   
    32   18   39 1   
    33   18   40 1   
    34   19   20 1   
    35   19   21 1   
    36   19   41 1   
    37   20   42 1   
    38   21   22 ar  
    39   21   26 ar  
    40   22   23 ar  
    41   22   43 1   
    42   23   24 ar  
    43   23   44 1   
    44   24   25 ar  
    45   24   45 1   
    46   25   26 ar  
    47   25   46 1   
    48   26   47 1   
@<TRIPOS>SUBSTRUCTURE
     1 4BU         1 TEMP              0 ****  ****    0 ROOT
