@<TRIPOS>MOLECULE
4BV
   63    67     1     0     0
SMALL
bcc


@<TRIPOS>ATOM
      1 CBG         0.5140    1.2020    0.6400 c3        1 4BV     -0.106400
      2 CBH         1.8910    1.4680    1.2380 c3        1 4BV      0.127400
      3 OBI         2.1460    0.4940    2.2540 os        1 4BV     -0.424600
      4 CBJ         1.1750   -0.5540    2.1910 c3        1 4BV      0.131400
      5 CBF         0.0610   -0.1360    1.2250 c3        1 4BV     -0.096700
      6 CBE        -1.2860    0.0040    1.9200 c3        1 4BV      0.133400
      7 OBD        -1.7170   -1.3290    2.2210 os        1 4BV     -0.330900
      8 CAZ        -2.9260   -1.4380    2.8790 ca        1 4BV      0.153100
      9 CAY        -3.2950   -2.7570    3.1920 ca        1 4BV     -0.180000
     10 CBA        -3.7490   -0.3550    3.2170 ca        1 4BV     -0.230000
     11 CBB        -4.9530   -0.5960    3.8770 ca        1 4BV     -0.065000
     12 CBC        -5.3470   -1.8910    4.2020 ca        1 4BV     -0.218000
     13 CAX        -4.5100   -2.9600    3.8570 ca        1 4BV      0.135100
     14 OAM        -4.7840   -4.2910    4.1630 os        1 4BV     -0.247200
     15 CAB        -6.0820   -4.5660    4.6010 ca        1 4BV      0.026100
     16 CAA        -7.0900   -4.6880    3.6320 ca        1 4BV     -0.096000
     17 CAF        -8.3450   -5.0920    4.0540 ca        1 4BV     -0.040400
     18 NAI        -9.5330   -5.3680    3.3290 n         1 4BV     -0.325000
     19 CAK        -9.8570   -4.7220    2.0960 c3        1 4BV      0.077300
     20 CAH       -10.5500   -5.6690    4.3050 c         1 4BV      0.771500
     21 OAJ       -11.7440   -5.9010    4.0580 o         1 4BV     -0.613500
     22 NAG        -9.9280   -5.7880    5.5970 n         1 4BV     -0.340000
     23 CAL       -10.6710   -5.6930    6.8140 c3        1 4BV      0.081300
     24 CAE        -8.5880   -5.3600    5.4560 ca        1 4BV      0.029600
     25 CAD        -7.5880   -5.2240    6.4060 ca        1 4BV     -0.186000
     26 CAC        -6.2930   -4.8270    5.9820 ca        1 4BV      0.198600
     27 NAN        -5.2450   -4.6790    6.8940 nh        1 4BV     -0.751500
     28 SAO        -5.0650   -5.3090    8.3930 sy        1 4BV      1.486800
     29 OAP        -4.1020   -4.5420    9.0650 o         1 4BV     -0.652800
     30 OAQ        -6.3060   -5.4530    9.0500 o         1 4BV     -0.652800
     31 CAR        -4.4890   -6.8460    8.0980 cc        1 4BV     -0.037800
     32 CAV        -5.0130   -8.0830    8.5430 cd        1 4BV     -0.081600
     33 NAS        -3.3250   -7.0890    7.3440 nc        1 4BV     -0.582000
     34 CAT        -3.1510   -8.4160    7.3370 cd        1 4BV      0.397400
     35 NAU        -4.1700   -9.0710    8.0700 na        1 4BV     -0.196900
     36 CAW        -4.3070  -10.4800    8.2490 c3        1 4BV      0.013600
     37 H1         -0.1950    2.0250    0.9060 hc        1 4BV      0.054700
     38 H2          0.5680    1.1490   -0.4750 hc        1 4BV      0.054700
     39 H3          1.9570    2.4670    1.7380 h1        1 4BV      0.047200
     40 H4          2.7020    1.3770    0.4700 h1        1 4BV      0.047200
     41 H5          0.8020   -0.7080    3.2360 h1        1 4BV      0.055200
     42 H6          1.6980   -1.4780    1.8350 h1        1 4BV      0.055200
     43 H7         -0.0390   -0.9070    0.4150 hc        1 4BV      0.077700
     44 H8         -1.1960    0.5960    2.8690 h1        1 4BV      0.046200
     45 H9         -2.0330    0.4900    1.2370 h1        1 4BV      0.046200
     46 H10        -2.6450   -3.6020    2.9270 ha        1 4BV      0.167000
     47 H11        -3.4600    0.6760    2.9750 ha        1 4BV      0.139000
     48 H12        -5.6010    0.2520    4.1480 ha        1 4BV      0.136000
     49 H13        -6.2970   -2.0750    4.7240 ha        1 4BV      0.149000
     50 H14        -6.8650   -4.4750    2.5780 ha        1 4BV      0.160000
     51 H15        -9.0660   -4.9790    1.3420 h1        1 4BV      0.054367
     52 H16       -10.8530   -5.1060    1.7440 h1        1 4BV      0.054367
     53 H17        -9.9090   -3.6050    2.2010 h1        1 4BV      0.054367
     54 H18       -11.6920   -6.1280    6.6430 h1        1 4BV      0.057033
     55 H19       -10.1350   -6.2780    7.6080 h1        1 4BV      0.057033
     56 H20       -10.7760   -4.6280    7.1580 h1        1 4BV      0.057033
     57 H21        -7.8080   -5.4170    7.4700 ha        1 4BV      0.187000
     58 H22        -4.4500   -4.2300    6.4800 hn        1 4BV      0.469800
     59 H23        -5.9020   -8.2840    9.1480 h4        1 4BV      0.202000
     60 H24        -2.3390   -8.9630    6.8450 h5        1 4BV      0.073100
     61 H25        -5.0120  -10.6910    9.0960 h1        1 4BV      0.063700
     62 H26        -3.3040  -10.9300    8.4820 h1        1 4BV      0.063700
     63 H27        -4.7090  -10.9510    7.3110 h1        1 4BV      0.063700
@<TRIPOS>BOND
     1    1    2 1   
     2    1    5 1   
     3    1   37 1   
     4    1   38 1   
     5    2    3 1   
     6    2   39 1   
     7    2   40 1   
     8    3    4 1   
     9    4    5 1   
    10    4   41 1   
    11    4   42 1   
    12    5    6 1   
    13    5   43 1   
    14    6    7 1   
    15    6   44 1   
    16    6   45 1   
    17    7    8 1   
    18    8    9 ar  
    19    8   10 ar  
    20    9   13 ar  
    21    9   46 1   
    22   10   11 ar  
    23   10   47 1   
    24   11   12 ar  
    25   11   48 1   
    26   12   13 ar  
    27   12   49 1   
    28   13   14 1   
    29   14   15 1   
    30   15   16 ar  
    31   15   26 ar  
    32   16   17 ar  
    33   16   50 1   
    34   17   18 1   
    35   17   24 ar  
    36   18   19 1   
    37   18   20 1   
    38   19   51 1   
    39   19   52 1   
    40   19   53 1   
    41   20   21 2   
    42   20   22 1   
    43   22   23 1   
    44   22   24 1   
    45   23   54 1   
    46   23   55 1   
    47   23   56 1   
    48   24   25 ar  
    49   25   26 ar  
    50   25   57 1   
    51   26   27 1   
    52   27   28 1   
    53   27   58 1   
    54   28   29 2   
    55   28   30 2   
    56   28   31 1   
    57   31   32 2   
    58   31   33 1   
    59   32   35 1   
    60   32   59 1   
    61   33   34 2   
    62   34   35 1   
    63   34   60 1   
    64   35   36 1   
    65   36   61 1   
    66   36   62 1   
    67   36   63 1   
@<TRIPOS>SUBSTRUCTURE
     1 4BV         1 TEMP              0 ****  ****    0 ROOT
