@<TRIPOS>MOLECULE
4BV
   63    67     1     0     0
SMALL
bcc


@<TRIPOS>ATOM
      1 CBG         0.5290    1.1880    0.6400 c3        1 4BV     -0.106400
      2 CBH         1.9050    1.4570    1.2420 c3        1 4BV      0.127400
      3 OBI         2.1560    0.4900    2.2630 os        1 4BV     -0.424600
      4 CBJ         1.1860   -0.5590    2.2030 c3        1 4BV      0.131400
      5 CBF         0.0750   -0.1470    1.2310 c3        1 4BV     -0.096700
      6 CBE        -1.2740   -0.0030    1.9210 c3        1 4BV      0.133400
      7 OBD        -1.7060   -1.3350    2.2270 os        1 4BV     -0.330900
      8 CAZ        -2.9170   -1.4410    2.8820 ca        1 4BV      0.153100
      9 CAY        -3.2890   -2.7580    3.1990 ca        1 4BV     -0.180000
     10 CBA        -3.7410   -0.3560    3.2120 ca        1 4BV     -0.230000
     11 CBB        -4.9470   -0.5940    3.8690 ca        1 4BV     -0.065000
     12 CBC        -5.3430   -1.8870    4.1990 ca        1 4BV     -0.218000
     13 CAX        -4.5060   -2.9580    3.8610 ca        1 4BV      0.135100
     14 OAM        -4.7810   -4.2870    4.1710 os        1 4BV     -0.247200
     15 CAB        -6.0810   -4.5600    4.6060 ca        1 4BV      0.026100
     16 CAA        -7.0870   -4.6770    3.6360 ca        1 4BV     -0.097000
     17 CAF        -8.3450   -5.0780    4.0540 ca        1 4BV     -0.040400
     18 NAI        -9.5320   -5.3490    3.3270 n         1 4BV     -0.325000
     19 CAK        -9.8530   -4.7000    2.0950 c3        1 4BV      0.077300
     20 CAH       -10.5510   -5.6490    4.3010 c         1 4BV      0.771500
     21 OAJ       -11.7450   -5.8770    4.0510 o         1 4BV     -0.613500
     22 NAG        -9.9310   -5.7730    5.5940 n         1 4BV     -0.340000
     23 CAL       -10.6760   -5.6790    6.8090 c3        1 4BV      0.081300
     24 CAE        -8.5900   -5.3490    5.4560 ca        1 4BV      0.029600
     25 CAD        -7.5910   -5.2190    6.4070 ca        1 4BV     -0.186000
     26 CAC        -6.2950   -4.8240    5.9860 ca        1 4BV      0.198600
     27 NAN        -5.2470   -4.6810    6.9010 nu        1 4BV     -0.751500
     28 SAO        -5.0710   -5.3170    8.3980 sy        1 4BV      1.486800
     29 OAP        -4.1060   -4.5560    9.0730 o         1 4BV     -0.652800
     30 OAQ        -6.3140   -5.4580    9.0530 o         1 4BV     -0.652800
     31 CAR        -4.5020   -6.8550    8.0980 cc        1 4BV     -0.037800
     32 CAV        -5.0320   -8.0920    8.5390 cd        1 4BV     -0.081600
     33 NAS        -3.3380   -7.1010    7.3450 nc        1 4BV     -0.582000
     34 CAT        -3.1700   -8.4290    7.3340 cd        1 4BV      0.397400
     35 NAU        -4.1920   -9.0820    8.0640 na        1 4BV     -0.196900
     36 CAW        -4.3350  -10.4910    8.2390 c3        1 4BV      0.013600
     37 H1          0.5880    1.1280   -0.4740 hc        1 4BV      0.054700
     38 H2         -0.1810    2.0120    0.8990 hc        1 4BV      0.054700
     39 H3          2.7190    1.3630    0.4760 h1        1 4BV      0.047200
     40 H4          1.9680    2.4600    1.7360 h1        1 4BV      0.047200
     41 H5          0.8100   -0.7070    3.2470 h1        1 4BV      0.055200
     42 H6          1.7100   -1.4850    1.8540 h1        1 4BV      0.055200
     43 H7         -0.0220   -0.9220    0.4250 hc        1 4BV      0.077700
     44 H8         -2.0190    0.4790    1.2330 h1        1 4BV      0.046200
     45 H9         -1.1870    0.5930    2.8670 h1        1 4BV      0.046200
     46 H10        -2.6380   -3.6040    2.9400 ha        1 4BV      0.167000
     47 H11        -3.4510    0.6740    2.9660 ha        1 4BV      0.139000
     48 H12        -5.5960    0.2560    4.1340 ha        1 4BV      0.136000
     49 H13        -6.2950   -2.0680    4.7180 ha        1 4BV      0.149000
     50 H14        -6.8600   -4.4620    2.5820 ha        1 4BV      0.160000
     51 H15        -9.9010   -3.5820    2.2020 h1        1 4BV      0.054367
     52 H16       -10.8490   -5.0790    1.7410 h1        1 4BV      0.054367
     53 H17        -9.0610   -4.9570    1.3420 h1        1 4BV      0.054367
     54 H18       -10.1430   -6.2680    7.6030 h1        1 4BV      0.057033
     55 H19       -10.7790   -4.6150    7.1560 h1        1 4BV      0.057033
     56 H20       -11.6980   -6.1110    6.6360 h1        1 4BV      0.057033
     57 H21        -7.8130   -5.4130    7.4710 ha        1 4BV      0.187000
     58 H22        -4.4500   -4.2340    6.4890 hn        1 4BV      0.469800
     59 H23        -5.9220   -8.2910    9.1420 h4        1 4BV      0.202000
     60 H24        -2.3600   -8.9770    6.8420 h5        1 4BV      0.073100
     61 H25        -4.7430  -10.9560    7.3000 h1        1 4BV      0.063700
     62 H26        -3.3340  -10.9460    8.4660 h1        1 4BV      0.063700
     63 H27        -5.0380  -10.7010    9.0880 h1        1 4BV      0.063700
@<TRIPOS>BOND
     1    1    2 1   
     2    1    5 1   
     3    1   37 1   
     4    1   38 1   
     5    2    3 1   
     6    2   39 1   
     7    2   40 1   
     8    3    4 1   
     9    4    5 1   
    10    4   41 1   
    11    4   42 1   
    12    5    6 1   
    13    5   43 1   
    14    6    7 1   
    15    6   44 1   
    16    6   45 1   
    17    7    8 1   
    18    8    9 ar  
    19    8   10 ar  
    20    9   13 ar  
    21    9   46 1   
    22   10   11 ar  
    23   10   47 1   
    24   11   12 ar  
    25   11   48 1   
    26   12   13 ar  
    27   12   49 1   
    28   13   14 1   
    29   14   15 1   
    30   15   16 ar  
    31   15   26 ar  
    32   16   17 ar  
    33   16   50 1   
    34   17   18 1   
    35   17   24 ar  
    36   18   19 1   
    37   18   20 1   
    38   19   51 1   
    39   19   52 1   
    40   19   53 1   
    41   20   21 2   
    42   20   22 1   
    43   22   23 1   
    44   22   24 1   
    45   23   54 1   
    46   23   55 1   
    47   23   56 1   
    48   24   25 ar  
    49   25   26 ar  
    50   25   57 1   
    51   26   27 1   
    52   27   28 1   
    53   27   58 1   
    54   28   29 2   
    55   28   30 2   
    56   28   31 1   
    57   31   32 2   
    58   31   33 1   
    59   32   35 1   
    60   32   59 1   
    61   33   34 2   
    62   34   35 1   
    63   34   60 1   
    64   35   36 1   
    65   36   61 1   
    66   36   62 1   
    67   36   63 1   
@<TRIPOS>SUBSTRUCTURE
     1 4BV         1 TEMP              0 ****  ****    0 ROOT
