@<TRIPOS>MOLECULE
4BX
   23    18     1     0     0
SMALL
bcc


@<TRIPOS>ATOM
      1 C1         -0.7160    0.3050   -3.8160 c1        1 4BX     -0.132250
      2 C2          0.6690    0.2490   -3.8160 c1        1 4BX     -0.132250
      3 C3          1.3600    0.1950   -2.6160 c1        1 4BX     -0.132250
      4 C4         -1.4090    0.3060   -2.6170 c1        1 4BX     -0.132250
      5 N5         -1.1260    0.2390   -0.1080 n2        1 4BX     -0.208000
      6 C6         -0.7070    0.2510   -1.3970 c1        1 4BX     -0.038000
      7 C7          0.6560    0.1960   -1.3970 c1        1 4BX     -0.074000
      8 N8          1.0720    0.1510   -0.1080 n1        1 4BX     -0.199000
      9 C9         -0.0280    0.1770    0.6910 c1        1 4BX      0.037000
     10 C10        -0.1120    0.3530    2.1910 c2        1 4BX     -0.084000
     11 C11         0.5430   -0.8270    2.8750 c3        1 4BX     -0.238000
     12 C12         0.3680   -0.7030    4.3730 c2        1 4BX      0.326000
     13 O13         1.1420    0.0350    5.0380 o         1 4BX     -0.576000
     14 O14        -0.5430   -1.3470    4.9560 o         1 4BX     -0.576000
     15 H1         -1.2030    0.3310   -4.6620 ha        1 4BX      0.120750
     16 H2          1.1570    0.2490   -4.6610 ha        1 4BX      0.120750
     17 H3          2.3350    0.1420   -2.6170 ha        1 4BX      0.120750
     18 H4         -2.3850    0.3450   -2.6170 ha        1 4BX      0.120750
     19 H10        -1.0510    0.4060    2.4610 ha        1 4BX      0.099000
     20 H10A        0.3480    1.1760    2.4490 ha        1 4BX      0.099000
     21 H11         1.4970   -0.8410    2.6580 hc        1 4BX      0.076500
     22 H11A        0.1260   -1.6560    2.5660 hc        1 4BX      0.076500
     23 HN5        -1.9930    0.2670    0.1750 DU        1 4BX      0.325000
@<TRIPOS>BOND
     1    1    4 1   
     2    1   15 1   
     3    2    3 1   
     4    2   16 1   
     5    3   17 1   
     6    4   18 1   
     7    5    6 1   
     8    5    9 1   
     9    6    7 1   
    10    8    9 1   
    11   10   11 1   
    12   10   19 1   
    13   10   20 1   
    14   11   12 1   
    15   11   21 1   
    16   11   22 1   
    17   12   13 1   
    18   12   14 1   
@<TRIPOS>SUBSTRUCTURE
     1 4BX         1 TEMP              0 ****  ****    0 ROOT
