@<TRIPOS>MOLECULE
4BX
   23    24     1     0     0
SMALL
bcc


@<TRIPOS>ATOM
      1 C1         -0.3840   -0.1190    0.3920 ca        1 4BX     -0.145000
      2 C2          0.8710    0.3900    0.0130 ca        1 4BX     -0.170000
      3 C3          1.8800    0.6080    0.9380 ca        1 4BX     -0.090000
      4 C4         -0.6770   -0.4300    1.7110 ca        1 4BX     -0.124000
      5 N5          0.3780   -0.4120    4.0420 na        1 4BX     -0.251300
      6 C6          0.3260   -0.2200    2.6660 ca        1 4BX     -0.083200
      7 C7          1.6330    0.3090    2.2850 ca        1 4BX      0.065400
      8 N8          2.4390    0.4180    3.4270 nc        1 4BX     -0.626100
      9 C9          1.6640   -0.0200    4.4560 cd        1 4BX      0.438800
     10 C10         2.0740   -0.0730    5.8950 c3        1 4BX     -0.080700
     11 C11         1.5110   -1.2640    6.6380 c3        1 4BX     -0.209400
     12 C12         0.0890   -1.0060    7.1650 c         1 4BX      0.906600
     13 O13        -0.8950   -1.2950    6.4120 o         1 4BX     -0.841300
     14 O14        -0.0430   -0.5360    8.3260 o         1 4BX     -0.841300
     15 H1         -1.1510   -0.2730   -0.3810 ha        1 4BX      0.112000
     16 H2          1.0500    0.6200   -1.0470 ha        1 4BX      0.110000
     17 H3          2.8560    1.0070    0.6310 ha        1 4BX      0.128000
     18 H4         -1.6580   -0.8260    2.0030 ha        1 4BX      0.133000
     19 H10         3.1960   -0.0890    5.9430 hc        1 4BX      0.059700
     20 H10A        1.7240    0.8740    6.3900 hc        1 4BX      0.059700
     21 H11         2.1710   -1.4760    7.5190 hc        1 4BX      0.037200
     22 H11A        1.5040   -2.1720    5.9850 hc        1 4BX      0.037200
     23 HN5        -0.3330   -0.7870    4.6520 hn        1 4BX      0.374700
@<TRIPOS>BOND
     1    1    2 ar  
     2    1    4 ar  
     3    1   15 1   
     4    2    3 ar  
     5    2   16 1   
     6    3    7 ar  
     7    3   17 1   
     8    4    6 ar  
     9    4   18 1   
    10    5    6 1   
    11    5    9 1   
    12    5   23 1   
    13    6    7 ar  
    14    7    8 1   
    15    8    9 2   
    16    9   10 1   
    17   10   11 1   
    18   10   19 1   
    19   10   20 1   
    20   11   12 1   
    21   11   21 1   
    22   11   22 1   
    23   12   13 1   
    24   12   14 1   
@<TRIPOS>SUBSTRUCTURE
     1 4BX         1 TEMP              0 ****  ****    0 ROOT
