@<TRIPOS>MOLECULE
4BX
   23    24     1     0     0
SMALL
bcc


@<TRIPOS>ATOM
      1 C1          3.9690    0.6910   -0.6620 ca        1 4BX     -0.145000
      2 C2          4.2580   -0.3800    0.2030 ca        1 4BX     -0.170000
      3 C3          3.2580   -1.0840    0.8540 ca        1 4BX     -0.090000
      4 C4          2.6670    1.0970   -0.9090 ca        1 4BX     -0.124000
      5 N5          0.2530    0.5360   -0.2770 na        1 4BX     -0.251300
      6 C6          1.6360    0.4020   -0.2650 ca        1 4BX     -0.083200
      7 C7          1.9240   -0.7110    0.6360 ca        1 4BX      0.065400
      8 N8          0.7190   -1.2230    1.1390 nc        1 4BX     -0.626100
      9 C9         -0.2570   -0.4600    0.5760 cd        1 4BX      0.438800
     10 C10        -1.7260   -0.6030    0.8240 c3        1 4BX     -0.080700
     11 C11        -2.5740   -0.3310   -0.4000 c3        1 4BX     -0.209400
     12 C12        -2.8610    1.1690   -0.5900 c         1 4BX      0.906600
     13 O13        -2.0420    1.8570   -1.2790 o         1 4BX     -0.841300
     14 O14        -3.9020    1.6490   -0.0690 o         1 4BX     -0.841300
     15 H1          4.8010    1.2170   -1.1530 ha        1 4BX      0.112000
     16 H2          5.3090   -0.6610    0.3640 ha        1 4BX      0.110000
     17 H3          3.4950   -1.9180    1.5280 ha        1 4BX      0.128000
     18 H4          2.4450    1.9340   -1.5850 ha        1 4BX      0.133000
     19 H10        -1.9230   -1.6430    1.2000 hc        1 4BX      0.059700
     20 H10A       -2.0120    0.1150    1.6420 hc        1 4BX      0.059700
     21 H11        -2.0810   -0.7310   -1.3200 hc        1 4BX      0.037200
     22 H11A       -3.5560   -0.8550   -0.2740 hc        1 4BX      0.037200
     23 HN5        -0.3120    1.1850   -0.8040 hn        1 4BX      0.374700
@<TRIPOS>BOND
     1    1    2 ar  
     2    1    4 ar  
     3    1   15 1   
     4    2    3 ar  
     5    2   16 1   
     6    3    7 ar  
     7    3   17 1   
     8    4    6 ar  
     9    4   18 1   
    10    5    6 1   
    11    5    9 1   
    12    5   23 1   
    13    6    7 ar  
    14    7    8 1   
    15    8    9 2   
    16    9   10 1   
    17   10   11 1   
    18   10   19 1   
    19   10   20 1   
    20   11   12 1   
    21   11   21 1   
    22   11   22 1   
    23   12   13 1   
    24   12   14 1   
@<TRIPOS>SUBSTRUCTURE
     1 4BX         1 TEMP              0 ****  ****    0 ROOT
