@<TRIPOS>MOLECULE
4BX
   23    24     1     0     0
SMALL
bcc


@<TRIPOS>ATOM
      1 C1         -0.4210   -0.1980    0.4030 ca        1 4BX     -0.145000
      2 C2          0.7910    0.4020    0.0170 ca        1 4BX     -0.170000
      3 C3          1.7900    0.6880    0.9340 ca        1 4BX     -0.090000
      4 C4         -0.6800   -0.5340    1.7230 ca        1 4BX     -0.124000
      5 N5          0.3900   -0.4490    4.0450 na        1 4BX     -0.251300
      6 C6          0.3130   -0.2560    2.6710 ca        1 4BX     -0.083200
      7 C7          1.5750    0.3670    2.2810 ca        1 4BX      0.065400
      8 N8          2.3810    0.5290    3.4180 nc        1 4BX     -0.626100
      9 C9          1.6480    0.0330    4.4510 cd        1 4BX      0.438800
     10 C10         2.0730    0.0040    5.8860 c3        1 4BX     -0.080700
     11 C11         1.6030   -1.2280    6.6290 c3        1 4BX     -0.209400
     12 C12         0.1700   -1.0740    7.1680 c         1 4BX      0.906600
     13 O13        -0.7970   -1.4300    6.4210 o         1 4BX     -0.841300
     14 O14         0.0140   -0.6170    8.3310 o         1 4BX     -0.841300
     15 H1         -1.1810   -0.4030   -0.3640 ha        1 4BX      0.112000
     16 H2          0.9440    0.6480   -1.0440 ha        1 4BX      0.110000
     17 H3          2.7320    1.1580    0.6210 ha        1 4BX      0.128000
     18 H4         -1.6280   -1.0010    2.0210 ha        1 4BX      0.133000
     19 H10         3.1930    0.0680    5.9250 hc        1 4BX      0.059700
     20 H10A        1.6610    0.9220    6.3890 hc        1 4BX      0.059700
     21 H11         2.2830   -1.3940    7.5040 hc        1 4BX      0.037200
     22 H11A        1.6550   -2.1310    5.9720 hc        1 4BX      0.037200
     23 HN5        -0.2870   -0.8760    4.6600 hn        1 4BX      0.374700
@<TRIPOS>BOND
     1    1    2 ar  
     2    1    4 ar  
     3    1   15 1   
     4    2    3 ar  
     5    2   16 1   
     6    3    7 ar  
     7    3   17 1   
     8    4    6 ar  
     9    4   18 1   
    10    5    6 1   
    11    5    9 1   
    12    5   23 1   
    13    6    7 ar  
    14    7    8 1   
    15    8    9 2   
    16    9   10 1   
    17   10   11 1   
    18   10   19 1   
    19   10   20 1   
    20   11   12 1   
    21   11   21 1   
    22   11   22 1   
    23   12   13 1   
    24   12   14 1   
@<TRIPOS>SUBSTRUCTURE
     1 4BX         1 TEMP              0 ****  ****    0 ROOT
