@<TRIPOS>MOLECULE
4BY
   21    22     1     0     0
SMALL
bcc


@<TRIPOS>ATOM
      1 C1         -1.5930   -0.1170    0.0170 cc        1 4BY     -0.072300
      2 N2         -0.8850    1.0910   -0.0330 na        1 4BY     -0.169400
      3 C3         -0.6870   -1.1820    0.0520 cd        1 4BY     -0.219200
      4 C4          0.6410   -0.6250    0.0240 ca        1 4BY     -0.086800
      5 C5          0.4780    0.8200   -0.0300 ca        1 4BY     -0.067200
      6 C6         -3.1160   -0.1340    0.0260 c         1 4BY      0.926800
      7 C7          1.9260   -1.1630    0.0370 ca        1 4BY     -0.094000
      8 O8         -3.6820   -1.2570    0.0720 o         1 4BY     -0.817300
      9 C9          1.5970    1.6650   -0.0690 ca        1 4BY     -0.147000
     10 O10        -3.7050    0.9830   -0.0130 o         1 4BY     -0.817300
     11 C11         3.0290   -0.3140   -0.0010 ca        1 4BY     -0.136300
     12 C12         2.8550    1.0850   -0.0530 ca        1 4BY     -0.143000
     13 C13         4.4050   -0.8630    0.0120 c3        1 4BY     -0.031800
     14 H3         -0.9530   -2.2330    0.0940 ha        1 4BY      0.157000
     15 H7          2.0610   -2.2530    0.0780 ha        1 4BY      0.117000
     16 H9          1.4780    2.7560   -0.1090 ha        1 4BY      0.115000
     17 H12         3.7470    1.7270   -0.0830 ha        1 4BY      0.105000
     18 H13         4.9590   -0.5510   -0.9090 hc        1 4BY      0.024700
     19 H13A        4.9690   -0.4820    0.9000 hc        1 4BY      0.024700
     20 H13B        4.3970   -1.9800    0.0540 hc        1 4BY      0.024700
     21 HN2        -1.3190    1.9770   -0.0640 hn        1 4BY      0.307700
@<TRIPOS>BOND
     1    1    2 1   
     2    1    3 2   
     3    1    6 1   
     4    2    5 1   
     5    2   21 1   
     6    3    4 1   
     7    3   14 1   
     8    4    5 ar  
     9    4    7 ar  
    10    5    9 ar  
    11    6    8 1   
    12    6   10 1   
    13    7   11 ar  
    14    7   15 1   
    15    9   12 ar  
    16    9   16 1   
    17   11   12 ar  
    18   11   13 1   
    19   12   17 1   
    20   13   18 1   
    21   13   19 1   
    22   13   20 1   
@<TRIPOS>SUBSTRUCTURE
     1 4BY         1 TEMP              0 ****  ****    0 ROOT
