@<TRIPOS>MOLECULE
4BY
   21    16     1     0     0
SMALL
bcc


@<TRIPOS>ATOM
      1 C1         -1.2790   -0.0560   -2.2100 c1        1 4BY     -0.024000
      2 N2          0.0860    0.0130   -2.2020 n1        1 4BY     -0.192000
      3 C3         -1.7140   -0.0650   -0.9000 c1        1 4BY     -0.153000
      4 C4         -0.6060   -0.0020   -0.0840 c1        1 4BY     -0.153000
      5 C5          0.5060    0.0460   -0.8850 c1        1 4BY     -0.024000
      6 C6         -2.2400   -0.1810   -3.3720 c1        1 4BY      0.844000
      7 C7         -0.4660    0.0210    1.3140 c1        1 4BY     -0.036500
      8 O8         -2.6090   -1.3190   -3.7640 o         1 4BY     -0.785500
      9 C9          1.7860    0.1180   -0.3070 c1        1 4BY     -0.087500
     10 O10        -2.6620    0.8530   -3.9530 o         1 4BY     -0.785500
     11 C11         0.7960    0.0920    1.8840 c1        1 4BY     -0.102100
     12 C12         1.9230    0.1410    1.0740 c1        1 4BY     -0.087500
     13 C13         1.0500    0.0340    3.3750 c3        1 4BY     -0.066000
     14 H3         -2.6420   -0.1330   -0.6050 DU        1 4BY      0.207500
     15 H7         -1.2580   -0.0120    1.8850 ha        1 4BY      0.059500
     16 H9          2.5770    0.1650   -0.8760 ha        1 4BY      0.052500
     17 H12         2.8110    0.1860    1.4750 ha        1 4BY      0.052500
     18 H13         0.2080    0.1780    3.8550 hc        1 4BY      0.024700
     19 H13A        1.4150   -0.8450    3.6100 hc        1 4BY      0.024700
     20 H13B        1.6910    0.7320    3.6240 hc        1 4BY      0.024700
     21 HN2         0.6260    0.0330   -2.9370 DU        1 4BY      0.207500
@<TRIPOS>BOND
     1    1    2 2   
     2    1    3 2   
     3    2    5 2   
     4    3    4 2   
     5    4    5 2   
     6    6    8 2   
     7    6   10 2   
     8    7   11 3   
     9    7   15 1   
    10    9   12 3   
    11    9   16 1   
    12   11   13 1   
    13   12   17 1   
    14   13   18 1   
    15   13   19 1   
    16   13   20 1   
@<TRIPOS>SUBSTRUCTURE
     1 4BY         1 TEMP              0 ****  ****    0 ROOT
