@<TRIPOS>MOLECULE
4BY
   21    22     1     0     0
SMALL
bcc


@<TRIPOS>ATOM
      1 C1         -0.0420    0.0200   -0.0080 cc        1 4BY     -0.072300
      2 N2          1.3590   -0.0180    0.0010 na        1 4BY     -0.169400
      3 C3         -0.5120    0.0410    1.3100 cd        1 4BY     -0.219200
      4 C4          0.6350    0.0160    2.1810 ca        1 4BY     -0.086800
      5 C5          1.8050   -0.0210    1.3170 ca        1 4BY     -0.067200
      6 C6         -0.8190    0.0330   -1.3180 c         1 4BY      0.926800
      7 C7          0.8110    0.0200    3.5630 ca        1 4BY     -0.094000
      8 O8         -2.0740    0.0670   -1.2460 o         1 4BY     -0.817300
      9 C9          3.0960   -0.0530    1.8630 ca        1 4BY     -0.147000
     10 O10        -0.1450    0.0090   -2.3870 o         1 4BY     -0.817300
     11 C11         2.0980   -0.0120    4.0930 ca        1 4BY     -0.136300
     12 C12         3.2230   -0.0480    3.2430 ca        1 4BY     -0.143000
     13 C13         2.3100   -0.0090    5.5600 c3        1 4BY     -0.031800
     14 H3         -1.5550    0.0720    1.6050 ha        1 4BY      0.157000
     15 H7         -0.0660    0.0480    4.2250 ha        1 4BY      0.117000
     16 H9          3.9820   -0.0810    1.2160 ha        1 4BY      0.115000
     17 H12         4.2250   -0.0720    3.6950 ha        1 4BY      0.105000
     18 H13         2.8550   -0.9330    5.8770 hc        1 4BY      0.024700
     19 H13A        1.3390    0.0320    6.1110 hc        1 4BY      0.024700
     20 H13B        2.9240    0.8760    5.8640 hc        1 4BY      0.024700
     21 HN2         1.9090   -0.0380   -0.8170 hn        1 4BY      0.307700
@<TRIPOS>BOND
     1    1    2 1   
     2    1    3 2   
     3    1    6 1   
     4    2    5 1   
     5    2   21 1   
     6    3    4 1   
     7    3   14 1   
     8    4    5 ar  
     9    4    7 ar  
    10    5    9 ar  
    11    6    8 1   
    12    6   10 1   
    13    7   11 ar  
    14    7   15 1   
    15    9   12 ar  
    16    9   16 1   
    17   11   12 ar  
    18   11   13 1   
    19   12   17 1   
    20   13   18 1   
    21   13   19 1   
    22   13   20 1   
@<TRIPOS>SUBSTRUCTURE
     1 4BY         1 TEMP              0 ****  ****    0 ROOT
