@<TRIPOS>MOLECULE
4BY
   21    22     1     0     0
SMALL
bcc


@<TRIPOS>ATOM
      1 C1         -0.0430    0.0180   -0.0070 cc        1 4BY     -0.072300
      2 N2          1.3580   -0.0290    0.0010 na        1 4BY     -0.169400
      3 C3         -0.5120    0.0480    1.3100 cd        1 4BY     -0.219200
      4 C4          0.6350    0.0200    2.1820 ca        1 4BY     -0.086800
      5 C5          1.8050   -0.0290    1.3170 ca        1 4BY     -0.067200
      6 C6         -0.8200    0.0290   -1.3170 c         1 4BY      0.926800
      7 C7          0.8120    0.0290    3.5630 ca        1 4BY     -0.094000
      8 O8         -2.0750    0.0710   -1.2450 o         1 4BY     -0.817300
      9 C9          3.0960   -0.0650    1.8630 ca        1 4BY     -0.147000
     10 O10        -0.1470   -0.0050   -2.3860 o         1 4BY     -0.817300
     11 C11         2.0990   -0.0070    4.0930 ca        1 4BY     -0.136300
     12 C12         3.2230   -0.0540    3.2430 ca        1 4BY     -0.143000
     13 C13         2.3120    0.0020    5.5590 c3        1 4BY     -0.031800
     14 H3         -1.5550    0.0860    1.6060 ha        1 4BY      0.157000
     15 H7         -0.0650    0.0660    4.2260 ha        1 4BY      0.117000
     16 H9          3.9810   -0.1020    1.2150 ha        1 4BY      0.115000
     17 H12         4.2250   -0.0820    3.6940 ha        1 4BY      0.105000
     18 H13         2.8610   -0.9190    5.8800 hc        1 4BY      0.024700
     19 H13A        1.3410    0.0400    6.1110 hc        1 4BY      0.024700
     20 H13B        2.9210    0.8900    5.8600 hc        1 4BY      0.024700
     21 HN2         1.9070   -0.0560   -0.8170 hn        1 4BY      0.307700
@<TRIPOS>BOND
     1    1    2 1   
     2    1    3 2   
     3    1    6 1   
     4    2    5 1   
     5    2   21 1   
     6    3    4 1   
     7    3   14 1   
     8    4    5 ar  
     9    4    7 ar  
    10    5    9 ar  
    11    6    8 1   
    12    6   10 1   
    13    7   11 ar  
    14    7   15 1   
    15    9   12 ar  
    16    9   16 1   
    17   11   12 ar  
    18   11   13 1   
    19   12   17 1   
    20   13   18 1   
    21   13   19 1   
    22   13   20 1   
@<TRIPOS>SUBSTRUCTURE
     1 4BY         1 TEMP              0 ****  ****    0 ROOT
