@<TRIPOS>MOLECULE
4BZ
   22    22     1     0     0
SMALL
bcc


@<TRIPOS>ATOM
      1 OA          0.2720   -0.7240   -0.1010 oh        1 4BZ     -0.600800
      2 CB          1.3020    0.2380    0.0530 c3        1 4BZ      0.161700
      3 CG          1.8620    0.1280    1.4350 ca        1 4BZ     -0.020300
      4 CD1         2.7870    1.0890    1.8690 ca        1 4BZ     -0.107500
      5 CD2         1.4890   -0.9150    2.2920 ca        1 4BZ     -0.107500
      6 CE1         3.3320    1.0100    3.1470 ca        1 4BZ     -0.092000
      7 CE2         2.0330   -1.0010    3.5720 ca        1 4BZ     -0.092000
      8 CZ          2.9540   -0.0360    3.9980 ca        1 4BZ     -0.277900
      9 CH          3.5570   -0.1540    5.3390 ce        1 4BZ      0.596800
     10 NQ1         3.0640    0.9360    6.2610 n4        1 4BZ     -0.826600
     11 NQ2         4.3850   -0.9880    5.8370 n2        1 4BZ     -0.713100
     12 HA         -0.0340   -0.6570   -1.0140 ho        1 4BZ      0.427000
     13 HB2         2.1230    0.0520   -0.6960 h1        1 4BZ      0.056700
     14 HB3         0.8870    1.2720   -0.1080 h1        1 4BZ      0.056700
     15 HD1         3.0870    1.9070    1.1940 ha        1 4BZ      0.175500
     16 HD2         0.7600   -1.6690    1.9450 ha        1 4BZ      0.175500
     17 HE1         4.0750    1.7560    3.4680 ha        1 4BZ      0.144500
     18 HE2         1.7390   -1.8290    4.2360 ha        1 4BZ      0.144500
     19 HQ11        3.2180    1.8370    5.7950 hn        1 4BZ      0.469467
     20 HQ12        2.0590    0.8000    6.4060 hn        1 4BZ      0.469467
     21 HQ21        4.7370   -1.7190    5.2520 hn        1 4BZ      0.491400
     22 HQ13        3.5460    0.9270    7.1680 hn        1 4BZ      0.469467
@<TRIPOS>BOND
     1    1    2 1   
     2    1   12 1   
     3    2    3 1   
     4    2   13 1   
     5    2   14 1   
     6    3    4 ar  
     7    3    5 ar  
     8    4    6 ar  
     9    4   15 1   
    10    5    7 ar  
    11    5   16 1   
    12    6    8 ar  
    13    6   17 1   
    14    7    8 ar  
    15    7   18 1   
    16    8    9 1   
    17    9   10 1   
    18    9   11 2   
    19   10   19 1   
    20   10   20 1   
    21   10   22 1   
    22   11   21 1   
@<TRIPOS>SUBSTRUCTURE
     1 4BZ         1 TEMP              0 ****  ****    0 ROOT
