@<TRIPOS>MOLECULE
4BZ
   22    22     1     0     0
SMALL
bcc


@<TRIPOS>ATOM
      1 OA          0.3690   -0.8030   -0.1430 oh        1 4BZ     -0.600800
      2 CB          1.3750    0.1810    0.0250 c3        1 4BZ      0.161700
      3 CG          1.9020    0.0990    1.4220 ca        1 4BZ     -0.020300
      4 CD1         2.7960    1.0830    1.8670 ca        1 4BZ     -0.107500
      5 CD2         1.5300   -0.9420    2.2810 ca        1 4BZ     -0.107500
      6 CE1         3.3110    1.0300    3.1580 ca        1 4BZ     -0.092000
      7 CE2         2.0430   -1.0030    3.5750 ca        1 4BZ     -0.092000
      8 CZ          2.9330   -0.0150    4.0130 ca        1 4BZ     -0.277900
      9 CH          3.5060   -0.1050    5.3690 ce        1 4BZ      0.596800
     10 NQ1         2.9670    0.9850    6.2660 nz        1 4BZ     -0.826600
     11 NQ2         4.3380   -0.9150    5.8970 n2        1 4BZ     -0.713100
     12 HA          0.0840   -0.7530   -1.0640 ho        1 4BZ      0.427000
     13 HB2         2.2180    0.0030   -0.7010 h1        1 4BZ      0.056700
     14 HB3         0.9440    1.2050   -0.1590 h1        1 4BZ      0.056700
     15 HD1         3.0970    1.8990    1.1900 ha        1 4BZ      0.175500
     16 HD2         0.8260   -1.7160    1.9250 ha        1 4BZ      0.175500
     17 HE1         4.0300    1.7950    3.4900 ha        1 4BZ      0.144500
     18 HE2         1.7500   -1.8290    4.2410 ha        1 4BZ      0.144500
     19 HQ11        3.1130    1.8830    5.7940 hn        1 4BZ      0.469467
     20 HQ12        1.9610    0.8290    6.3880 hn        1 4BZ      0.469467
     21 HQ21        4.7200   -1.6450    5.3300 hn        1 4BZ      0.491400
     22 HQ13        3.4250    0.9960    7.1850 hn        1 4BZ      0.469467
@<TRIPOS>BOND
     1    1    2 1   
     2    1   12 1   
     3    2    3 1   
     4    2   13 1   
     5    2   14 1   
     6    3    4 ar  
     7    3    5 ar  
     8    4    6 ar  
     9    4   15 1   
    10    5    7 ar  
    11    5   16 1   
    12    6    8 ar  
    13    6   17 1   
    14    7    8 ar  
    15    7   18 1   
    16    8    9 1   
    17    9   10 1   
    18    9   11 2   
    19   10   19 1   
    20   10   20 1   
    21   10   22 1   
    22   11   21 1   
@<TRIPOS>SUBSTRUCTURE
     1 4BZ         1 TEMP              0 ****  ****    0 ROOT
