@<TRIPOS>MOLECULE
4BZ
   21    21     1     0     0
SMALL
bcc


@<TRIPOS>ATOM
      1 OA          2.8130   -1.1640    4.7920 oh        1 4BZ     -0.593800
      2 CB          1.5910   -0.8930    4.1340 c3        1 4BZ      0.169700
      3 CG          1.7070   -0.8920    2.6440 ca        1 4BZ     -0.117300
      4 CD1         0.7540   -0.2150    1.8770 ca        1 4BZ     -0.126500
      5 CD2         2.7440   -1.5800    2.0050 ca        1 4BZ     -0.126500
      6 CE1         0.8330   -0.2260    0.4850 ca        1 4BZ     -0.103500
      7 CE2         2.8320   -1.5860    0.6150 ca        1 4BZ     -0.103500
      8 CZ          1.8740   -0.9100   -0.1490 ca        1 4BZ     -0.196900
      9 CH          1.9930   -0.9100   -1.6420 ce        1 4BZ      0.637800
     10 NQ1         0.7940   -1.2170   -2.3200 nh        1 4BZ     -0.892800
     11 NQ2         3.0790   -0.5980   -2.2870 n2        1 4BZ     -0.834100
     12 HA          3.4470   -0.4930    4.5100 ho        1 4BZ      0.402000
     13 HB2         1.1760    0.0900    4.4900 h1        1 4BZ      0.057700
     14 HB3         0.9070   -1.7240    4.4660 h1        1 4BZ      0.057700
     15 HD1        -0.0640    0.3300    2.3730 ha        1 4BZ      0.143000
     16 HD2         3.4890   -2.1200    2.6120 ha        1 4BZ      0.143000
     17 HE1         0.0810    0.3120   -0.1130 ha        1 4BZ      0.146000
     18 HE2         3.6520   -2.1290    0.1210 ha        1 4BZ      0.146000
     19 HQ11        0.8870   -1.3800   -3.3000 hn        1 4BZ      0.398300
     20 HQ12        0.2470   -1.9070   -1.8550 hn        1 4BZ      0.398300
     21 HQ21        3.8300   -0.3020   -1.7020 hn        1 4BZ      0.394400
@<TRIPOS>BOND
     1    1    2 1   
     2    1   12 1   
     3    2    3 1   
     4    2   13 1   
     5    2   14 1   
     6    3    4 ar  
     7    3    5 ar  
     8    4    6 ar  
     9    4   15 1   
    10    5    7 ar  
    11    5   16 1   
    12    6    8 ar  
    13    6   17 1   
    14    7    8 ar  
    15    7   18 1   
    16    8    9 1   
    17    9   10 1   
    18    9   11 2   
    19   10   19 1   
    20   10   20 1   
    21   11   21 1   
@<TRIPOS>SUBSTRUCTURE
     1 4BZ         1 TEMP              0 ****  ****    0 ROOT
