@<TRIPOS>MOLECULE
4BZ
   21    18     1     0     0
SMALL
bcc


@<TRIPOS>ATOM
      1 OA         -0.2880   -0.4340   -3.7370 oh        1 4BZ     -0.326000
      2 CB         -1.2820    0.0340   -2.8560 c3        1 4BZ      0.016000
      3 CG         -0.7200    0.0570   -1.4190 c2        1 4BZ     -0.068000
      4 CD1        -0.2070    1.2150   -0.9050 c2        1 4BZ     -0.135000
      5 CD2        -0.6900   -1.1330   -0.6580 c1        1 4BZ     -0.108000
      6 CE1         0.3530    1.2240    0.3850 c1        1 4BZ     -0.114000
      7 CE2        -0.1320   -1.1330    0.6310 c1        1 4BZ     -0.098000
      8 CZ          0.3840    0.0200    1.1530 c1        1 4BZ     -0.115000
      9 CH          0.8670    0.0480    2.6180 c2        1 4BZ      0.116000
     10 NQ1         2.1500   -0.3930    2.9320 n3        1 4BZ     -0.332000
     11 NQ2         0.0670    0.4960    3.5740 n1        1 4BZ     -0.305000
     12 HA         -0.4820   -0.1640   -4.5830 ho        1 4BZ      0.204000
     13 HB2        -2.0380   -0.5470   -2.8930 h1        1 4BZ      0.073500
     14 HB3        -1.5530    0.9400   -3.1170 h1        1 4BZ      0.073500
     15 HD1        -0.2290    1.9710   -1.3940 ha        1 4BZ      0.133000
     16 HD2        -1.0770   -2.0030   -1.0510 ha        1 4BZ      0.158000
     17 HE1         0.7410    2.0950    0.7720 ha        1 4BZ      0.138000
     18 HE2        -0.1130   -1.9170    1.1250 ha        1 4BZ      0.150000
     19 HQ11        2.3560   -0.6210    3.7980 hn        1 4BZ      0.193500
     20 HQ12        2.7340   -0.5670    2.2750 hn        1 4BZ      0.193500
     21 HQ21       -0.8410    0.8140    3.3490 DU        1 4BZ      0.150000
@<TRIPOS>BOND
     1    1    2 1   
     2    1   12 1   
     3    2    3 1   
     4    2   13 1   
     5    2   14 1   
     6    3    4 1   
     7    3    5 1   
     8    4    6 1   
     9    4   15 1   
    10    5   16 1   
    11    6   17 1   
    12    7    8 1   
    13    7   18 1   
    14    8    9 1   
    15    9   10 1   
    16    9   11 1   
    17   10   19 1   
    18   10   20 1   
@<TRIPOS>SUBSTRUCTURE
     1 4BZ         1 TEMP              0 ****  ****    0 ROOT
