@<TRIPOS>MOLECULE
4BZ
   22    22     1     0     0
SMALL
bcc


@<TRIPOS>ATOM
      1 OA          1.0420    1.3110   -0.3500 oh        1 4BZ     -0.601800
      2 CB          1.2540   -0.0280    0.0670 c3        1 4BZ      0.161700
      3 CG          1.8480   -0.0170    1.4390 ca        1 4BZ     -0.019300
      4 CD1         2.2830    1.1750    2.0350 ca        1 4BZ     -0.107500
      5 CD2         1.9800   -1.2280    2.1310 ca        1 4BZ     -0.107500
      6 CE1         2.8390    1.1580    3.3100 ca        1 4BZ     -0.092500
      7 CE2         2.5390   -1.2520    3.4060 ca        1 4BZ     -0.092500
      8 CZ          2.9650   -0.0570    3.9970 ca        1 4BZ     -0.275900
      9 CH          3.5880   -0.0920    5.3330 ce        1 4BZ      0.596800
     10 NQ1         2.7420    0.6280    6.3560 n4        1 4BZ     -0.826600
     11 NQ2         4.6730   -0.6130    5.7590 n2        1 4BZ     -0.714100
     12 HA          0.7020    1.2690   -1.2520 ho        1 4BZ      0.427000
     13 HB2         1.9600   -0.5470   -0.6390 h1        1 4BZ      0.057200
     14 HB3         0.2750   -0.5830    0.0810 h1        1 4BZ      0.057200
     15 HD1         2.1820    2.1260    1.4820 ha        1 4BZ      0.175500
     16 HD2         1.6430   -2.1680    1.6640 ha        1 4BZ      0.175500
     17 HE1         3.2010    2.0980    3.7560 ha        1 4BZ      0.144000
     18 HE2         2.6430   -2.2100    3.9400 ha        1 4BZ      0.144000
     19 HQ11        3.2130    0.7060    7.2660 hn        1 4BZ      0.469467
     20 HQ12        1.8650    0.1100    6.4680 hn        1 4BZ      0.469467
     21 HQ21        5.2620   -1.0890    5.1070 hn        1 4BZ      0.491400
     22 HQ13        2.5350    1.5650    5.9920 hn        1 4BZ      0.469467
@<TRIPOS>BOND
     1    1    2 1   
     2    1   12 1   
     3    2    3 1   
     4    2   13 1   
     5    2   14 1   
     6    3    4 ar  
     7    3    5 ar  
     8    4    6 ar  
     9    4   15 1   
    10    5    7 ar  
    11    5   16 1   
    12    6    8 ar  
    13    6   17 1   
    14    7    8 ar  
    15    7   18 1   
    16    8    9 1   
    17    9   10 1   
    18    9   11 2   
    19   10   19 1   
    20   10   20 1   
    21   10   22 1   
    22   11   21 1   
@<TRIPOS>SUBSTRUCTURE
     1 4BZ         1 TEMP              0 ****  ****    0 ROOT
