@<TRIPOS>MOLECULE
4C0
   43    45     1     0     0
SMALL
bcc


@<TRIPOS>ATOM
      1 C1         -4.7150    3.8280    0.1940 ca        1 4C0     -0.166000
      2 C2         -3.9290    3.7470   -0.9680 ca        1 4C0     -0.141000
      3 C3         -3.1560    2.6290   -1.2500 ca        1 4C0     -0.129000
      4 C4         -4.7590    2.7960    1.1210 ca        1 4C0     -0.088000
      5 C5         -3.9930    1.6480    0.8800 ca        1 4C0      0.073400
      6 C6         -3.1840    1.5750   -0.3300 ca        1 4C0     -0.083200
      7 N7         -2.5650    0.3270   -0.2990 na        1 4C0     -0.267300
      8 C8         -2.9690   -0.3000    0.8990 cc        1 4C0      0.456800
      9 N9         -3.8320    0.4630    1.6180 nd        1 4C0     -0.613100
     10 C10        -2.5180   -1.6710    1.2850 c3        1 4C0     -0.097700
     11 C11        -1.2750   -2.1880    0.5570 c3        1 4C0     -0.079300
     12 N12        -0.0860   -1.4050    0.8330 n         1 4C0     -0.504900
     13 C13         0.6260   -0.7770   -0.1600 c         1 4C0      0.646100
     14 O14         0.1160   -0.4600   -1.2640 o         1 4C0     -0.676100
     15 C15         2.0610   -0.3860    0.1670 c3        1 4C0     -0.152400
     16 C16         2.6980    0.3540   -0.9920 c3        1 4C0     -0.034100
     17 C17         4.1220    0.6860   -0.7180 ca        1 4C0     -0.068300
     18 C18         5.0870   -0.3280   -0.6710 ca        1 4C0     -0.128000
     19 C19         6.4230   -0.0190   -0.4280 ca        1 4C0     -0.132500
     20 C20         6.8110    1.3060   -0.2300 ca        1 4C0     -0.142000
     21 C21         5.8560    2.3210   -0.2760 ca        1 4C0     -0.132500
     22 C22         4.5180    2.0140   -0.5180 ca        1 4C0     -0.128000
     23 C23        -1.1020   -3.6990    1.0060 c         1 4C0      0.913600
     24 O24        -0.1040   -3.9940    1.7180 o         1 4C0     -0.817300
     25 O25        -1.9920   -4.4900    0.6070 o         1 4C0     -0.817300
     26 H1         -5.3090    4.7360    0.3690 ha        1 4C0      0.114000
     27 H2         -3.9270    4.5930   -1.6700 ha        1 4C0      0.114000
     28 H3         -2.5430    2.5710   -2.1580 ha        1 4C0      0.131000
     29 H4         -5.3780    2.8690    2.0250 ha        1 4C0      0.133000
     30 H10        -2.3440   -1.6930    2.3940 hc        1 4C0      0.089700
     31 H10A       -3.3490   -2.3970    1.0550 hc        1 4C0      0.089700
     32 H11        -1.4650   -2.2040   -0.5540 h1        1 4C0      0.067700
     33 HN12        0.4490   -1.7930    1.5890 hn        1 4C0      0.322500
     34 H15         2.0690    0.2590    1.0840 hc        1 4C0      0.066700
     35 H15A        2.6470   -1.3150    0.3950 hc        1 4C0      0.066700
     36 H16         2.6300   -0.2840   -1.9150 hc        1 4C0      0.065200
     37 H16A        2.1070    1.2860   -1.2020 hc        1 4C0      0.065200
     38 H18         4.7810   -1.3740   -0.8260 ha        1 4C0      0.135000
     39 H19         7.1730   -0.8230   -0.3910 ha        1 4C0      0.124500
     40 H20         7.8650    1.5490   -0.0370 ha        1 4C0      0.122000
     41 H21         6.1570    3.3670   -0.1190 ha        1 4C0      0.124500
     42 H22         3.7680    2.8180   -0.5520 ha        1 4C0      0.135000
     43 HN7        -1.8680   -0.0030   -0.9250 hn        1 4C0      0.340700
@<TRIPOS>BOND
     1    1    2 ar  
     2    1    4 ar  
     3    1   26 1   
     4    2    3 ar  
     5    2   27 1   
     6    3    6 ar  
     7    3   28 1   
     8    4    5 ar  
     9    4   29 1   
    10    5    6 ar  
    11    5    9 1   
    12    6    7 1   
    13    7    8 1   
    14    7   43 1   
    15    8    9 2   
    16    8   10 1   
    17   10   11 1   
    18   10   30 1   
    19   10   31 1   
    20   11   12 1   
    21   11   23 1   
    22   11   32 1   
    23   12   13 1   
    24   12   33 1   
    25   13   14 2   
    26   13   15 1   
    27   15   16 1   
    28   15   34 1   
    29   15   35 1   
    30   16   17 1   
    31   16   36 1   
    32   16   37 1   
    33   17   18 ar  
    34   17   22 ar  
    35   18   19 ar  
    36   18   38 1   
    37   19   20 ar  
    38   19   39 1   
    39   20   21 ar  
    40   20   40 1   
    41   21   22 ar  
    42   21   41 1   
    43   22   42 1   
    44   23   24 1   
    45   23   25 1   
@<TRIPOS>SUBSTRUCTURE
     1 4C0         1 TEMP              0 ****  ****    0 ROOT
