@<TRIPOS>MOLECULE
4C0
   43    36     1     0     0
SMALL
bcc


@<TRIPOS>ATOM
      1 C1          7.1570    0.0120   -2.8480 c1        1 4C0     -0.135333
      2 C2          7.2930   -0.0170   -1.4690 c1        1 4C0     -0.135333
      3 C3          6.1720   -0.1310   -0.6630 c1        1 4C0     -0.135333
      4 C4          5.8980   -0.0730   -3.4210 c1        1 4C0     -0.135333
      5 C5          4.7580   -0.1880   -2.6030 c1        1 4C0     -0.054000
      6 C6          4.8930   -0.2160   -1.2450 c1        1 4C0     -0.054000
      7 N7          3.6540   -0.3110   -0.7040 n1        1 4C0     -0.199500
      8 C8          2.7520   -0.3410   -1.7210 c1        1 4C0      0.041000
      9 N9          3.4370   -0.2650   -2.8930 n1        1 4C0     -0.199500
     10 C10         1.2760   -0.6490   -1.7850 c2        1 4C0     -0.096000
     11 C11         0.5010    0.4520   -1.0960 c3        1 4C0     -0.080000
     12 N12        -0.8890    0.1920   -1.2080 n         1 4C0     -0.326000
     13 C13        -1.8210    1.0370   -0.5570 c2        1 4C0      0.287000
     14 O14        -1.5780    2.2190   -0.4200 o         1 4C0     -0.393000
     15 C15        -3.1340    0.4730   -0.0630 c3        1 4C0     -0.185000
     16 C16        -3.5400    1.1830    1.2090 c3        1 4C0     -0.126000
     17 C17        -4.4420    0.2820    2.0240 c2        1 4C0     -0.083000
     18 C18        -3.8910   -0.6240    2.9170 c2        1 4C0     -0.120000
     19 C19        -4.7180   -1.4010    3.7140 c1        1 4C0     -0.126000
     20 C20        -6.0940   -1.2720    3.6180 c1        1 4C0     -0.135333
     21 C21        -6.6440   -0.3670    2.7250 c1        1 4C0     -0.135333
     22 C22        -5.8180    0.4100    1.9270 c1        1 4C0     -0.137000
     23 C23         0.8890    0.5020    0.3660 c2        1 4C0      0.324000
     24 O24         0.5030   -0.4030    1.1520 o         1 4C0     -0.566000
     25 O25         1.5960    1.4510    0.7980 o         1 4C0     -0.566000
     26 H1          7.9470    0.0910   -3.4150 ha        1 4C0      0.120167
     27 H2          8.1800    0.0420   -1.0650 ha        1 4C0      0.120167
     28 H3          6.2680   -0.1510    0.3080 ha        1 4C0      0.120167
     29 H4          5.8030   -0.0710   -4.3920 ha        1 4C0      0.120167
     30 H10         1.1010   -1.5000   -1.3370 ha        1 4C0      0.110000
     31 H10A        0.9960   -0.7080   -2.7200 ha        1 4C0      0.110000
     32 H11         0.7080    1.3090   -1.5180 h1        1 4C0      0.124000
     33 HN12       -1.1830   -0.5070   -1.7140 hn        1 4C0      0.230000
     34 H15        -3.0320   -0.4830    0.1160 hc        1 4C0      0.102000
     35 H15A       -3.8230    0.6050   -0.7440 hc        1 4C0      0.102000
     36 H16        -4.0180    2.0060    0.9850 hc        1 4C0      0.097500
     37 H16A       -2.7410    1.4010    1.7300 hc        1 4C0      0.097500
     38 H18        -2.9220   -0.6990    3.0000 ha        1 4C0      0.203000
     39 H19        -4.3300   -2.0380    4.3440 ha        1 4C0      0.136000
     40 H20        -6.6750   -1.8020    4.1950 ha        1 4C0      0.120167
     41 H21        -7.6140   -0.2770    2.6560 ha        1 4C0      0.120167
     42 H22        -6.3340    1.1860    1.6340 ha        1 4C0      0.120000
     43 HN7         3.4590   -0.3570    0.1860 DU        1 4C0      0.317000
@<TRIPOS>BOND
     1    1    4 1   
     2    1   26 1   
     3    2    3 1   
     4    2   27 1   
     5    3   28 1   
     6    4   29 1   
     7    5    6 1   
     8    7    8 1   
     9    8    9 1   
    10   10   11 1   
    11   10   30 1   
    12   10   31 1   
    13   11   12 1   
    14   11   23 1   
    15   11   32 1   
    16   12   13 1   
    17   12   33 1   
    18   13   14 1   
    19   13   15 1   
    20   15   16 1   
    21   15   34 1   
    22   15   35 1   
    23   16   17 1   
    24   16   36 1   
    25   16   37 1   
    26   17   18 1   
    27   17   22 1   
    28   18   19 1   
    29   18   38 1   
    30   19   39 1   
    31   20   21 1   
    32   20   40 1   
    33   21   41 1   
    34   22   42 1   
    35   23   24 1   
    36   23   25 1   
@<TRIPOS>SUBSTRUCTURE
     1 4C0         1 TEMP              0 ****  ****    0 ROOT
