@<TRIPOS>MOLECULE
4C0
   44    46     1     0     0
SMALL
bcc


@<TRIPOS>ATOM
      1 C1         -1.0780    0.8250    0.3280 ca        1 4C0     -0.142000
      2 C2          0.2760    0.5560    0.0510 ca        1 4C0     -0.112000
      3 C3          1.1860    0.2780    1.0590 ca        1 4C0     -0.124000
      4 C4         -1.5740    0.8260    1.6220 ca        1 4C0     -0.082000
      5 C5         -0.6880    0.5500    2.6730 ca        1 4C0      0.077400
      6 C6          0.7070    0.2740    2.3750 ca        1 4C0     -0.072200
      7 N7          1.3220    0.0360    3.6070 na        1 4C0     -0.264300
      8 C8          0.3240    0.1760    4.5930 cc        1 4C0      0.422800
      9 N9         -0.8850    0.4790    4.0640 nd        1 4C0     -0.654100
     10 C10         0.6040   -0.0300    6.0450 c3        1 4C0     -0.107700
     11 C11        -0.0360    1.0220    6.9330 c3        1 4C0     -0.063500
     12 N12        -1.5290    1.0350    6.8780 ny        1 4C0     -0.650800
     13 C13        -2.1530    2.1330    6.0800 c         1 4C0      0.563100
     14 O14        -1.5160    3.1610    5.8910 o         1 4C0     -0.444100
     15 C15        -3.5490    1.8450    5.5960 c3        1 4C0     -0.157400
     16 C16        -4.2070    3.1080    5.0670 c3        1 4C0     -0.031100
     17 C17        -5.5340    2.7980    4.4690 ca        1 4C0     -0.096300
     18 C18        -6.7120    3.1680    5.1250 ca        1 4C0     -0.123000
     19 C19        -7.9520    2.8880    4.5510 ca        1 4C0     -0.125500
     20 C20        -8.0230    2.2360    3.3200 ca        1 4C0     -0.122000
     21 C21        -6.8500    1.8670    2.6610 ca        1 4C0     -0.125500
     22 C22        -5.6100    2.1460    3.2310 ca        1 4C0     -0.123000
     23 C23         0.4340    0.7480    8.4520 c         1 4C0      0.937600
     24 O24         1.6530    0.5610    8.5940 o         1 4C0     -0.757300
     25 O25        -0.4950    0.7640    9.3000 o         1 4C0     -0.757300
     26 H1         -1.7560    1.0400   -0.5120 ha        1 4C0      0.136000
     27 H2          0.6170    0.5690   -0.9950 ha        1 4C0      0.137000
     28 H3          2.2410    0.0690    0.8360 ha        1 4C0      0.141000
     29 H4         -2.6330    1.0380    1.8260 ha        1 4C0      0.137000
     30 H10         1.7100    0.0180    6.2620 hc        1 4C0      0.102700
     31 H10A        0.2570   -1.0610    6.3330 hc        1 4C0      0.102700
     32 H11         0.3390    2.0490    6.6630 hx        1 4C0      0.117700
     33 HN12       -1.8680    0.1370    6.5290 hn        1 4C0      0.468300
     34 H15        -4.1680    1.4110    6.4270 hc        1 4C0      0.097200
     35 H15A       -3.4840    1.0790    4.7730 hc        1 4C0      0.097200
     36 H16        -3.5400    3.5770    4.2920 hc        1 4C0      0.070700
     37 H16A       -4.3150    3.8510    5.9020 hc        1 4C0      0.070700
     38 H18        -6.6620    3.6880    6.0930 ha        1 4C0      0.132500
     39 H19        -8.8750    3.1840    5.0710 ha        1 4C0      0.136500
     40 H20        -9.0010    2.0160    2.8680 ha        1 4C0      0.137000
     41 H21        -6.9030    1.3560    1.6880 ha        1 4C0      0.136500
     42 H22        -4.6850    1.8600    2.7070 ha        1 4C0      0.132500
     43 HN7         2.2770   -0.1480    3.7650 hn        1 4C0      0.315700
     44 H122       -1.8310    1.1320    7.8830 hn        1 4C0      0.468300
@<TRIPOS>BOND
     1    1    2 ar  
     2    1    4 ar  
     3    1   26 1   
     4    2    3 ar  
     5    2   27 1   
     6    3    6 ar  
     7    3   28 1   
     8    4    5 ar  
     9    4   29 1   
    10    5    6 ar  
    11    5    9 1   
    12    6    7 1   
    13    7    8 1   
    14    7   43 1   
    15    8    9 2   
    16    8   10 1   
    17   10   11 1   
    18   10   30 1   
    19   10   31 1   
    20   11   12 1   
    21   11   23 1   
    22   11   32 1   
    23   12   13 1   
    24   12   33 1   
    25   12   44 1   
    26   13   14 2   
    27   13   15 1   
    28   15   16 1   
    29   15   34 1   
    30   15   35 1   
    31   16   17 1   
    32   16   36 1   
    33   16   37 1   
    34   17   18 ar  
    35   17   22 ar  
    36   18   19 ar  
    37   18   38 1   
    38   19   20 ar  
    39   19   39 1   
    40   20   21 ar  
    41   20   40 1   
    42   21   22 ar  
    43   21   41 1   
    44   22   42 1   
    45   23   24 1   
    46   23   25 1   
@<TRIPOS>SUBSTRUCTURE
     1 4C0         1 TEMP              0 ****  ****    0 ROOT
