@<TRIPOS>MOLECULE
4C0
   44    46     1     0     0
SMALL
bcc


@<TRIPOS>ATOM
      1 C1         -1.0830    0.8050    0.3290 ca        1 4C0     -0.142000
      2 C2          0.2710    0.5420    0.0520 ca        1 4C0     -0.112000
      3 C3          1.1850    0.2770    1.0600 ca        1 4C0     -0.124000
      4 C4         -1.5770    0.8140    1.6240 ca        1 4C0     -0.082000
      5 C5         -0.6870    0.5510    2.6760 ca        1 4C0      0.077400
      6 C6          0.7090    0.2800    2.3770 ca        1 4C0     -0.072200
      7 N7          1.3270    0.0550    3.6100 na        1 4C0     -0.264300
      8 C8          0.3310    0.1970    4.5960 cc        1 4C0      0.422800
      9 N9         -0.8810    0.4890    4.0670 nd        1 4C0     -0.654100
     10 C10         0.6150    0.0040    6.0500 c3        1 4C0     -0.107700
     11 C11        -0.0280    1.0590    6.9310 c3        1 4C0     -0.063500
     12 N12        -1.5220    1.0640    6.8790 n4        1 4C0     -0.650800
     13 C13        -2.1540    2.1520    6.0740 c         1 4C0      0.563100
     14 O14        -1.5220    3.1820    5.8740 o         1 4C0     -0.444100
     15 C15        -3.5490    1.8530    5.5950 c3        1 4C0     -0.157400
     16 C16        -4.2140    3.1080    5.0550 c3        1 4C0     -0.031100
     17 C17        -5.5410    2.7860    4.4630 ca        1 4C0     -0.096300
     18 C18        -6.7190    3.1580    5.1190 ca        1 4C0     -0.123000
     19 C19        -7.9590    2.8660    4.5520 ca        1 4C0     -0.125500
     20 C20        -8.0300    2.2020    3.3270 ca        1 4C0     -0.122000
     21 C21        -6.8580    1.8310    2.6680 ca        1 4C0     -0.125500
     22 C22        -5.6170    2.1220    3.2330 ca        1 4C0     -0.123000
     23 C23         0.4460    0.7990    8.4500 c         1 4C0      0.937600
     24 O24         1.6660    0.6200    8.5920 o         1 4C0     -0.757300
     25 O25        -0.4820    0.8170    9.3000 o         1 4C0     -0.757300
     26 H1         -1.7650    1.0100   -0.5100 ha        1 4C0      0.136000
     27 H2          0.6110    0.5490   -0.9950 ha        1 4C0      0.137000
     28 H3          2.2410    0.0730    0.8360 ha        1 4C0      0.141000
     29 H4         -2.6370    1.0210    1.8290 ha        1 4C0      0.137000
     30 H10         0.2750   -1.0260    6.3460 hc        1 4C0      0.102700
     31 H10A        1.7210    0.0590    6.2640 hc        1 4C0      0.102700
     32 H11         0.3400    2.0860    6.6510 hx        1 4C0      0.117700
     33 HN12       -1.8220    1.1670    7.8830 hn        1 4C0      0.468300
     34 H15        -4.1640    1.4250    6.4310 hc        1 4C0      0.097200
     35 H15A       -3.4820    1.0790    4.7790 hc        1 4C0      0.097200
     36 H16        -4.3230    3.8580    5.8830 hc        1 4C0      0.070700
     37 H16A       -3.5510    3.5720    4.2740 hc        1 4C0      0.070700
     38 H18        -6.6690    3.6870    6.0830 ha        1 4C0      0.132500
     39 H19        -8.8820    3.1630    5.0720 ha        1 4C0      0.136500
     40 H20        -9.0090    1.9730    2.8810 ha        1 4C0      0.137000
     41 H21        -6.9110    1.3100    1.7010 ha        1 4C0      0.136500
     42 H22        -4.6930    1.8350    2.7090 ha        1 4C0      0.132500
     43 HN7         2.2840   -0.1220    3.7670 hn        1 4C0      0.315700
     44 H122       -1.8570    0.1610    6.5370 hn        1 4C0      0.468300
@<TRIPOS>BOND
     1    1    2 ar  
     2    1    4 ar  
     3    1   26 1   
     4    2    3 ar  
     5    2   27 1   
     6    3    6 ar  
     7    3   28 1   
     8    4    5 ar  
     9    4   29 1   
    10    5    6 ar  
    11    5    9 1   
    12    6    7 1   
    13    7    8 1   
    14    7   43 1   
    15    8    9 2   
    16    8   10 1   
    17   10   11 1   
    18   10   30 1   
    19   10   31 1   
    20   11   12 1   
    21   11   23 1   
    22   11   32 1   
    23   12   13 1   
    24   12   33 1   
    25   12   44 1   
    26   13   14 2   
    27   13   15 1   
    28   15   16 1   
    29   15   34 1   
    30   15   35 1   
    31   16   17 1   
    32   16   36 1   
    33   16   37 1   
    34   17   18 ar  
    35   17   22 ar  
    36   18   19 ar  
    37   18   38 1   
    38   19   20 ar  
    39   19   39 1   
    40   20   21 ar  
    41   20   40 1   
    42   21   22 ar  
    43   21   41 1   
    44   22   42 1   
    45   23   24 1   
    46   23   25 1   
@<TRIPOS>SUBSTRUCTURE
     1 4C0         1 TEMP              0 ****  ****    0 ROOT
