@<TRIPOS>MOLECULE
4C0
   44    46     1     0     0
SMALL
bcc


@<TRIPOS>ATOM
      1 C1         -1.0910    0.8100    0.3250 ca        1 4C0     -0.142000
      2 C2          0.2620    0.5440    0.0450 ca        1 4C0     -0.112000
      3 C3          1.1780    0.2740    1.0500 ca        1 4C0     -0.124000
      4 C4         -1.5830    0.8160    1.6210 ca        1 4C0     -0.082000
      5 C5         -0.6920    0.5480    2.6710 ca        1 4C0      0.077400
      6 C6          0.7030    0.2750    2.3680 ca        1 4C0     -0.072200
      7 N7          1.3240    0.0460    3.5990 na        1 4C0     -0.264300
      8 C8          0.3290    0.1870    4.5880 cc        1 4C0      0.422800
      9 N9         -0.8830    0.4830    4.0620 nd        1 4C0     -0.654100
     10 C10         0.6160   -0.0100    6.0400 c3        1 4C0     -0.107700
     11 C11        -0.0240    1.0430    6.9250 c3        1 4C0     -0.063500
     12 N12        -1.5180    1.0510    6.8760 n4        1 4C0     -0.650800
     13 C13        -2.1490    2.1430    6.0750 c         1 4C0      0.563100
     14 O14        -1.5160    3.1720    5.8770 o         1 4C0     -0.444100
     15 C15        -3.5460    1.8470    5.5990 c3        1 4C0     -0.157400
     16 C16        -4.2100    3.1040    5.0630 c3        1 4C0     -0.031100
     17 C17        -5.5380    2.7870    4.4730 ca        1 4C0     -0.096300
     18 C18        -6.7150    3.1590    5.1320 ca        1 4C0     -0.123000
     19 C19        -7.9560    2.8720    4.5660 ca        1 4C0     -0.125500
     20 C20        -8.0310    2.2100    3.3410 ca        1 4C0     -0.122000
     21 C21        -6.8600    1.8380    2.6790 ca        1 4C0     -0.125500
     22 C22        -5.6190    2.1250    3.2410 ca        1 4C0     -0.123000
     23 C23         0.4520    0.7790    8.4430 c         1 4C0      0.937600
     24 O24         1.6730    0.5970    8.5820 o         1 4C0     -0.757300
     25 O25        -0.4730    0.7960    9.2950 o         1 4C0     -0.757300
     26 H1         -1.7740    1.0180   -0.5130 ha        1 4C0      0.136000
     27 H2          0.6000    0.5530   -1.0030 ha        1 4C0      0.137000
     28 H3          2.2320    0.0690    0.8240 ha        1 4C0      0.141000
     29 H4         -2.6420    1.0250    1.8290 ha        1 4C0      0.137000
     30 H10         1.7230    0.0420    6.2530 hc        1 4C0      0.102700
     31 H10A        0.2740   -1.0410    6.3350 hc        1 4C0      0.102700
     32 H11         0.3460    2.0700    6.6480 hx        1 4C0      0.117700
     33 HN12       -1.8160    1.1520    7.8820 hn        1 4C0      0.468300
     34 H15        -4.1600    1.4180    6.4350 hc        1 4C0      0.097200
     35 H15A       -3.4810    1.0750    4.7800 hc        1 4C0      0.097200
     36 H16        -3.5470    3.5690    4.2820 hc        1 4C0      0.070700
     37 H16A       -4.3160    3.8530    5.8930 hc        1 4C0      0.070700
     38 H18        -6.6610    3.6870    6.0970 ha        1 4C0      0.132500
     39 H19        -8.8780    3.1690    5.0880 ha        1 4C0      0.136500
     40 H20        -9.0110    1.9840    2.8950 ha        1 4C0      0.137000
     41 H21        -6.9170    1.3200    1.7100 ha        1 4C0      0.136500
     42 H22        -4.6950    1.8380    2.7150 ha        1 4C0      0.132500
     43 HN7         2.2800   -0.1340    3.7540 hn        1 4C0      0.315700
     44 H122       -1.8550    0.1490    6.5320 hn        1 4C0      0.468300
@<TRIPOS>BOND
     1    1    2 ar  
     2    1    4 ar  
     3    1   26 1   
     4    2    3 ar  
     5    2   27 1   
     6    3    6 ar  
     7    3   28 1   
     8    4    5 ar  
     9    4   29 1   
    10    5    6 ar  
    11    5    9 1   
    12    6    7 1   
    13    7    8 1   
    14    7   43 1   
    15    8    9 2   
    16    8   10 1   
    17   10   11 1   
    18   10   30 1   
    19   10   31 1   
    20   11   12 1   
    21   11   23 1   
    22   11   32 1   
    23   12   13 1   
    24   12   33 1   
    25   12   44 1   
    26   13   14 2   
    27   13   15 1   
    28   15   16 1   
    29   15   34 1   
    30   15   35 1   
    31   16   17 1   
    32   16   36 1   
    33   16   37 1   
    34   17   18 ar  
    35   17   22 ar  
    36   18   19 ar  
    37   18   38 1   
    38   19   20 ar  
    39   19   39 1   
    40   20   21 ar  
    41   20   40 1   
    42   21   22 ar  
    43   21   41 1   
    44   22   42 1   
    45   23   24 1   
    46   23   25 1   
@<TRIPOS>SUBSTRUCTURE
     1 4C0         1 TEMP              0 ****  ****    0 ROOT
