@<TRIPOS>MOLECULE
4C1
   88    91     1     0     0
SMALL
bcc


@<TRIPOS>ATOM
      1 CAY         0.3390   -2.5020    4.2400 c3        1 4C1      0.103700
      2 OAX         1.5150   -1.9750    4.8490 os        1 4C1     -0.294900
      3 CAS         1.5230   -0.6190    5.0840 ca        1 4C1      0.088100
      4 CAR         0.4750    0.2480    4.8170 ca        1 4C1     -0.079000
      5 CAT         2.7340   -0.1140    5.6540 ca        1 4C1      0.202100
      6 OAW         3.7080   -1.0430    5.8770 os        1 4C1     -0.280900
      7 CAZ         4.9370   -0.5680    6.4290 c3        1 4C1      0.102700
      8 CAU         2.8410    1.2520    5.9400 ca        1 4C1     -0.223000
      9 CAV         1.7750    2.1010    5.6640 ca        1 4C1      0.006000
     10 CAQ         0.5860    1.6240    5.1060 ca        1 4C1     -0.440500
     11 SAN        -0.7010    2.6190    4.8000 sy        1 4C1      1.561200
     12 OAO        -1.8770    1.8900    4.5430 o         1 4C1     -0.712800
     13 OAP        -0.9010    3.5190    5.8970 o         1 4C1     -0.712800
     14 NAM        -0.1790    3.4310    3.4990 nh        1 4C1     -0.777500
     15 CAB        -0.9150    4.4320    2.8370 ca        1 4C1      0.136600
     16 CAA        -2.3200    4.3090    2.6940 ca        1 4C1     -0.173000
     17 CAF        -3.0180    5.3350    2.0790 ca        1 4C1      0.000600
     18 NAI        -4.4120    5.5120    1.9010 n         1 4C1     -0.330000
     19 CAK        -5.3090    4.4120    1.7080 c3        1 4C1      0.067300
     20 CAH        -4.5770    6.7360    1.1440 c         1 4C1      0.764500
     21 OAJ        -5.6580    7.1960    0.7560 o         1 4C1     -0.580500
     22 NAG        -3.3000    7.4000    1.0490 n         1 4C1     -0.331000
     23 CAL        -3.0270    8.3510    0.0140 c3        1 4C1      0.072300
     24 CAE        -2.3340    6.5000    1.5510 ca        1 4C1     -0.003400
     25 CAD        -0.9540    6.5990    1.6390 ca        1 4C1     -0.124000
     26 CAC        -0.2620    5.5640    2.2870 ca        1 4C1      0.071100
     27 OBA         1.1340    5.5650    2.2820 os        1 4C1     -0.256200
     28 CBB         1.7480    6.6600    2.8870 ca        1 4C1      0.169100
     29 CBC         1.1380    7.4000    3.9040 ca        1 4C1     -0.302000
     30 CBG         3.0520    6.9200    2.4480 ca        1 4C1     -0.255000
     31 CBF         3.7580    7.9610    3.0660 ca        1 4C1      0.193100
     32 OBH         5.0450    8.3180    2.7450 os        1 4C1     -0.318900
     33 CBJ         5.6440    7.6190    1.6410 c3        1 4C1      0.126400
     34 CBK         7.0150    8.2450    1.4560 c3        1 4C1     -0.087400
     35 CBL         7.7440    7.5810    0.3180 c3        1 4C1     -0.095100
     36 CBE         3.1800    8.7310    4.0930 ca        1 4C1     -0.204000
     37 CBD         1.8710    8.4380    4.4950 ca        1 4C1      0.172100
     38 OBI         1.3890    9.2560    5.5010 os        1 4C1     -0.312900
     39 CBM         0.0750    8.9950    5.9860 c3        1 4C1      0.129400
     40 CBN         0.0570    7.7660    6.8840 c3        1 4C1     -0.118400
     41 CBO        -1.3150    7.1260    6.9010 c3        1 4C1     -0.098400
     42 CBP        -1.2820    5.9070    7.8140 c3        1 4C1      0.114800
     43 NBQ        -2.4710    5.0050    7.6670 n4        1 4C1     -0.672400
     44 CBR        -2.3280    3.8260    8.5610 c3        1 4C1      0.087100
     45 CBS        -3.7470    5.7120    7.9190 c3        1 4C1      0.087100
     46 H1          0.1700   -2.0370    3.2390 h1        1 4C1      0.055033
     47 H2          0.5760   -3.5920    4.1360 h1        1 4C1      0.055033
     48 H3         -0.5480   -2.3520    4.9020 h1        1 4C1      0.055033
     49 H4         -0.4670   -0.1300    4.3810 ha        1 4C1      0.172000
     50 H5          5.4150    0.1720    5.7430 h1        1 4C1      0.060033
     51 H6          5.5540   -1.5010    6.5020 h1        1 4C1      0.060033
     52 H7          4.7660   -0.1240    7.4390 h1        1 4C1      0.060033
     53 H8          3.7650    1.6590    6.3780 ha        1 4C1      0.159000
     54 H9          1.8720    3.1760    5.8980 ha        1 4C1      0.142000
     55 H10         0.7410    3.3250    3.1280 hn        1 4C1      0.479800
     56 H11        -2.8490    3.4090    3.0500 ha        1 4C1      0.176000
     57 H12        -5.2920    3.7730    2.6300 h1        1 4C1      0.061700
     58 H13        -5.0240    3.7800    0.8240 h1        1 4C1      0.061700
     59 H14        -6.3430    4.8220    1.5490 h1        1 4C1      0.061700
     60 H15        -2.6670    7.8580   -0.9290 h1        1 4C1      0.063033
     61 H16        -3.9720    8.9190   -0.2050 h1        1 4C1      0.063033
     62 H17        -2.2370    9.0590    0.3800 h1        1 4C1      0.063033
     63 H18        -0.4000    7.4550    1.2270 ha        1 4C1      0.172000
     64 H19         0.1100    7.1680    4.2100 ha        1 4C1      0.142000
     65 H20         3.4870    6.3120    1.6440 ha        1 4C1      0.163000
     66 H21         5.0100    7.7500    0.7260 h1        1 4C1      0.043200
     67 H22         5.7250    6.5290    1.8950 h1        1 4C1      0.043200
     68 H23         7.6000    8.1430    2.4080 hc        1 4C1      0.061200
     69 H24         6.8970    9.3420    1.2560 hc        1 4C1      0.061200
     70 H25         7.1780    7.6950   -0.6370 hc        1 4C1      0.041033
     71 H26         7.8840    6.4910    0.5170 hc        1 4C1      0.041033
     72 H27         8.7510    8.0470    0.1890 hc        1 4C1      0.041033
     73 H28         3.7450    9.5480    4.5620 ha        1 4C1      0.177000
     74 H29        -0.1590    9.9260    6.5730 h1        1 4C1      0.067700
     75 H30        -0.6500    8.9010    5.1360 h1        1 4C1      0.067700
     76 H31         0.8180    7.0290    6.5120 hc        1 4C1      0.068700
     77 H32         0.3600    8.0600    7.9230 hc        1 4C1      0.068700
     78 H33        -1.5990    6.8280    5.8560 hc        1 4C1      0.063700
     79 H34        -2.0740    7.8670    7.2660 hc        1 4C1      0.063700
     80 H35        -1.2210    6.2310    8.8900 hx        1 4C1      0.105200
     81 H36        -0.3790    5.2730    7.5590 hx        1 4C1      0.105200
     82 H38        -1.4110    3.2540    8.2480 hx        1 4C1      0.099200
     83 H39        -3.2310    3.1690    8.4520 hx        1 4C1      0.099200
     84 H40        -2.2310    4.1670    9.6240 hx        1 4C1      0.099200
     85 H41        -4.6000    4.9880    7.8260 hx        1 4C1      0.099200
     86 H42        -3.7390    6.1510    8.9510 hx        1 4C1      0.099200
     87 H43        -3.8740    6.5330    7.1630 hx        1 4C1      0.099200
     88 HBQ1       -2.4620    4.6540    6.6890 hn        1 4C1      0.486800
@<TRIPOS>BOND
     1    1    2 1   
     2    1   46 1   
     3    1   47 1   
     4    1   48 1   
     5    2    3 1   
     6    3    4 ar  
     7    3    5 ar  
     8    4   10 ar  
     9    4   49 1   
    10    5    6 1   
    11    5    8 ar  
    12    6    7 1   
    13    7   50 1   
    14    7   51 1   
    15    7   52 1   
    16    8    9 ar  
    17    8   53 1   
    18    9   10 ar  
    19    9   54 1   
    20   10   11 1   
    21   11   12 2   
    22   11   13 2   
    23   11   14 1   
    24   14   15 1   
    25   14   55 1   
    26   15   16 ar  
    27   15   26 ar  
    28   16   17 ar  
    29   16   56 1   
    30   17   18 1   
    31   17   24 ar  
    32   18   19 1   
    33   18   20 1   
    34   19   57 1   
    35   19   58 1   
    36   19   59 1   
    37   20   21 2   
    38   20   22 1   
    39   22   23 1   
    40   22   24 1   
    41   23   60 1   
    42   23   61 1   
    43   23   62 1   
    44   24   25 ar  
    45   25   26 ar  
    46   25   63 1   
    47   26   27 1   
    48   27   28 1   
    49   28   29 ar  
    50   28   30 ar  
    51   29   37 ar  
    52   29   64 1   
    53   30   31 ar  
    54   30   65 1   
    55   31   32 1   
    56   31   36 ar  
    57   32   33 1   
    58   33   34 1   
    59   33   66 1   
    60   33   67 1   
    61   34   35 1   
    62   34   68 1   
    63   34   69 1   
    64   35   70 1   
    65   35   71 1   
    66   35   72 1   
    67   36   37 ar  
    68   36   73 1   
    69   37   38 1   
    70   38   39 1   
    71   39   40 1   
    72   39   74 1   
    73   39   75 1   
    74   40   41 1   
    75   40   76 1   
    76   40   77 1   
    77   41   42 1   
    78   41   78 1   
    79   41   79 1   
    80   42   43 1   
    81   42   80 1   
    82   42   81 1   
    83   43   44 1   
    84   43   45 1   
    85   43   88 1   
    86   44   82 1   
    87   44   83 1   
    88   44   84 1   
    89   45   85 1   
    90   45   86 1   
    91   45   87 1   
@<TRIPOS>SUBSTRUCTURE
     1 4C1         1 TEMP              0 ****  ****    0 ROOT
