@<TRIPOS>MOLECULE
4C1
   88    91     1     0     0
SMALL
bcc


@<TRIPOS>ATOM
      1 CAY         0.4380   -2.4930    4.5650 c3        1 4C1      0.103700
      2 OAX         1.6280   -1.9260    5.1090 os        1 4C1     -0.294900
      3 CAS         1.6260   -0.5610    5.2840 ca        1 4C1      0.088100
      4 CAR         0.5580    0.2820    5.0160 ca        1 4C1     -0.079000
      5 CAT         2.8490   -0.0160    5.7890 ca        1 4C1      0.202100
      6 OAW         3.8420   -0.9230    6.0180 os        1 4C1     -0.280900
      7 CAZ         5.0830   -0.4100    6.5050 c3        1 4C1      0.102700
      8 CAU         2.9470    1.3620    6.0110 ca        1 4C1     -0.223000
      9 CAV         1.8610    2.1860    5.7360 ca        1 4C1      0.006000
     10 CAQ         0.6600    1.6710    5.2410 ca        1 4C1     -0.440500
     11 SAN        -0.6490    2.6350    4.9380 sy        1 4C1      1.561200
     12 OAO        -1.8230    1.8820    4.7530 o         1 4C1     -0.712800
     13 OAP        -0.8250    3.5800    6.0010 o         1 4C1     -0.712800
     14 NAM        -0.1840    3.3970    3.5860 nu        1 4C1     -0.777500
     15 CAB        -0.9540    4.3600    2.9080 ca        1 4C1      0.136600
     16 CAA        -2.3620    4.2150    2.8200 ca        1 4C1     -0.173000
     17 CAF        -3.0940    5.2060    2.1870 ca        1 4C1      0.001600
     18 NAI        -4.4950    5.3590    2.0500 n         1 4C1     -0.330000
     19 CAK        -5.3850    4.2420    1.9360 c3        1 4C1      0.067300
     20 CAH        -4.7020    6.5470    1.2470 c         1 4C1      0.764500
     21 OAJ        -5.8020    6.9780    0.8790 o         1 4C1     -0.580500
     22 NAG        -3.4370    7.2210    1.0790 n         1 4C1     -0.331000
     23 CAL        -3.2130    8.1290   -0.0040 c3        1 4C1      0.072300
     24 CAE        -2.4430    6.3550    1.5850 ca        1 4C1     -0.003400
     25 CAD        -1.0630    6.4720    1.6210 ca        1 4C1     -0.124000
     26 CAC        -0.3360    5.4740    2.2880 ca        1 4C1      0.071100
     27 OBA         1.0590    5.4900    2.2330 os        1 4C1     -0.256200
     28 CBB         1.6800    6.6170    2.7700 ca        1 4C1      0.169100
     29 CBC         1.0950    7.3930    3.7740 ca        1 4C1     -0.302000
     30 CBG         2.9650    6.8720    2.2750 ca        1 4C1     -0.255000
     31 CBF         3.6790    7.9470    2.8240 ca        1 4C1      0.193100
     32 OBH         4.9490    8.3040    2.4440 os        1 4C1     -0.318900
     33 CBJ         5.5190    7.5640    1.3510 c3        1 4C1      0.126400
     34 CBK         6.8760    8.1960    1.0930 c3        1 4C1     -0.087400
     35 CBL         7.5740    7.4920   -0.0410 c3        1 4C1     -0.095100
     36 CBE         3.1270    8.7530    3.8360 ca        1 4C1     -0.204000
     37 CBD         1.8360    8.4640    4.2960 ca        1 4C1      0.172100
     38 OBI         1.3790    9.3180    5.2820 os        1 4C1     -0.312900
     39 CBM         0.0850    9.0640    5.8230 c3        1 4C1      0.129400
     40 CBN         0.1130    7.8750    6.7720 c3        1 4C1     -0.118400
     41 CBO        -1.2500    7.2210    6.8640 c3        1 4C1     -0.098400
     42 CBP        -1.1710    6.0430    7.8270 c3        1 4C1      0.114800
     43 NBQ        -2.3530    5.1220    7.7590 nx        1 4C1     -0.672400
     44 CBR        -2.1640    3.9850    8.6970 c3        1 4C1      0.087100
     45 CBS        -3.6280    5.8260    8.0240 c3        1 4C1      0.087100
     46 H1          0.2280   -2.0740    3.5510 h1        1 4C1      0.055033
     47 H2         -0.4270   -2.3240    5.2510 h1        1 4C1      0.055033
     48 H3          0.6870   -3.5840    4.5000 h1        1 4C1      0.055033
     49 H4         -0.3940   -0.1270    4.6310 ha        1 4C1      0.172000
     50 H5          5.5270    0.3040    5.7700 h1        1 4C1      0.060033
     51 H6          4.9420    0.0760    7.5000 h1        1 4C1      0.060033
     52 H7          5.7150   -1.3310    6.5970 h1        1 4C1      0.060033
     53 H8          3.8800    1.7980    6.3980 ha        1 4C1      0.159000
     54 H9          1.9520    3.2700    5.9200 ha        1 4C1      0.142000
     55 H10         0.7240    3.2850    3.1880 hn        1 4C1      0.479800
     56 H11        -2.8670    3.3250    3.2330 ha        1 4C1      0.176000
     57 H12        -6.4290    4.6330    1.7960 h1        1 4C1      0.061700
     58 H13        -5.3280    3.6430    2.8840 h1        1 4C1      0.061700
     59 H14        -5.1220    3.5750    1.0700 h1        1 4C1      0.061700
     60 H15        -2.8800    7.5990   -0.9380 h1        1 4C1      0.063033
     61 H16        -4.1720    8.6770   -0.2130 h1        1 4C1      0.063033
     62 H17        -2.4190    8.8610    0.3030 h1        1 4C1      0.063033
     63 H18        -0.5340    7.3160    1.1530 ha        1 4C1      0.172000
     64 H19         0.0820    7.1630    4.1250 ha        1 4C1      0.142000
     65 H20         3.3800    6.2350    1.4840 ha        1 4C1      0.163000
     66 H21         5.6220    6.4870    1.6480 h1        1 4C1      0.043200
     67 H22         4.8530    7.6490    0.4530 h1        1 4C1      0.043200
     68 H23         6.7370    9.2830    0.8500 hc        1 4C1      0.061200
     69 H24         7.4940    8.1410    2.0260 hc        1 4C1      0.061200
     70 H25         6.9740    7.5590   -0.9800 hc        1 4C1      0.041033
     71 H26         8.5700    7.9630   -0.2250 hc        1 4C1      0.041033
     72 H27         7.7340    6.4130    0.2000 hc        1 4C1      0.041033
     73 H28         3.6970    9.5960    4.2500 ha        1 4C1      0.177000
     74 H29        -0.1400   10.0170    6.3770 h1        1 4C1      0.067700
     75 H30        -0.6680    8.9260    5.0030 h1        1 4C1      0.067700
     76 H31         0.8700    7.1310    6.4050 hc        1 4C1      0.068700
     77 H32         0.4480    8.2170    7.7870 hc        1 4C1      0.068700
     78 H33        -2.0050    7.9690    7.2230 hc        1 4C1      0.063700
     79 H34        -1.5650    6.8760    5.8430 hc        1 4C1      0.063700
     80 H35        -0.2690    5.4090    7.5680 hx        1 4C1      0.105200
     81 H36        -1.0770    6.4140    8.8850 hx        1 4C1      0.105200
     82 H38        -3.0620    3.3140    8.6470 hx        1 4C1      0.099200
     83 H39        -1.2510    3.4100    8.3770 hx        1 4C1      0.099200
     84 H40        -2.0360    4.3720    9.7410 hx        1 4C1      0.099200
     85 H41        -3.5900    6.3080    9.0370 hx        1 4C1      0.099200
     86 H42        -3.7910    6.6120    7.2400 hx        1 4C1      0.099200
     87 H43        -4.4740    5.0880    7.9920 hx        1 4C1      0.099200
     88 HBQ1       -2.3720    4.7300    6.7970 hn        1 4C1      0.486800
@<TRIPOS>BOND
     1    1    2 1   
     2    1   46 1   
     3    1   47 1   
     4    1   48 1   
     5    2    3 1   
     6    3    4 ar  
     7    3    5 ar  
     8    4   10 ar  
     9    4   49 1   
    10    5    6 1   
    11    5    8 ar  
    12    6    7 1   
    13    7   50 1   
    14    7   51 1   
    15    7   52 1   
    16    8    9 ar  
    17    8   53 1   
    18    9   10 ar  
    19    9   54 1   
    20   10   11 1   
    21   11   12 2   
    22   11   13 2   
    23   11   14 1   
    24   14   15 1   
    25   14   55 1   
    26   15   16 ar  
    27   15   26 ar  
    28   16   17 ar  
    29   16   56 1   
    30   17   18 1   
    31   17   24 ar  
    32   18   19 1   
    33   18   20 1   
    34   19   57 1   
    35   19   58 1   
    36   19   59 1   
    37   20   21 2   
    38   20   22 1   
    39   22   23 1   
    40   22   24 1   
    41   23   60 1   
    42   23   61 1   
    43   23   62 1   
    44   24   25 ar  
    45   25   26 ar  
    46   25   63 1   
    47   26   27 1   
    48   27   28 1   
    49   28   29 ar  
    50   28   30 ar  
    51   29   37 ar  
    52   29   64 1   
    53   30   31 ar  
    54   30   65 1   
    55   31   32 1   
    56   31   36 ar  
    57   32   33 1   
    58   33   34 1   
    59   33   66 1   
    60   33   67 1   
    61   34   35 1   
    62   34   68 1   
    63   34   69 1   
    64   35   70 1   
    65   35   71 1   
    66   35   72 1   
    67   36   37 ar  
    68   36   73 1   
    69   37   38 1   
    70   38   39 1   
    71   39   40 1   
    72   39   74 1   
    73   39   75 1   
    74   40   41 1   
    75   40   76 1   
    76   40   77 1   
    77   41   42 1   
    78   41   78 1   
    79   41   79 1   
    80   42   43 1   
    81   42   80 1   
    82   42   81 1   
    83   43   44 1   
    84   43   45 1   
    85   43   88 1   
    86   44   82 1   
    87   44   83 1   
    88   44   84 1   
    89   45   85 1   
    90   45   86 1   
    91   45   87 1   
@<TRIPOS>SUBSTRUCTURE
     1 4C1         1 TEMP              0 ****  ****    0 ROOT
