@<TRIPOS>MOLECULE
4C2
   60    62     1     0     0
SMALL
bcc


@<TRIPOS>ATOM
      1 C1         -0.0670    0.2440   -0.6160 cc        1 4C2     -0.205200
      2 C2         -3.4820    2.0250    0.2320 cc        1 4C2     -0.923100
      3 C3         -3.5490    1.9800    1.6640 cd        1 4C2      0.603000
      4 O4          2.5330    1.0170    1.2850 o         1 4C2     -0.398100
      5 C7          1.3200    0.2760   -0.8100 cd        1 4C2      0.101800
      6 C8          3.6010    0.4130   -1.6540 c3        1 4C2      0.208800
      7 C9          4.5470   -0.7520   -1.9590 c3        1 4C2     -0.125400
      8 C10         4.2330   -1.3190   -3.3480 c3        1 4C2      0.119500
      9 C11         6.5040   -1.9790   -4.1890 c3        1 4C2      0.174100
     10 C12         7.3840   -3.1390   -4.5080 ca        1 4C2     -0.178300
     11 C13         8.1840   -3.7030   -3.5080 ca        1 4C2     -0.104000
     12 C14         9.0390   -4.7610   -3.8150 ca        1 4C2     -0.070000
     13 C15         9.0880   -5.2520   -5.1220 ca        1 4C2     -0.115300
     14 C16        10.0090   -6.4330   -5.4540 c3        1 4C2      0.687200
     15 C19         2.7650   -1.7620   -3.3940 c3        1 4C2     -0.125400
     16 C20         1.8500   -0.5800   -3.0500 c3        1 4C2      0.208800
     17 C21         1.5480    0.7430    0.6420 c         1 4C2      0.483300
     18 C           0.0290    0.6760    0.8070 c         1 4C2      0.533300
     19 O          -0.7640    0.8830    1.7050 o         1 4C2     -0.498100
     20 N          -1.2180   -0.0410   -1.3470 nv        1 4C2     -0.824600
     21 S          -3.5610    0.9220   -0.8070 s4        1 4C2      1.732300
     22 O2         -3.8460   -0.3330   -0.3820 o         1 4C2     -0.430900
     23 O3         -3.5480    1.2540   -2.1210 o         1 4C2     -0.430900
     24 C5         -3.3300    3.4950   -0.0270 cc        1 4C2      0.455600
     25 C6         -3.2550    4.1120   -1.3650 c3        1 4C2     -0.175400
     26 N1         -3.3090    4.1410    1.1430 nd        1 4C2     -0.293300
     27 O1         -3.4410    3.2610    2.1390 os        1 4C2     -0.045100
     28 C4         -3.6970    0.8900    2.6200 c3        1 4C2     -0.225400
     29 N2          2.1980    0.0730   -1.8070 nh        1 4C2     -0.630400
     30 N3          5.1550   -2.4510   -3.7160 ny        1 4C2     -0.770000
     31 C18         7.4450   -3.6280   -5.8190 ca        1 4C2     -0.104000
     32 C17         8.3000   -4.6860   -6.1260 ca        1 4C2     -0.070000
     33 F2         11.1340   -6.4950   -4.6730 f         1 4C2     -0.214633
     34 F1          9.3960   -7.6510   -5.2930 f         1 4C2     -0.214633
     35 F          10.4660   -6.4340   -6.7450 f         1 4C2     -0.214633
     36 H1          3.8050    0.7690   -0.6020 h1        1 4C2      0.087950
     37 H2          3.8270    1.2640   -2.3630 h1        1 4C2      0.087950
     38 H3          5.5960   -0.3560   -1.9140 hc        1 4C2      0.085700
     39 H4          4.4410   -1.5490   -1.1760 hc        1 4C2      0.085700
     40 H5          4.3940   -0.5080   -4.1230 hx        1 4C2      0.113700
     41 H6          6.3430   -1.3340   -5.1010 hx        1 4C2      0.111200
     42 H7          6.9530   -1.3470   -3.3700 hx        1 4C2      0.111200
     43 H8          8.1640   -3.3040   -2.4820 ha        1 4C2      0.147000
     44 H9          9.6840   -5.2030   -3.0340 ha        1 4C2      0.184000
     45 H10         2.5900   -2.6040   -2.6740 hc        1 4C2      0.085700
     46 H11         2.4870   -2.1170   -4.4220 hc        1 4C2      0.085700
     47 H12         1.9150    0.1840   -3.8800 h1        1 4C2      0.087950
     48 H13         0.7920   -0.9630   -3.0030 h1        1 4C2      0.087950
     49 H14        -1.1020    0.2110   -2.3160 hn        1 4C2      0.396300
     50 H15        -2.8670    5.1630   -1.3090 hc        1 4C2      0.095700
     51 H16        -2.5850    3.5180   -2.0360 hc        1 4C2      0.095700
     52 H17        -4.2790    4.1460   -1.8210 hc        1 4C2      0.095700
     53 H18        -2.6770    0.6320    3.0330 hc        1 4C2      0.132367
     54 H19        -4.3400    1.2030    3.4870 hc        1 4C2      0.132367
     55 H20        -4.1310   -0.0220    2.1350 hc        1 4C2      0.132367
     56 H21         5.2860   -3.0650   -2.9030 hn        1 4C2      0.453800
     57 H23         6.8390   -3.1720   -6.6180 ha        1 4C2      0.147000
     58 H24         8.3640   -5.0700   -7.1600 ha        1 4C2      0.184000
     59 HN3        -1.4350   -1.0270   -1.2860 hn        1 4C2      0.396300
     60 H32         4.7220   -3.0090   -4.4620 hn        1 4C2      0.453800
@<TRIPOS>BOND
     1    1    5 2   
     2    1   18 1   
     3    1   20 1   
     4    2    3 2   
     5    2   21 1   
     6    2   24 1   
     7    3   27 1   
     8    3   28 1   
     9    4   17 2   
    10    5   17 1   
    11    5   29 1   
    12    6    7 1   
    13    6   29 1   
    14    6   36 1   
    15    6   37 1   
    16    7    8 1   
    17    7   38 1   
    18    7   39 1   
    19    8   15 1   
    20    8   30 1   
    21    8   40 1   
    22    9   10 1   
    23    9   30 1   
    24    9   41 1   
    25    9   42 1   
    26   10   11 ar  
    27   10   31 ar  
    28   11   12 ar  
    29   11   43 1   
    30   12   13 ar  
    31   12   44 1   
    32   13   14 1   
    33   13   32 ar  
    34   14   33 1   
    35   14   34 1   
    36   14   35 1   
    37   15   16 1   
    38   15   45 1   
    39   15   46 1   
    40   16   29 1   
    41   16   47 1   
    42   16   48 1   
    43   17   18 1   
    44   18   19 2   
    45   20   49 1   
    46   20   59 1   
    47   21   22 1   
    48   21   23 1   
    49   24   25 1   
    50   24   26 2   
    51   25   50 1   
    52   25   51 1   
    53   25   52 1   
    54   26   27 1   
    55   28   53 1   
    56   28   54 1   
    57   28   55 1   
    58   30   56 1   
    59   30   60 1   
    60   31   32 ar  
    61   31   57 1   
    62   32   58 1   
@<TRIPOS>SUBSTRUCTURE
     1 4C2         1 TEMP              0 ****  ****    0 ROOT
