@<TRIPOS>MOLECULE
4C4
   65    65     1     0     0
SMALL
bcc


@<TRIPOS>ATOM
      1 C1          0.0680    0.1330    0.4130 cc        1 4C4     -0.330400
      2 C2         -0.9780    0.2410   -0.6420 c         1 4C4      0.616500
      3 C3         -1.7210   -0.9870   -0.9870 ce        1 4C4     -0.208400
      4 O4          0.0640    2.1660    9.9430 o         1 4C4     -0.407000
      5 O5          0.6710    0.3550    2.7900 os        1 4C4     -0.352200
      6 C7         -3.8420   -2.1430   -3.8060 c2        1 4C4     -0.049400
      7 C8         -3.9880   -0.9380   -4.6560 c3        1 4C4     -0.077900
      8 C9         -4.5560   -3.3680   -4.2710 c3        1 4C4     -0.056200
      9 C10        -6.0550   -3.2540   -4.0680 c3        1 4C4     -0.075400
     10 C11        -6.7680   -4.4850   -4.5880 c3        1 4C4     -0.080400
     11 C12        -8.2580   -4.3840   -4.3860 c3        1 4C4     -0.093100
     12 C13         1.3880   -0.1130    0.1250 cd        1 4C4      0.248100
     13 C14         2.3730   -0.1200    1.1780 cd        1 4C4     -0.305000
     14 C15         1.9740    0.1220    2.4550 cc        1 4C4      0.159900
     15 C16         2.8920    0.1670    3.6460 c3        1 4C4     -0.020500
     16 C20         2.7840    2.5030    6.6660 c2        1 4C4     -0.023200
     17 C21         2.3970    2.2690    7.9320 c2        1 4C4     -0.167000
     18 C22         0.3960    2.9940    9.1110 c         1 4C4      0.614100
     19 O3         -0.4240    3.7640    8.3680 os        1 4C4     -0.393900
     20 C23        -1.8440    3.5100    8.5310 c3        1 4C4      0.130700
     21 N           1.8360    3.2980    8.8030 n4        1 4C4     -0.509600
     22 C18         2.3530    1.1670    4.6610 c3        1 4C4     -0.077400
     23 C17         3.0310   -1.2240    4.2330 c3        1 4C4     -0.099100
     24 C          -0.3210    0.3710    1.7840 c         1 4C4      0.751800
     25 O          -1.4110    0.6000    2.3020 o         1 4C4     -0.561500
     26 O2          1.7500   -0.3410   -1.1700 oh        1 4C4     -0.456100
     27 O1         -1.1740    1.3270   -1.2000 o         1 4C4     -0.516100
     28 C4         -1.7100   -2.1010   -0.0130 c3        1 4C4     -0.047900
     29 C5         -2.3690   -1.0300   -2.1740 cf        1 4C4     -0.032000
     30 C6         -3.1020   -2.1650   -2.6780 cf        1 4C4     -0.187000
     31 H8         -4.6800   -1.1260   -5.5130 hc        1 4C4      0.052700
     32 H7         -4.3950   -0.0830   -4.0590 hc        1 4C4      0.052700
     33 H6         -2.9940   -0.6310   -5.0690 hc        1 4C4      0.052700
     34 H10        -4.3380   -3.5230   -5.3630 hc        1 4C4      0.052200
     35 H9         -4.1770   -4.2740   -3.7250 hc        1 4C4      0.052200
     36 H12        -6.4400   -2.3430   -4.5970 hc        1 4C4      0.045200
     37 H11        -6.2770   -3.1230   -2.9760 hc        1 4C4      0.045200
     38 H14        -6.3770   -5.3950   -4.0610 hc        1 4C4      0.040200
     39 H13        -6.5430   -4.6140   -5.6800 hc        1 4C4      0.040200
     40 H17        -8.7640   -5.3000   -4.7760 hc        1 4C4      0.035367
     41 H16        -8.5030   -4.2790   -3.3010 hc        1 4C4      0.035367
     42 H15        -8.6700   -3.4960   -4.9250 hc        1 4C4      0.035367
     43 H19         3.4260   -0.3120    0.9330 ha        1 4C4      0.163000
     44 H           3.9020    0.5150    3.2840 hc        1 4C4      0.072700
     45 H26         4.3180    1.7540    5.3920 hc        1 4C4      0.082200
     46 H25         3.4920    0.4780    6.3810 hc        1 4C4      0.082200
     47 H27         2.7060    3.4970    6.1860 ha        1 4C4      0.157000
     48 H28         2.4490    1.2800    8.4290 hx        1 4C4      0.211000
     49 H30        -2.0690    2.4620    8.2220 h1        1 4C4      0.092367
     50 H31        -2.2900    4.2630    7.8320 h1        1 4C4      0.092367
     51 H32        -2.1320    3.6940    9.5940 h1        1 4C4      0.092367
     52 H23         2.1300    2.1310    4.1310 hc        1 4C4      0.069200
     53 H24         1.3810    0.7780    5.0700 hc        1 4C4      0.069200
     54 H20         3.3630   -1.9440    3.4460 hc        1 4C4      0.052367
     55 H22         2.0540   -1.5760    4.6450 hc        1 4C4      0.052367
     56 H21         3.7900   -1.2230    5.0520 hc        1 4C4      0.052367
     57 H18         2.7110   -0.4770   -1.2060 ho        1 4C4      0.437000
     58 H2         -0.8730   -2.8080   -0.2400 hc        1 4C4      0.043700
     59 H1         -2.6710   -2.6720   -0.0480 hc        1 4C4      0.043700
     60 H3         -1.5800   -1.7190    1.0300 hc        1 4C4      0.043700
     61 H4         -2.3390   -0.1350   -2.8270 ha        1 4C4      0.144000
     62 H5         -3.0320   -3.0990   -2.0920 ha        1 4C4      0.130000
     63 H29         1.8980    4.2280    8.3650 hn        1 4C4      0.476300
     64 C19         3.3230    1.4240    5.8000 c3        1 4C4     -0.072200
     65 HN3         2.3570    3.3000    9.6930 hn        1 4C4      0.476300
@<TRIPOS>BOND
     1    1    2 1   
     2    1   12 2   
     3    1   24 1   
     4    2    3 1   
     5    2   27 2   
     6    3   28 1   
     7    3   29 2   
     8    4   18 2   
     9    5   14 1   
    10    5   24 1   
    11    6    7 1   
    12    6    8 1   
    13    6   30 2   
    14    7   31 1   
    15    7   32 1   
    16    7   33 1   
    17    8    9 1   
    18    8   34 1   
    19    8   35 1   
    20    9   10 1   
    21    9   36 1   
    22    9   37 1   
    23   10   11 1   
    24   10   38 1   
    25   10   39 1   
    26   11   40 1   
    27   11   41 1   
    28   11   42 1   
    29   12   13 1   
    30   12   26 1   
    31   13   14 2   
    32   13   43 1   
    33   14   15 1   
    34   15   22 1   
    35   15   23 1   
    36   15   44 1   
    37   16   17 2   
    38   16   47 1   
    39   16   64 1   
    40   17   21 1   
    41   17   48 1   
    42   18   19 1   
    43   18   21 1   
    44   19   20 1   
    45   20   49 1   
    46   20   50 1   
    47   20   51 1   
    48   21   63 1   
    49   21   65 1   
    50   22   52 1   
    51   22   53 1   
    52   22   64 1   
    53   23   54 1   
    54   23   55 1   
    55   23   56 1   
    56   24   25 2   
    57   26   57 1   
    58   28   58 1   
    59   28   59 1   
    60   28   60 1   
    61   29   30 1   
    62   29   61 1   
    63   30   62 1   
    64   45   64 1   
    65   46   64 1   
@<TRIPOS>SUBSTRUCTURE
     1 4C4         1 TEMP              0 ****  ****    0 ROOT
