@<TRIPOS>MOLECULE
4C6
   57    60     1     0     0
SMALL
bcc


@<TRIPOS>ATOM
      1 C1          0.3600    0.4580    0.5620 cc        1 4C6     -0.409200
      2 C2         -3.0660    1.5370    0.1530 cc        1 4C6     -0.835100
      3 C3         -3.3480    2.3190    1.3020 cd        1 4C6      0.545000
      4 O4          3.1750    1.3950    2.0140 o         1 4C6     -0.383100
      5 C7          1.7190    0.4470    0.1620 cd        1 4C6      0.178800
      6 C8          1.8990   -0.4490   -2.1170 c3        1 4C6      0.187300
      7 C9          2.6160   -1.7280   -2.5460 c3        1 4C6     -0.097400
      8 C10         4.1180   -1.5100   -2.6320 c3        1 4C6     -0.066700
      9 C11         4.8200   -2.8090   -3.0100 c3        1 4C6     -0.026100
     10 C12         6.2460   -2.5890   -3.3750 ca        1 4C6     -0.109300
     11 C13         6.5750   -1.9700   -4.5870 ca        1 4C6     -0.123000
     12 C14         7.9070   -1.7820   -4.9430 ca        1 4C6     -0.126000
     13 C15         8.9370   -2.2120   -4.0960 ca        1 4C6     -0.061300
     14 C16        10.3530   -2.0030   -4.4720 c3        1 4C6     -0.060800
     15 C19         4.6380   -0.9720   -1.3090 c3        1 4C6     -0.097400
     16 C20         3.9010    0.3000   -0.9000 c3        1 4C6      0.187300
     17 C21         2.1190    1.0760    1.5280 c         1 4C6      0.496300
     18 C           0.6330    1.0540    1.8870 c         1 4C6      0.546300
     19 O          -0.0530    1.3990    2.8300 o         1 4C6     -0.484100
     20 N          -0.8790    0.0530    0.0300 ny        1 4C6     -0.483700
     21 S          -1.7970    1.5380   -0.7810 sy        1 4C6      1.521200
     22 O2         -1.9680    0.9940   -2.0420 o         1 4C6     -0.580800
     23 O3         -0.9690    2.6270   -0.6100 o         1 4C6     -0.580800
     24 C5         -4.3270    0.7690   -0.0350 cc        1 4C6      0.436600
     25 C6         -4.5820   -0.2040   -1.1160 c3        1 4C6     -0.174400
     26 N1         -5.1910    1.1130    0.9300 nd        1 4C6     -0.313300
     27 O1         -4.6290    2.0220    1.7210 os        1 4C6     -0.062100
     28 C4         -2.5830    3.3030    2.0600 c3        1 4C6     -0.218400
     29 N2          2.4430    0.1330   -0.8940 nh        1 4C6     -0.552400
     30 C18         7.2730   -3.0220   -2.5290 ca        1 4C6     -0.123000
     31 C17         8.6060   -2.8350   -2.8870 ca        1 4C6     -0.126000
     32 H1          2.0110    0.3290   -2.9300 h1        1 4C6      0.075700
     33 H2          0.8040   -0.6650   -1.9900 h1        1 4C6      0.075700
     34 H3          2.3940   -2.5600   -1.8270 hc        1 4C6      0.073950
     35 H4          2.2120   -2.0260   -3.5490 hc        1 4C6      0.073950
     36 H5          4.3260   -0.7480   -3.4370 hc        1 4C6      0.066700
     37 H6          4.2840   -3.2670   -3.8850 hc        1 4C6      0.055700
     38 H7          4.7450   -3.5340   -2.1560 hc        1 4C6      0.055700
     39 H8          5.7760   -1.6390   -5.2660 ha        1 4C6      0.128000
     40 H9          8.1560   -1.3000   -5.9010 ha        1 4C6      0.140000
     41 H10        10.4830   -2.0470   -5.5820 hc        1 4C6      0.052033
     42 H11        10.6960   -0.9970   -4.1200 hc        1 4C6      0.052033
     43 H12        11.0110   -2.7790   -4.0080 hc        1 4C6      0.052033
     44 H13         4.5360   -1.7530   -0.5100 hc        1 4C6      0.073950
     45 H14         5.7290   -0.7250   -1.4040 hc        1 4C6      0.073950
     46 H15         4.1300    1.1220   -1.6390 h1        1 4C6      0.075700
     47 H16         4.2500    0.6270    0.1200 h1        1 4C6      0.075700
     48 H17        -0.7400   -0.6870   -0.6610 hn        1 4C6      0.444800
     49 H18        -4.1780    0.1770   -2.0890 hc        1 4C6      0.089367
     50 H19        -5.6800   -0.3940   -1.2410 hc        1 4C6      0.089367
     51 H20        -4.0890   -1.1790   -0.8720 hc        1 4C6      0.089367
     52 H21        -3.2640    3.9880    2.6310 hc        1 4C6      0.123033
     53 H22        -1.9320    3.9070    1.3730 hc        1 4C6      0.123033
     54 H23        -1.9190    2.7730    2.8020 hc        1 4C6      0.123033
     55 H24         7.0290   -3.5230   -1.5800 ha        1 4C6      0.128000
     56 H25         9.4060   -3.1850   -2.2170 ha        1 4C6      0.140000
     57 HN3        -1.4320   -0.3460    0.7930 hn        1 4C6      0.444800
@<TRIPOS>BOND
     1    1    5 2   
     2    1   18 1   
     3    1   20 1   
     4    2    3 2   
     5    2   21 1   
     6    2   24 1   
     7    3   27 1   
     8    3   28 1   
     9    4   17 2   
    10    5   17 1   
    11    5   29 1   
    12    6    7 1   
    13    6   29 1   
    14    6   32 1   
    15    6   33 1   
    16    7    8 1   
    17    7   34 1   
    18    7   35 1   
    19    8    9 1   
    20    8   15 1   
    21    8   36 1   
    22    9   10 1   
    23    9   37 1   
    24    9   38 1   
    25   10   11 ar  
    26   10   30 ar  
    27   11   12 ar  
    28   11   39 1   
    29   12   13 ar  
    30   12   40 1   
    31   13   14 1   
    32   13   31 ar  
    33   14   41 1   
    34   14   42 1   
    35   14   43 1   
    36   15   16 1   
    37   15   44 1   
    38   15   45 1   
    39   16   29 1   
    40   16   46 1   
    41   16   47 1   
    42   17   18 1   
    43   18   19 2   
    44   20   21 1   
    45   20   48 1   
    46   20   57 1   
    47   21   22 2   
    48   21   23 2   
    49   24   25 1   
    50   24   26 2   
    51   25   49 1   
    52   25   50 1   
    53   25   51 1   
    54   26   27 1   
    55   28   52 1   
    56   28   53 1   
    57   28   54 1   
    58   30   31 ar  
    59   30   55 1   
    60   31   56 1   
@<TRIPOS>SUBSTRUCTURE
     1 4C6         1 TEMP              0 ****  ****    0 ROOT
