@<TRIPOS>MOLECULE
4C9
   72    77     1     0     0
SMALL
bcc


@<TRIPOS>ATOM
      1 C1          0.0000    0.0000    0.0000 c3        1 4C9     -0.025000
      2 C2          1.5300    0.0000    0.0000 c3        1 4C9     -0.001000
      3 C3          2.0400    0.0000    1.4430 c3        1 4C9     -0.153333
      4 C4         -0.1770    1.3520    2.0380 c1        1 4C9     -0.093000
      5 C5         -8.9080    6.4040    2.2680 c2        1 4C9     -0.096500
      6 C6         -9.7940    7.2770    2.0250 c2        1 4C9     -0.110000
      7 C7        -11.7630    8.9470    0.0470 ca        1 4C9      0.165000
      8 C8        -12.7400    9.9320   -0.3880 ca        1 4C9     -0.271500
      9 N1         -9.5130    1.2100    3.3630 n2        1 4C9     -0.147000
     10 C9         -9.6020    2.2700    2.5650 c2        1 4C9      0.036000
     11 C10        -8.4120    2.8630    2.1090 c2        1 4C9     -0.214000
     12 C11        -7.1860    2.3080    2.5180 c2        1 4C9     -0.073000
     13 N3         -6.2020    3.0580    1.9440 nx        1 4C9      0.318000
     14 C12        -4.7640    2.8310    2.1020 c3        1 4C9     -0.385000
     15 C13        -4.1340    2.5660    0.7320 c3        1 4C9     -0.063000
     16 N4         -2.6770    2.4700    0.8920 n3        1 4C9      0.040000
     17 C14        -2.0050    1.3950    0.4330 c3        1 4C9      0.213000
     18 C15        -0.5100    1.3100    0.6050 c3        1 4C9     -0.235000
     19 C16         2.0390   -1.2500   -0.7210 c3        1 4C9     -0.153333
     20 C17         2.0400    1.2490   -0.7210 c3        1 4C9     -0.153333
     21 N5          0.0980    1.3870    3.1390 n1        1 4C9     -0.085000
     22 C18        -1.9650    3.5670    1.5610 c3        1 4C9     -0.120000
     23 C19        -2.6190    3.8210    2.9230 c3        1 4C9     -0.121000
     24 C20        -4.1160    4.0700    2.7260 c3        1 4C9     -0.112000
     25 N6         -6.7790    4.0780    1.1810 n2        1 4C9     -0.256000
     26 C21        -8.0870    4.0010    1.2500 c1        1 4C9     -0.050000
     27 C22        -7.9860    6.1200    1.2780 c1        1 4C9      0.188000
     28 C23        -9.8090    7.8790    0.8450 c2        1 4C9      0.082000
     29 O2        -10.7270    9.2620    0.4000 os        1 4C9     -0.063000
     30 C24       -12.3780    7.6530   -0.0750 ca        1 4C9     -0.271500
     31 C25       -13.4940    7.0150   -0.4320 ca        1 4C9     -0.011000
     32 C26       -14.3510    7.8750   -0.8130 ca        1 4C9     -0.182000
     33 C27       -13.9420    9.1600   -0.7660 ca        1 4C9     -0.011000
     34 C28        -9.0260    7.6310    0.0170 c2        1 4C9     -0.110000
     35 C29        -7.9420    6.6480    0.1470 c2        1 4C9     -0.096500
     36 N7         -7.2010    1.2430    3.3200 n2        1 4C9     -0.098000
     37 C30        -8.3390    0.7220    3.7210 c2        1 4C9      0.018000
     38 H1         -0.4490   -0.0770   -0.9830 hc        1 4C9      0.086000
     39 H3          1.4290   -0.3820    2.2520 hc        1 4C9      0.051111
     40 H4          2.9720   -0.3640    1.8580 hc        1 4C9      0.051111
     41 H5          1.8910    0.9800    1.8790 hc        1 4C9      0.051111
     42 H6         -9.0180    6.2490    3.3350 ha        1 4C9      0.153000
     43 H7        -10.2260    7.8610    2.8280 ha        1 4C9      0.138000
     44 H8        -12.4610   10.9690   -0.2460 ha        1 4C9      0.104500
     45 H9        -11.7030    1.9890    3.3450 hn        1 4C9      0.076500
     46 H10       -11.5400    2.9150    1.8140 hn        1 4C9      0.076500
     47 H11        -5.7570    2.4470    1.9040 DU        1 4C9      0.227000
     48 H12        -4.5560    1.6260    0.3960 h1        1 4C9      0.067000
     49 H13        -4.3970    3.2510   -0.0650 h1        1 4C9      0.067000
     50 H15         1.6350   -1.1660   -1.7230 hc        1 4C9      0.051111
     51 H16         3.0820   -1.1800   -1.0030 hc        1 4C9      0.051111
     52 H17         1.8690   -2.2720   -0.4040 hc        1 4C9      0.051111
     53 H18         1.7820    2.0810   -0.0770 hc        1 4C9      0.051111
     54 H19         2.9760    0.9620   -1.1860 hc        1 4C9      0.051111
     55 H20         1.1900    1.5840   -1.3020 hc        1 4C9      0.051111
     56 H21        -0.8850    3.4800    1.5830 h1        1 4C9      0.093000
     57 H22        -2.2500    4.5730    1.2780 h1        1 4C9      0.093000
     58 H23        -2.7090    3.0280    3.6550 hc        1 4C9      0.075000
     59 H24        -2.1600    4.7100    3.3380 hc        1 4C9      0.075000
     60 H25        -4.2960    5.1190    2.5250 hc        1 4C9      0.055500
     61 H26        -4.4710    3.9650    3.7440 hc        1 4C9      0.055500
     62 H27       -11.6800    6.8920    0.2540 ha        1 4C9      0.104500
     63 H28       -13.8010    5.9790   -0.5090 ha        1 4C9      0.090500
     64 H29       -15.1600    7.6780   -1.5060 ha        1 4C9      0.111000
     65 H30       -14.5220    9.9520   -1.2240 ha        1 4C9      0.090500
     66 H31        -8.8120    7.9110   -1.0070 ha        1 4C9      0.138000
     67 H32        -7.3950    6.2670   -0.7070 ha        1 4C9      0.153000
     68 H33        -8.1390   -0.3070    3.9940 h5        1 4C9      0.149000
     69 H34        -1.4640    1.7620    0.3610 DU        1 4C9      0.238000
     70 H35        -0.2490   -0.6150    0.8560 hc        1 4C9      0.086000
     71 O1         -2.6040    0.4960   -0.1190 o         1 4C9     -0.389000
     72 N2        -11.2310    2.2610    2.5060 nv        1 4C9      0.026000
@<TRIPOS>BOND
     1    1    2 1   
     2    1   18 1   
     3    1   38 1   
     4    1   70 1   
     5    2    3 1   
     6    2   19 1   
     7    2   20 1   
     8    3   39 1   
     9    3   40 1   
    10    3   41 1   
    11    4   18 1   
    12    4   21 1   
    13    5    6 1   
    14    5   27 1   
    15    5   42 1   
    16    6   28 1   
    17    6   43 1   
    18    7    8 1   
    19    7   29 1   
    20    7   30 1   
    21    8   33 1   
    22    8   44 1   
    23    9   10 1   
    24    9   37 1   
    25   10   11 1   
    26   10   72 1   
    27   11   12 1   
    28   11   26 1   
    29   12   13 1   
    30   12   36 1   
    31   13   14 1   
    32   13   25 1   
    33   13   47 1   
    34   14   15 1   
    35   14   24 1   
    36   14   47 1   
    37   15   16 1   
    38   15   48 1   
    39   15   49 1   
    40   16   17 1   
    41   16   22 1   
    42   17   18 1   
    43   17   69 1   
    44   17   71 1   
    45   18   69 1   
    46   19   50 1   
    47   19   51 1   
    48   19   52 1   
    49   20   53 1   
    50   20   54 1   
    51   20   55 1   
    52   22   23 1   
    53   22   56 1   
    54   22   57 1   
    55   23   24 1   
    56   23   58 1   
    57   23   59 1   
    58   24   60 1   
    59   24   61 1   
    60   25   26 1   
    61   27   35 1   
    62   28   29 1   
    63   28   34 1   
    64   30   31 1   
    65   30   62 1   
    66   31   32 1   
    67   31   63 1   
    68   32   33 1   
    69   32   64 1   
    70   33   65 1   
    71   34   35 1   
    72   34   66 1   
    73   35   67 1   
    74   36   37 1   
    75   37   68 1   
    76   45   72 1   
    77   46   72 1   
@<TRIPOS>SUBSTRUCTURE
     1 4C9         1 TEMP              0 ****  ****    0 ROOT
