@<TRIPOS>MOLECULE
4C9
   72    76     1     0     0
SMALL
bcc


@<TRIPOS>ATOM
      1 C1          0.1660    0.0450    0.2610 c3        1 4C9     -0.065400
      2 C2          1.6510    0.1340   -0.0930 c3        1 4C9     -0.058000
      3 C3          2.5030    0.3510    1.1470 c3        1 4C9     -0.089100
      4 C4         -0.1500    1.0550    2.4830 c1        1 4C9      0.212700
      5 C5         -9.8990    5.4910    1.1680 ca        1 4C9     -0.085000
      6 C6        -10.7680    6.3090    0.4490 ca        1 4C9     -0.171500
      7 C7        -12.6610    7.6140   -1.2320 ca        1 4C9      0.094100
      8 C8        -12.9530    8.9710   -1.4330 ca        1 4C9     -0.148000
      9 N1         -9.4780    1.1990    3.6550 nb        1 4C9     -0.797000
     10 C9         -9.5920    2.2210    2.7410 ca        1 4C9      0.756200
     11 C10        -8.4070    2.8170    2.2100 ca        1 4C9     -0.495500
     12 C11        -7.1340    2.2860    2.6720 ca        1 4C9      0.478800
     13 N3         -6.1420    2.9940    1.9640 na        1 4C9      0.000200
     14 C12        -4.7070    2.8750    2.2030 c3        1 4C9      0.055000
     15 C13        -3.9200    2.7530    0.8630 c3        1 4C9      0.072000
     16 N4         -2.4940    2.6110    1.0750 n         1 4C9     -0.459800
     17 C14        -1.8800    1.3940    0.8000 c         1 4C9      0.660100
     18 C15        -0.3720    1.2320    1.0590 c3        1 4C9     -0.063600
     19 C16         2.0490   -1.1900   -0.7390 c3        1 4C9     -0.089100
     20 C17         1.9040    1.2560   -1.0900 c3        1 4C9     -0.089100
     21 N5          0.0310    0.9050    3.6220 n1        1 4C9     -0.359800
     22 C18        -1.9120    3.6370    1.9110 c3        1 4C9      0.085000
     23 C19        -2.6530    3.8410    3.2350 c3        1 4C9     -0.103400
     24 C20        -4.1350    4.0500    3.0100 c3        1 4C9     -0.097400
     25 N6         -6.6920    3.9240    1.1560 nc        1 4C9     -0.509100
     26 C21        -8.0440    3.8510    1.2570 cd        1 4C9      0.430500
     27 C22        -8.9560    4.6980    0.5010 ca        1 4C9     -0.135900
     28 C23       -10.6850    6.3320   -0.9480 ca        1 4C9      0.123100
     29 O2        -11.4500    7.1640   -1.7550 os        1 4C9     -0.247200
     30 C24       -13.5910    6.7480   -0.6470 ca        1 4C9     -0.148000
     31 C25       -14.8320    7.2520   -0.2610 ca        1 4C9     -0.112000
     32 C26       -15.1380    8.5990   -0.4600 ca        1 4C9     -0.141000
     33 C27       -14.2020    9.4520   -1.0460 ca        1 4C9     -0.112000
     34 C28        -9.7410    5.5470   -1.6310 ca        1 4C9     -0.171500
     35 C29        -8.8760    4.7410   -0.8990 ca        1 4C9     -0.085000
     36 N7         -7.0220    1.2790    3.5930 nb        1 4C9     -0.737000
     37 C30        -8.2220    0.8190    4.0120 ca        1 4C9      0.696900
     38 H1         -0.4210   -0.0340   -0.6950 hc        1 4C9      0.072200
     39 H3          2.2980   -0.4430    1.9040 hc        1 4C9      0.037589
     40 H4          3.5870    0.3170    0.8780 hc        1 4C9      0.037589
     41 H5          2.2860    1.3460    1.6050 hc        1 4C9      0.037589
     42 H6         -9.9440    5.4820    2.2690 ha        1 4C9      0.149500
     43 H7        -11.5040    6.9370    0.9720 ha        1 4C9      0.154500
     44 H8        -12.2070    9.6290   -1.9010 ha        1 4C9      0.148000
     45 H9        -11.6420    2.1800    2.6340 hn        1 4C9      0.438300
     46 H10       -10.8800    3.2760    1.5750 hn        1 4C9      0.438300
     47 H11        -4.5660    1.9210    2.7950 h1        1 4C9      0.099700
     48 H12        -4.3070    1.8700    0.2800 h1        1 4C9      0.084200
     49 H13        -4.0780    3.6880    0.2530 h1        1 4C9      0.084200
     50 H15         1.4280   -1.3800   -1.6470 hc        1 4C9      0.037589
     51 H16         3.1230   -1.1630   -1.0400 hc        1 4C9      0.037589
     52 H17         1.9010   -2.0330   -0.0210 hc        1 4C9      0.037589
     53 H18         1.7200    2.2540   -0.6270 hc        1 4C9      0.037589
     54 H19         2.9650    1.2250   -1.4360 hc        1 4C9      0.037589
     55 H20         1.2360    1.1450   -1.9780 hc        1 4C9      0.037589
     56 H21        -0.8340    3.4120    2.1320 h1        1 4C9      0.054700
     57 H22        -1.9490    4.6030    1.3260 h1        1 4C9      0.054700
     58 H23        -2.4890    2.9580    3.9060 hc        1 4C9      0.060200
     59 H24        -2.2200    4.7410    3.7440 hc        1 4C9      0.060200
     60 H25        -4.3030    5.0110    2.4560 hc        1 4C9      0.061700
     61 H26        -4.6570    4.1280    3.9980 hc        1 4C9      0.061700
     62 H27       -13.3390    5.6880   -0.4980 ha        1 4C9      0.148000
     63 H28       -15.5730    6.5810    0.1980 ha        1 4C9      0.137000
     64 H29       -16.1200    8.9890   -0.1550 ha        1 4C9      0.136000
     65 H30       -14.4480   10.5130   -1.2030 ha        1 4C9      0.137000
     66 H31        -9.6880    5.5890   -2.7280 ha        1 4C9      0.154500
     67 H32        -8.1220    4.1320   -1.4220 ha        1 4C9      0.149500
     68 H33        -8.1810   -0.0030    4.7610 h5        1 4C9      0.054100
     69 H34         0.1610    2.1690    0.7190 hc        1 4C9      0.098700
     70 H35        -0.0210   -0.8980    0.8390 hc        1 4C9      0.072200
     71 O1         -2.5230    0.4710    0.2660 o         1 4C9     -0.585100
     72 N2        -10.8330    2.6910    2.3750 nh        1 4C9     -0.953500
@<TRIPOS>BOND
     1    1    2 1   
     2    1   18 1   
     3    1   38 1   
     4    1   70 1   
     5    2    3 1   
     6    2   19 1   
     7    2   20 1   
     8    3   39 1   
     9    3   40 1   
    10    3   41 1   
    11    4   18 1   
    12    4   21 3   
    13    5    6 ar  
    14    5   27 ar  
    15    5   42 1   
    16    6   28 ar  
    17    6   43 1   
    18    7    8 ar  
    19    7   29 1   
    20    7   30 ar  
    21    8   33 ar  
    22    8   44 1   
    23    9   10 ar  
    24    9   37 ar  
    25   10   11 ar  
    26   10   72 1   
    27   11   12 ar  
    28   11   26 1   
    29   12   13 1   
    30   12   36 ar  
    31   13   14 1   
    32   13   25 1   
    33   14   15 1   
    34   14   24 1   
    35   14   47 1   
    36   15   16 1   
    37   15   48 1   
    38   15   49 1   
    39   16   17 1   
    40   16   22 1   
    41   17   18 1   
    42   17   71 2   
    43   18   69 1   
    44   19   50 1   
    45   19   51 1   
    46   19   52 1   
    47   20   53 1   
    48   20   54 1   
    49   20   55 1   
    50   22   23 1   
    51   22   56 1   
    52   22   57 1   
    53   23   24 1   
    54   23   58 1   
    55   23   59 1   
    56   24   60 1   
    57   24   61 1   
    58   25   26 2   
    59   26   27 1   
    60   27   35 ar  
    61   28   29 1   
    62   28   34 ar  
    63   30   31 ar  
    64   30   62 1   
    65   31   32 ar  
    66   31   63 1   
    67   32   33 ar  
    68   32   64 1   
    69   33   65 1   
    70   34   35 ar  
    71   34   66 1   
    72   35   67 1   
    73   36   37 ar  
    74   37   68 1   
    75   45   72 1   
    76   46   72 1   
@<TRIPOS>SUBSTRUCTURE
     1 4C9         1 TEMP              0 ****  ****    0 ROOT
