@<TRIPOS>MOLECULE
4CC
   60    63     1     0     0
SMALL
bcc


@<TRIPOS>ATOM
      1 N3         -1.9100    2.3910   -0.8370 na        1 4CC     -0.163300
      2 C4         -2.9090    1.2010    1.2060 ca        1 4CC     -0.136000
      3 C5         -0.5070    2.1430    2.4730 ca        1 4CC     -0.029000
      4 C7         -0.6650    3.0580   -0.9770 cc        1 4CC      0.359800
      5 C8         -2.8230    2.0710   -1.8810 c3        1 4CC      0.030600
      6 C10        -1.4130    1.3210    3.1310 ca        1 4CC     -0.143600
      7 C17         0.0770   -0.4240    6.1550 ca        1 4CC      0.526200
      8 C20         3.3010    2.0730   -2.1760 ca        1 4CC     -0.180000
      9 C21        -1.0170   -0.8860    6.9420 ca        1 4CC     -0.228300
     10 C24         1.7920   -0.2710   -1.9610 ca        1 4CC     -0.048000
     11 C26        -0.7810   -1.2970    8.2520 ca        1 4CC     -0.086000
     12 C28         1.2490   -1.7780    1.7360 c         1 4CC      0.917600
     13 C1         -1.9760    1.9690    0.4970 ca        1 4CC     -0.051200
     14 C2         -0.7660    2.4620    1.1330 ca        1 4CC      0.062400
     15 N6          0.0130    3.1510    0.1840 nd        1 4CC     -0.555100
     16 C9         -2.6060    0.8810    2.5180 ca        1 4CC     -0.072000
     17 C11        -0.1440    3.5300   -2.3150 c3        1 4CC      0.176500
     18 C12        -1.1810    0.8950    4.5450 c         1 4CC      0.680700
     19 N13         1.2770    3.3900   -2.5040 nh        1 4CC     -0.706600
     20 N14        -0.1550   -0.0150    4.8050 n         1 4CC     -0.464300
     21 O15        -1.9220    1.3150    5.4560 o         1 4CC     -0.592100
     22 C16         1.8860    2.1450   -2.2770 ca        1 4CC      0.185600
     23 C18         0.7760   -0.4460    3.7790 c3        1 4CC      0.100000
     24 C19         1.1520    0.9390   -2.1970 ca        1 4CC     -0.180000
     25 N22         1.3490   -0.3630    6.6600 nb        1 4CC     -0.685000
     26 C23         0.2110   -1.4690    2.7920 c3        1 4CC     -0.173400
     27 C25         3.9330    0.8560   -1.9800 ca        1 4CC     -0.048000
     28 C27         1.5360   -0.7740    7.9220 ca        1 4CC      0.409200
     29 C29         3.1850   -0.3220   -1.8540 ca        1 4CC     -0.277900
     30 C30         0.5150   -1.2500    8.7630 ca        1 4CC     -0.263300
     31 O31         2.4910   -1.6520    1.9850 o         1 4CC     -0.863300
     32 O32         0.8840   -2.1770    0.5770 o         1 4CC     -0.863300
     33 C33         3.8870   -1.6030   -1.6080 ce        1 4CC      0.605800
     34 N34         3.3960   -2.3260   -0.4210 n4        1 4CC     -0.866600
     35 N35         4.8480   -2.1180   -2.2930 n2        1 4CC     -0.767100
     36 H1         -3.8380    0.8510    0.7360 ha        1 4CC      0.139000
     37 H2          0.3990    2.5220    2.9710 ha        1 4CC      0.162000
     38 H3         -2.3760    1.3060   -2.5750 h1        1 4CC      0.053033
     39 H4         -3.7680    1.6550   -1.4400 h1        1 4CC      0.053033
     40 H5         -3.0680    2.9960   -2.4700 h1        1 4CC      0.053033
     41 H6          3.9070    2.9900   -2.2410 ha        1 4CC      0.144500
     42 H7         -2.0360   -0.8880    6.5290 ha        1 4CC      0.159000
     43 H8          1.1800   -1.1810   -1.8270 ha        1 4CC      0.149500
     44 H9         -1.6150   -1.6540    8.8740 ha        1 4CC      0.137000
     45 H10        -3.3070    0.2670    3.1060 ha        1 4CC      0.148000
     46 H11        -0.6630    2.9550   -3.1360 h1        1 4CC      0.074700
     47 H12        -0.4030    4.6230   -2.4300 h1        1 4CC      0.074700
     48 H13         1.7980    4.1450   -2.0980 hn        1 4CC      0.413800
     49 H14         1.1270    0.4550    3.1980 h1        1 4CC      0.076700
     50 H15         1.6940   -0.9010    4.2500 h1        1 4CC      0.076700
     51 H16         0.0550    0.9430   -2.2850 ha        1 4CC      0.144500
     52 H17        -0.0500   -2.4240    3.3160 hc        1 4CC      0.060200
     53 H18        -0.7160   -1.0830    2.2940 hc        1 4CC      0.060200
     54 H19         5.0310    0.8240   -1.8990 ha        1 4CC      0.149500
     55 H20         2.5800   -0.7090    8.2820 h4        1 4CC      0.020100
     56 H21         0.7390   -1.5690    9.7880 ha        1 4CC      0.141000
     57 H23         3.8160   -3.2480   -0.3240 hn        1 4CC      0.487467
     58 H24         2.3330   -2.4150   -0.4370 hn        1 4CC      0.487467
     59 H25         5.1420   -1.5910   -3.0880 hn        1 4CC      0.436400
     60 H343        3.5770   -1.7700    0.4540 hn        1 4CC      0.487467
@<TRIPOS>BOND
     1    1    4 1   
     2    1    5 1   
     3    1   13 1   
     4    2   13 ar  
     5    2   16 ar  
     6    2   36 1   
     7    3    6 ar  
     8    3   14 ar  
     9    3   37 1   
    10    4   15 2   
    11    4   17 1   
    12    5   38 1   
    13    5   39 1   
    14    5   40 1   
    15    6   16 ar  
    16    6   18 1   
    17    7    9 ar  
    18    7   20 1   
    19    7   25 ar  
    20    8   22 ar  
    21    8   27 ar  
    22    8   41 1   
    23    9   11 ar  
    24    9   42 1   
    25   10   24 ar  
    26   10   29 ar  
    27   10   43 1   
    28   11   30 ar  
    29   11   44 1   
    30   12   26 1   
    31   12   31 1   
    32   12   32 1   
    33   13   14 ar  
    34   14   15 1   
    35   16   45 1   
    36   17   19 1   
    37   17   46 1   
    38   17   47 1   
    39   18   20 1   
    40   18   21 2   
    41   19   22 1   
    42   19   48 1   
    43   20   23 1   
    44   22   24 ar  
    45   23   26 1   
    46   23   49 1   
    47   23   50 1   
    48   24   51 1   
    49   25   28 ar  
    50   26   52 1   
    51   26   53 1   
    52   27   29 ar  
    53   27   54 1   
    54   28   30 ar  
    55   28   55 1   
    56   29   33 1   
    57   30   56 1   
    58   33   34 1   
    59   33   35 2   
    60   34   57 1   
    61   34   58 1   
    62   34   60 1   
    63   35   59 1   
@<TRIPOS>SUBSTRUCTURE
     1 4CC         1 TEMP              0 ****  ****    0 ROOT
