@<TRIPOS>MOLECULE
4CC
   60    63     1     0     0
SMALL
bcc


@<TRIPOS>ATOM
      1 N3         -1.4900    1.9590   -0.7580 na        1 4CC     -0.161300
      2 C4         -2.3830    0.9350    1.4200 ca        1 4CC     -0.134000
      3 C5          0.0940    1.9340    2.4750 ca        1 4CC     -0.015000
      4 C7         -0.2690    2.6400   -1.0100 cc        1 4CC      0.379800
      5 C8         -2.4840    1.6240   -1.7200 c3        1 4CC      0.028600
      6 C10        -0.8200    1.2440    3.2680 ca        1 4CC     -0.171600
      7 C17        -0.5100   -0.3220    6.7230 ca        1 4CC      0.522200
      8 C20         3.6040    2.3590   -2.3830 ca        1 4CC     -0.166500
      9 C21        -1.0480    0.6790    7.5840 ca        1 4CC     -0.237300
     10 C24         2.8990    0.5540   -4.3900 ca        1 4CC     -0.083000
     11 C26        -0.9580    0.5050    8.9630 ca        1 4CC     -0.074000
     12 C28        -1.1910   -3.7360    4.2710 c         1 4CC      0.628100
     13 C1         -1.4720    1.6080    0.5960 ca        1 4CC     -0.049200
     14 C2         -0.2150    2.1170    1.1230 ca        1 4CC      0.061400
     15 N6          0.5010    2.7530    0.0900 nd        1 4CC     -0.564100
     16 C9         -2.0390    0.7600    2.7500 ca        1 4CC     -0.088000
     17 C11         0.0620    3.1960   -2.3790 c3        1 4CC      0.174500
     18 C12        -0.5120    1.1030    4.7210 c         1 4CC      0.687700
     19 N13         1.4460    3.4990   -2.6210 nu        1 4CC     -0.701600
     20 N14        -0.6130   -0.1740    5.3070 n         1 4CC     -0.467300
     21 O15        -0.1960    2.0970    5.3970 o         1 4CC     -0.565100
     22 C16         2.3190    2.4430   -2.9700 ca        1 4CC      0.133600
     23 C18        -0.4740   -1.3620    4.4900 c3        1 4CC      0.097000
     24 C19         1.9840    1.5180   -3.9830 ca        1 4CC     -0.166500
     25 N22         0.0740   -1.4560    7.2290 nb        1 4CC     -0.732000
     26 C23        -1.6330   -2.3530    4.6460 c3        1 4CC     -0.193400
     27 C25         4.5100    1.3910   -2.8000 ca        1 4CC     -0.083000
     28 C27         0.1370   -1.5880    8.5620 ca        1 4CC      0.419200
     29 C29         4.1650    0.4840   -3.8040 ca        1 4CC     -0.215900
     30 C30        -0.3560   -0.6430    9.4760 ca        1 4CC     -0.264300
     31 O31        -0.2570   -4.3700    5.0370 oh        1 4CC     -0.583100
     32 O32        -1.6010   -4.4080    3.3240 o         1 4CC     -0.492000
     33 C33         5.1430   -0.5490   -4.2720 ce        1 4CC      0.645800
     34 N34         5.5450   -1.4600   -3.2770 nv        1 4CC     -0.896800
     35 N35         5.5510   -0.6600   -5.5030 n2        1 4CC     -0.839100
     36 H1         -3.3370    0.5570    1.0270 ha        1 4CC      0.144000
     37 H2          1.0280    2.3330    2.9010 ha        1 4CC      0.167000
     38 H3         -2.1150    0.8060   -2.3980 h1        1 4CC      0.056367
     39 H4         -3.4130    1.2740   -1.1970 h1        1 4CC      0.056367
     40 H5         -2.7280    2.5280   -2.3420 h1        1 4CC      0.056367
     41 H6          3.8960    3.0620   -1.5870 ha        1 4CC      0.138000
     42 H7         -1.5090    1.5890    7.1720 ha        1 4CC      0.169000
     43 H8          2.6210   -0.1620   -5.1800 ha        1 4CC      0.138000
     44 H9         -1.3630    1.2740    9.6380 ha        1 4CC      0.144000
     45 H10        -2.7360    0.2340    3.4220 ha        1 4CC      0.142000
     46 H11        -0.3130    2.4740   -3.1590 h1        1 4CC      0.075200
     47 H12        -0.5110    4.1650   -2.4860 h1        1 4CC      0.075200
     48 H13         1.8350    4.0840   -1.9030 hn        1 4CC      0.408800
     49 H14         0.4990   -1.8810    4.7390 h1        1 4CC      0.072200
     50 H15        -0.4120   -1.0650    3.4030 h1        1 4CC      0.072200
     51 H16         1.0000    1.5560   -4.4750 ha        1 4CC      0.138000
     52 H17        -2.0160   -2.3820    5.7010 hc        1 4CC      0.084700
     53 H18        -2.4860   -2.0500    3.9830 hc        1 4CC      0.084700
     54 H19         5.5060    1.3490   -2.3330 ha        1 4CC      0.138000
     55 H20         0.6220   -2.5180    8.9140 h4        1 4CC      0.023100
     56 H21        -0.2660   -0.8110   10.5560 ha        1 4CC      0.148000
     57 H23         0.0230   -3.7930    5.7650 ho        1 4CC      0.442000
     58 H24         5.5760   -1.0680   -2.3630 hn        1 4CC      0.400800
     59 H25         5.1190   -0.0180   -6.1320 hn        1 4CC      0.393400
     60 H343        6.3280   -2.0330   -3.5010 hn        1 4CC      0.400800
@<TRIPOS>BOND
     1    1    4 1   
     2    1    5 1   
     3    1   13 1   
     4    2   13 ar  
     5    2   16 ar  
     6    2   36 1   
     7    3    6 ar  
     8    3   14 ar  
     9    3   37 1   
    10    4   15 2   
    11    4   17 1   
    12    5   38 1   
    13    5   39 1   
    14    5   40 1   
    15    6   16 ar  
    16    6   18 1   
    17    7    9 ar  
    18    7   20 1   
    19    7   25 ar  
    20    8   22 ar  
    21    8   27 ar  
    22    8   41 1   
    23    9   11 ar  
    24    9   42 1   
    25   10   24 ar  
    26   10   29 ar  
    27   10   43 1   
    28   11   30 ar  
    29   11   44 1   
    30   12   26 1   
    31   12   31 1   
    32   12   32 2   
    33   13   14 ar  
    34   14   15 1   
    35   16   45 1   
    36   17   19 1   
    37   17   46 1   
    38   17   47 1   
    39   18   20 1   
    40   18   21 2   
    41   19   22 1   
    42   19   48 1   
    43   20   23 1   
    44   22   24 ar  
    45   23   26 1   
    46   23   49 1   
    47   23   50 1   
    48   24   51 1   
    49   25   28 ar  
    50   26   52 1   
    51   26   53 1   
    52   27   29 ar  
    53   27   54 1   
    54   28   30 ar  
    55   28   55 1   
    56   29   33 1   
    57   30   56 1   
    58   31   57 1   
    59   33   34 1   
    60   33   35 2   
    61   34   58 1   
    62   34   60 1   
    63   35   59 1   
@<TRIPOS>SUBSTRUCTURE
     1 4CC         1 TEMP              0 ****  ****    0 ROOT
