@<TRIPOS>MOLECULE
4CD
   41    41     1     0     0
SMALL
bcc


@<TRIPOS>ATOM
      1 N1         -0.0970   -0.1430   -0.3800 n         1 4CD     -0.304000
      2 C4          1.3460   -0.0610   -0.1200 c3        1 4CD      0.056000
      3 C5          1.9580    1.2290   -0.6090 c2        1 4CD     -0.143000
      4 C6          1.5060    2.4820    0.0620 c3        1 4CD     -0.152000
      5 C7          2.6010    3.2090    0.7470 c2        1 4CD      0.193000
      6 C8          2.4020    4.1230    1.6810 c1        1 4CD     -0.594000
      7 C10         2.8500    1.2690   -1.6110 c2        1 4CD     -0.122000
      8 C13        -2.6830   -0.0230   -2.6170 c2        1 4CD     -0.105000
      9 C15        -4.2700    0.6590   -0.8760 c2        1 4CD     -0.203000
     10 C17        -2.6910   -2.0200   -1.1770 c2        1 4CD      0.060000
     11 C1          1.5340   -0.2180    1.4100 c3        1 4CD     -0.168000
     12 C2          0.1420   -0.1760    2.0270 c3        1 4CD     -0.172000
     13 C3         -0.8540   -0.0900    0.8580 c3        1 4CD     -0.037000
     14 C9          2.2320    5.0050    2.5850 c1        1 4CD      0.185000
     15 C11         3.3270    0.1090   -2.3870 c3        1 4CD     -0.206000
     16 C12        -2.0390   -0.9500   -1.7000 c2        1 4CD     -0.182000
     17 C14        -3.7330    0.7350   -2.2370 c2        1 4CD     -0.076000
     18 C16        -3.8870   -0.3250   -0.0340 c1        1 4CD      0.142000
     19 O2         -5.2190    1.5680   -0.4390 oh        1 4CD     -0.230000
     20 C18        -0.5650   -0.7360   -1.5380 c2        1 4CD      0.367000
     21 O3          0.2060   -1.0180   -2.4790 o         1 4CD     -0.362000
     22 CL1        -4.4720    1.7980   -3.3370 cl        1 4CD      0.008000
     23 H4          1.8530   -0.9220   -0.6530 h1        1 4CD      0.119000
     24 H6          1.0660    3.1800   -0.7110 hc        1 4CD      0.131500
     25 H7          0.6800    2.2620    0.7950 hc        1 4CD      0.131500
     26 H8          3.6310    2.9510    0.4220 ha        1 4CD      0.127000
     27 H13        -2.2330    0.0480   -3.6230 ha        1 4CD      0.177000
     28 H1         -1.4170    0.8830    0.8940 h1        1 4CD      0.098500
     29 H1A         2.0350   -1.1940    1.6250 hc        1 4CD      0.095500
     30 H2          2.1810    0.5980    1.8140 hc        1 4CD      0.095500
     31 H2A        -0.0540   -1.0910    2.6370 hc        1 4CD      0.095500
     32 H3          0.0260    0.7130    2.6950 hc        1 4CD      0.095500
     33 H3A        -1.6060   -0.9270    0.9100 h1        1 4CD      0.098500
     34 H9          3.2760    2.2430   -1.9120 ha        1 4CD      0.116000
     35 H11         3.9650    0.4410   -3.2420 hc        1 4CD      0.096333
     36 H11A        3.9360   -0.5750   -1.7430 hc        1 4CD      0.096333
     37 H11B        2.4600   -0.4740   -2.7970 hc        1 4CD      0.096333
     38 H16        -3.7350   -2.2770   -1.4330 h4        1 4CD      0.157000
     39 HO1        -2.6650   -3.5050    0.0100 ho        1 4CD      0.234000
     40 HO2        -5.0220    2.4160   -0.8670 ho        1 4CD      0.225000
     41 O1         -2.0190   -2.8770   -0.3480 oh        1 4CD     -0.241000
@<TRIPOS>BOND
     1    1    2 1   
     2    1   13 1   
     3    1   20 1   
     4    2    3 1   
     5    2   11 1   
     6    2   23 1   
     7    3    4 1   
     8    3    7 1   
     9    4    5 1   
    10    4   24 1   
    11    4   25 1   
    12    5    6 1   
    13    5   26 1   
    14    6   14 1   
    15    7   15 1   
    16    7   34 1   
    17    8   16 1   
    18    8   17 1   
    19    8   27 1   
    20    9   17 1   
    21    9   18 1   
    22    9   19 1   
    23   10   16 1   
    24   10   38 1   
    25   10   41 1   
    26   11   12 1   
    27   11   29 1   
    28   11   30 1   
    29   12   13 1   
    30   12   31 1   
    31   12   32 1   
    32   13   28 1   
    33   13   33 1   
    34   15   35 1   
    35   15   36 1   
    36   15   37 1   
    37   16   20 1   
    38   17   22 1   
    39   19   40 1   
    40   20   21 1   
    41   39   41 1   
@<TRIPOS>SUBSTRUCTURE
     1 4CD         1 TEMP              0 ****  ****    0 ROOT
