@<TRIPOS>MOLECULE
4CD
   41    38     1     0     0
SMALL
bcc


@<TRIPOS>ATOM
      1 N1          0.2660   -0.4400    0.4900 n         1 4CD     -0.308000
      2 C4          1.5690   -0.4070    0.4690 c3        1 4CD      0.057000
      3 C5          2.0590    0.8580   -0.2450 c2        1 4CD     -0.084000
      4 C6          1.8390    2.1030    0.3230 c1        1 4CD     -0.112000
      5 C7          2.3280    3.2440   -0.2970 c1        1 4CD     -0.132500
      6 C8          3.0380    3.1390   -1.4840 c1        1 4CD     -0.132500
      7 C10         2.7720    0.7530   -1.4370 c2        1 4CD     -0.040000
      8 C13        -2.7160   -0.5560    0.8590 c1        1 4CD     -0.025000
      9 C15        -4.9130   -1.2390    0.1280 c1        1 4CD      0.139000
     10 C17        -2.9800   -1.7560   -1.2140 c1        1 4CD      0.143000
     11 C1          2.0040   -0.3860    1.9820 c3        1 4CD     -0.169000
     12 C2          0.7190   -0.1090    2.7760 c3        1 4CD     -0.171000
     13 C3         -0.1820    0.2570    1.8580 c3        1 4CD     -0.031000
     14 C9          3.2590    1.8900   -2.0540 c1        1 4CD     -0.138000
     15 C11         3.6290   -0.1120   -2.3680 c3        1 4CD     -0.196000
     16 C12        -2.1600   -1.1280   -0.2790 c1        1 4CD     -0.162000
     17 C14        -4.0920   -0.6100    1.0640 c1        1 4CD     -0.130000
     18 C16        -4.3580   -1.8100   -1.0080 c1        1 4CD     -0.302000
     19 O1         -2.8650   -2.8610   -2.0810 oh        1 4CD     -0.243000
     20 O2         -6.2990   -1.4000    0.3970 oh        1 4CD     -0.229000
     21 C18        -0.6170   -1.0080   -0.5450 c2        1 4CD      0.367000
     22 O3         -0.1360   -1.5090   -1.5400 o         1 4CD     -0.353000
     23 CL1        -4.7850    0.0750    2.5130 cl        1 4CD      0.018000
     24 H4          1.9220   -1.2070    0.0260 h1        1 4CD      0.120000
     25 H6          1.3400    2.1770    1.1580 ha        1 4CD      0.129000
     26 H7          2.1730    4.1180    0.1020 ha        1 4CD      0.129000
     27 H8          3.3820    3.9420   -1.9200 ha        1 4CD      0.129000
     28 H13        -2.1430   -0.1170    1.5130 ha        1 4CD      0.168000
     29 H1          2.3810   -1.2550    2.2390 hc        1 4CD      0.097000
     30 H1A         2.6560    0.3240    2.1360 hc        1 4CD      0.097000
     31 H2          0.8650    0.6160    3.4160 hc        1 4CD      0.090500
     32 H2A         0.4280   -0.9090    3.2330 hc        1 4CD      0.090500
     33 H3         -1.0680   -0.0520    2.1180 h1        1 4CD      0.089500
     34 H3A        -0.1810    1.2380    1.7550 h1        1 4CD      0.089500
     35 H9          3.7550    1.8160   -2.8830 ha        1 4CD      0.131000
     36 H11         4.5340    0.2650   -2.4240 hc        1 4CD      0.093667
     37 H11A        3.2240   -0.1300   -3.2670 hc        1 4CD      0.093667
     38 H11B        3.6770   -1.0250   -2.0130 hc        1 4CD      0.093667
     39 H16        -4.9360   -2.2530   -1.6670 ha        1 4CD      0.143000
     40 HO1        -2.6170   -3.5760   -1.6180 ho        1 4CD      0.226000
     41 HO2        -6.7710   -0.9600   -0.2110 ho        1 4CD      0.224000
@<TRIPOS>BOND
     1    1    2 1   
     2    1   13 1   
     3    1   21 1   
     4    2    3 1   
     5    2   11 1   
     6    2   24 1   
     7    3    4 1   
     8    3    7 1   
     9    4   25 1   
    10    5    6 1   
    11    5   26 1   
    12    6   27 1   
    13    7   14 1   
    14    7   15 1   
    15    8   16 1   
    16    8   28 1   
    17    9   17 1   
    18    9   20 1   
    19   10   18 1   
    20   10   19 1   
    21   11   12 1   
    22   11   29 1   
    23   11   30 1   
    24   12   13 1   
    25   12   31 1   
    26   12   32 1   
    27   13   33 1   
    28   13   34 1   
    29   14   35 1   
    30   15   36 1   
    31   15   37 1   
    32   15   38 1   
    33   16   21 1   
    34   17   23 1   
    35   18   39 1   
    36   19   40 1   
    37   20   41 1   
    38   21   22 1   
@<TRIPOS>SUBSTRUCTURE
     1 4CD         1 TEMP              0 ****  ****    0 ROOT
