@<TRIPOS>MOLECULE
4CD
   41    42     1     0     0
SMALL
bcc


@<TRIPOS>ATOM
      1 N1         -0.0930    0.0130   -0.2250 n         1 4CD     -0.319000
      2 C4          1.3690    0.0590   -0.2740 c3        1 4CD      0.033000
      3 C5          1.9310    1.3970   -0.8010 c3        1 4CD     -0.096000
      4 C6          1.5800    2.5430    0.1170 c2        1 4CD     -0.158000
      5 C7          2.4380    3.5050    0.5640 c2        1 4CD     -0.033000
      6 C8          3.7440    3.2240    0.0810 c1        1 4CD     -0.164000
      7 C10         3.4650    1.1330   -1.1790 c3        1 4CD      0.039000
      8 C13        -3.1060    0.7740   -1.6850 c2        1 4CD     -0.028000
      9 C15        -5.1120    0.3730   -0.2330 c2        1 4CD     -0.250000
     10 C17        -2.8590   -1.5520   -0.9220 c2        1 4CD      0.045000
     11 C1          1.8760   -0.2650    1.1490 c3        1 4CD     -0.170000
     12 C2          0.6450   -0.5210    2.0100 c3        1 4CD     -0.167000
     13 C3         -0.5770   -0.2770    1.1100 c3        1 4CD     -0.025000
     14 C9          4.1110    2.2930   -0.6200 c1        1 4CD     -0.173000
     15 C11         3.6220    0.9630   -2.6700 c3        1 4CD     -0.213000
     16 C12        -2.3130   -0.3600   -1.2610 c2        1 4CD     -0.198000
     17 C14        -4.3390    1.0930   -1.2490 c2        1 4CD     -0.125000
     18 C16        -4.9820    0.6480    1.0740 c1        1 4CD      0.259000
     19 O2         -5.9600   -0.6400   -0.6670 oh        1 4CD     -0.251000
     20 C18        -0.8360   -0.1500   -1.3780 c2        1 4CD      0.364000
     21 O3         -0.2970   -0.0460   -2.5000 o         1 4CD     -0.367000
     22 CL1        -5.1500    2.4470   -1.9020 cl        1 4CD     -0.014000
     23 H4          1.7160   -0.7390   -0.9990 h1        1 4CD      0.104000
     24 H6          1.4150    1.6270   -1.7810 hc        1 4CD      0.134000
     25 H7          0.5170    2.5860    0.4000 ha        1 4CD      0.143000
     26 H8          2.1780    4.3550    1.1980 ha        1 4CD      0.152000
     27 H13        -2.6070    1.4130   -2.4420 ha        1 4CD      0.169000
     28 H1         -1.1730    0.6020    1.4830 h1        1 4CD      0.089000
     29 H1A         2.5380   -1.1640    1.1180 hc        1 4CD      0.099500
     30 H2          2.4740    0.5910    1.5510 hc        1 4CD      0.099500
     31 H2A         0.6380   -1.5710    2.3940 hc        1 4CD      0.093000
     32 H3          0.6200    0.1670    2.8900 hc        1 4CD      0.093000
     33 H3A        -1.2490   -1.1800    1.1020 h1        1 4CD      0.089000
     34 H9          3.8200    0.1990   -0.6570 hc        1 4CD      0.104000
     35 H11         4.6830    0.7140   -2.9170 hc        1 4CD      0.087667
     36 H11A        2.9610    0.1360   -3.0300 hc        1 4CD      0.087667
     37 H11B        3.3440    1.9000   -3.2100 hc        1 4CD      0.087667
     38 H16        -3.9490   -1.7350   -0.9320 h4        1 4CD      0.165000
     39 HO1        -2.6040   -3.3770   -0.4550 ho        1 4CD      0.230000
     40 HO2        -6.4710   -0.2730   -1.4050 ho        1 4CD      0.227000
     41 O1         -2.0480   -2.5890   -0.5480 oh        1 4CD     -0.248000
@<TRIPOS>BOND
     1    1    2 1   
     2    1   13 1   
     3    1   20 1   
     4    2    3 1   
     5    2   11 1   
     6    2   23 1   
     7    3    4 1   
     8    3    7 1   
     9    3   24 1   
    10    4    5 1   
    11    4   25 1   
    12    5    6 1   
    13    5   26 1   
    14    6   14 1   
    15    7   14 1   
    16    7   15 1   
    17    7   34 1   
    18    8   16 1   
    19    8   17 1   
    20    8   27 1   
    21    9   17 1   
    22    9   18 1   
    23    9   19 1   
    24   10   16 1   
    25   10   38 1   
    26   10   41 1   
    27   11   12 1   
    28   11   29 1   
    29   11   30 1   
    30   12   13 1   
    31   12   31 1   
    32   12   32 1   
    33   13   28 1   
    34   13   33 1   
    35   15   35 1   
    36   15   36 1   
    37   15   37 1   
    38   16   20 1   
    39   17   22 1   
    40   19   40 1   
    41   20   21 1   
    42   39   41 1   
@<TRIPOS>SUBSTRUCTURE
     1 4CD         1 TEMP              0 ****  ****    0 ROOT
