@<TRIPOS>MOLECULE
4CD
   41    43     1     0     0
SMALL
bcc


@<TRIPOS>ATOM
      1 N1         -0.7940    0.4530   -0.6440 n         1 4CD     -0.441800
      2 C4         -2.2060    0.6020   -1.0300 c3        1 4CD      0.136000
      3 C5         -3.1380    0.4750    0.1510 ca        1 4CD     -0.091300
      4 C6         -3.1010    1.4530    1.1520 ca        1 4CD     -0.113000
      5 C7         -3.9560    1.3860    2.2480 ca        1 4CD     -0.141000
      6 C8         -4.8610    0.3290    2.3530 ca        1 4CD     -0.120000
      7 C10        -4.0360   -0.5990    0.2620 ca        1 4CD     -0.047300
      8 C13         1.8790   -0.1850    0.5350 ca        1 4CD     -0.016000
      9 C15         4.0640   -1.0820   -0.0200 ca        1 4CD      0.193100
     10 C17         2.1330   -1.6860   -1.3480 ca        1 4CD      0.226100
     11 C1         -2.3410    1.9950   -1.6960 c3        1 4CD     -0.093400
     12 C2         -1.0110    2.7090   -1.4920 c3        1 4CD     -0.096400
     13 C3         -0.1060    1.7300   -0.7240 c3        1 4CD      0.079000
     14 C9         -4.8970   -0.6530    1.3680 ca        1 4CD     -0.136000
     15 C11        -4.0950   -1.6820   -0.7490 c3        1 4CD     -0.070800
     16 C12         1.3120   -0.8570   -0.5520 ca        1 4CD     -0.255600
     17 C14         3.2410   -0.2860    0.8070 ca        1 4CD     -0.122600
     18 C16         3.5120   -1.7850   -1.0950 ca        1 4CD     -0.206000
     19 O2          5.4130   -1.2290    0.1610 oh        1 4CD     -0.482100
     20 C18        -0.1450   -0.7580   -0.8340 c         1 4CD      0.685700
     21 O3         -0.7870   -1.7700   -1.2020 o         1 4CD     -0.636100
     22 CL1         3.8920    0.5490    2.1390 cl        1 4CD     -0.089400
     23 H4         -2.4570   -0.1980   -1.7890 h1        1 4CD      0.084700
     24 H6         -2.3820    2.2830    1.0660 ha        1 4CD      0.128000
     25 H7         -3.9170    2.1600    3.0270 ha        1 4CD      0.130000
     26 H8         -5.5420    0.2700    3.2150 ha        1 4CD      0.131000
     27 H13         1.2410    0.4250    1.1960 ha        1 4CD      0.160000
     28 H1         -2.5630    1.8690   -2.7840 hc        1 4CD      0.059700
     29 H1A        -3.1830    2.5700   -1.2380 hc        1 4CD      0.059700
     30 H2         -0.5470    2.9790   -2.4730 hc        1 4CD      0.054200
     31 H2A        -1.1430    3.6490   -0.9040 hc        1 4CD      0.054200
     32 H3          0.0650    2.1100    0.3220 h1        1 4CD      0.053200
     33 H3A         0.8930    1.6210   -1.2250 h1        1 4CD      0.053200
     34 H9         -5.6070   -1.4890    1.4580 ha        1 4CD      0.132000
     35 H11        -3.0780   -2.1280   -0.9020 hc        1 4CD      0.054367
     36 H11A       -4.7910   -2.4950   -0.4270 hc        1 4CD      0.054367
     37 H11B       -4.4590   -1.2820   -1.7290 hc        1 4CD      0.054367
     38 H16         4.1480   -2.4170   -1.7320 ha        1 4CD      0.178000
     39 HO1         0.7200   -2.4620   -2.4020 ho        1 4CD      0.461000
     40 HO2         5.6770   -0.7240    0.9480 ho        1 4CD      0.435000
     41 O1          1.6920   -2.4150   -2.4160 oh        1 4CD     -0.496100
@<TRIPOS>BOND
     1    1    2 1   
     2    1   13 1   
     3    1   20 1   
     4    2    3 1   
     5    2   11 1   
     6    2   23 1   
     7    3    4 ar  
     8    3    7 ar  
     9    4    5 ar  
    10    4   24 1   
    11    5    6 ar  
    12    5   25 1   
    13    6   14 ar  
    14    6   26 1   
    15    7   14 ar  
    16    7   15 1   
    17    8   16 ar  
    18    8   17 ar  
    19    8   27 1   
    20    9   17 ar  
    21    9   18 ar  
    22    9   19 1   
    23   10   16 ar  
    24   10   18 ar  
    25   10   41 1   
    26   11   12 1   
    27   11   28 1   
    28   11   29 1   
    29   12   13 1   
    30   12   30 1   
    31   12   31 1   
    32   13   32 1   
    33   13   33 1   
    34   14   34 1   
    35   15   35 1   
    36   15   36 1   
    37   15   37 1   
    38   16   20 1   
    39   17   22 1   
    40   18   38 1   
    41   19   40 1   
    42   20   21 2   
    43   39   41 1   
@<TRIPOS>SUBSTRUCTURE
     1 4CD         1 TEMP              0 ****  ****    0 ROOT
