@<TRIPOS>MOLECULE
4CD
   41    42     1     0     0
SMALL
bcc


@<TRIPOS>ATOM
      1 N1         -0.0870    0.0120   -0.2260 n         1 4CD     -0.319000
      2 C4          1.3750    0.0780   -0.2750 c3        1 4CD      0.033000
      3 C5          1.9190    1.4240   -0.8000 c3        1 4CD     -0.096000
      4 C6          1.5530    2.5640    0.1210 c2        1 4CD     -0.158000
      5 C7          2.3990    3.5350    0.5680 c2        1 4CD     -0.033000
      6 C8          3.7080    3.2730    0.0840 c1        1 4CD     -0.164000
      7 C10         3.4550    1.1800   -1.1800 c3        1 4CD      0.039000
      8 C13        -3.1110    0.7360   -1.6830 c2        1 4CD     -0.028000
      9 C15        -5.1100    0.3070   -0.2300 c2        1 4CD     -0.250000
     10 C17        -2.8330   -1.5870   -0.9230 c2        1 4CD      0.045000
     11 C1          1.8870   -0.2420    1.1470 c3        1 4CD     -0.170000
     12 C2          0.6600   -0.5160    2.0080 c3        1 4CD     -0.167000
     13 C3         -0.5660   -0.2870    1.1090 c3        1 4CD     -0.025000
     14 C9          4.0870    2.3480   -0.6200 c1        1 4CD     -0.173000
     15 C11         3.6140    1.0150   -2.6710 c3        1 4CD     -0.213000
     16 C12        -2.3020   -0.3880   -1.2610 c2        1 4CD     -0.198000
     17 C14        -4.3470    1.0390   -1.2450 c2        1 4CD     -0.125000
     18 C16        -4.9820    0.5830    1.0770 c1        1 4CD      0.259000
     19 O2         -5.9450   -0.7160   -0.6640 oh        1 4CD     -0.251000
     20 C18        -0.8280   -0.1590   -1.3780 c2        1 4CD      0.364000
     21 O3         -0.2920   -0.0450   -2.5000 o         1 4CD     -0.367000
     22 Cl1        -5.1760    2.3830   -1.8960 cl        1 4CD     -0.014000
     23 H4          1.7320   -0.7150   -1.0020 h1        1 4CD      0.104000
     24 H6          1.3980    1.6490   -1.7800 hc        1 4CD      0.134000
     25 H7          0.4900    2.5920    0.4040 ha        1 4CD      0.143000
     26 H8          2.1280    4.3810    1.2040 ha        1 4CD      0.152000
     27 H13        -2.6200    1.3830   -2.4390 ha        1 4CD      0.169000
     28 H1         -1.1730    0.5840    1.4840 h1        1 4CD      0.089000
     29 H1A         2.5600   -1.1330    1.1140 hc        1 4CD      0.099500
     30 H2          2.4740    0.6200    1.5500 hc        1 4CD      0.099500
     31 H2A         0.6660   -1.5660    2.3900 hc        1 4CD      0.093000
     32 H3          0.6260    0.1700    2.8890 hc        1 4CD      0.093000
     33 H3A        -1.2270   -1.1980    1.1010 h1        1 4CD      0.089000
     34 H9          3.8230    0.2500   -0.6600 hc        1 4CD      0.104000
     35 H11         4.6770    0.7810   -2.9190 hc        1 4CD      0.087667
     36 H11A        3.3230    1.9490   -3.2100 hc        1 4CD      0.087667
     37 H11B        2.9630    0.1800   -3.0320 hc        1 4CD      0.087667
     38 H16        -3.9200   -1.7840   -0.9330 h4        1 4CD      0.165000
     39 HO1        -2.5540   -3.4090   -0.4590 ho        1 4CD      0.230000
     40 HO2        -6.4620   -0.3540   -1.4010 ho        1 4CD      0.227000
     41 O1         -2.0080   -2.6140   -0.5510 oh        1 4CD     -0.248000
@<TRIPOS>BOND
     1    1    2 1   
     2    1   13 1   
     3    1   20 1   
     4    2    3 1   
     5    2   11 1   
     6    2   23 1   
     7    3    4 1   
     8    3    7 1   
     9    3   24 1   
    10    4    5 1   
    11    4   25 1   
    12    5    6 1   
    13    5   26 1   
    14    6   14 1   
    15    7   14 1   
    16    7   15 1   
    17    7   34 1   
    18    8   16 1   
    19    8   17 1   
    20    8   27 1   
    21    9   17 1   
    22    9   18 1   
    23    9   19 1   
    24   10   16 1   
    25   10   38 1   
    26   10   41 1   
    27   11   12 1   
    28   11   29 1   
    29   11   30 1   
    30   12   13 1   
    31   12   31 1   
    32   12   32 1   
    33   13   28 1   
    34   13   33 1   
    35   15   35 1   
    36   15   36 1   
    37   15   37 1   
    38   16   20 1   
    39   17   22 1   
    40   19   40 1   
    41   20   21 1   
    42   39   41 1   
@<TRIPOS>SUBSTRUCTURE
     1 4CD         1 TEMP              0 ****  ****    0 ROOT
