@<TRIPOS>MOLECULE
4CE
   75    80     1     0     0
SMALL
bcc


@<TRIPOS>ATOM
      1 C13         1.0280   -0.0430   -0.0480 ca        1 4CE     -0.009000
      2 C17         1.4500    2.3250   -0.3200 ca        1 4CE     -0.048000
      3 C16         1.3000    2.5300    1.0360 ca        1 4CE     -0.193000
      4 C15         1.0030    1.4400    1.9020 ca        1 4CE      0.134600
      5 C19         0.5680   -0.9600    2.2300 cc        1 4CE      0.222900
      6 C20         0.4170   -0.7630    3.5680 cd        1 4CE     -0.342200
      7 C21         0.5560    0.5720    4.1460 c         1 4CE      0.715700
      8 C12         1.3100    1.0380   -0.8800 ca        1 4CE     -0.192500
      9 C34         4.1890    3.9390   -7.7790 cc        1 4CE      0.417400
     10 C27         8.4530    3.5650   -6.7350 ca        1 4CE     -0.089000
     11 N1          1.4340   -4.3750   -6.5650 n         1 4CE     -0.424800
     12 C2          0.1640   -4.6600   -5.9310 c3        1 4CE      0.079500
     13 C3         -0.9490   -5.0180   -6.9410 c3        1 4CE      0.153300
     14 N4         -0.5320   -6.0390   -7.8880 n3        1 4CE     -0.732600
     15 C5          0.7060   -5.6860   -8.5650 c3        1 4CE      0.153300
     16 C6          1.8410   -5.3320   -7.5820 c3        1 4CE      0.079500
     17 C7          2.0730   -0.0660   -4.2250 cc        1 4CE      0.291800
     18 N8          1.3730    1.0960   -4.5610 na        1 4CE     -0.257900
     19 C9          0.9770    1.6780   -3.3570 cc        1 4CE     -0.098200
     20 C10         1.4700    0.8410   -2.3080 cd        1 4CE      0.416800
     21 N11         2.1400   -0.2380   -2.8720 nd        1 4CE     -0.653000
     22 C14         0.8700    0.1410    1.3320 ca        1 4CE     -0.150800
     23 N22         0.8480    1.6300    3.2620 n         1 4CE     -0.449100
     24 O23         0.4360    0.8370    5.3550 o         1 4CE     -0.608500
     25 O24         0.4520   -2.1850    1.6270 oh        1 4CE     -0.495100
     26 C25         2.6540   -1.0280   -5.2200 c3        1 4CE      0.163200
     27 C26         7.0750    3.7200   -6.8260 ca        1 4CE     -0.113000
     28 C28         9.0320    2.3080   -6.9500 ca        1 4CE      0.032400
     29 C29         8.2290    1.2090   -7.2590 ca        1 4CE     -0.096000
     30 C30         6.8380    1.3460   -7.3480 ca        1 4CE     -0.084800
     31 C31         6.2540    2.6160   -7.1370 ca        1 4CE      0.016800
     32 N32         4.8480    2.8100   -7.2420 na        1 4CE     -0.002500
     33 N35         2.8600    3.7000   -7.6210 nd        1 4CE     -0.347000
     34 N36         2.7560    2.5110   -7.0260 nd        1 4CE     -0.080000
     35 N37         3.8890    1.9680   -6.7880 nc        1 4CE     -0.234800
     36 C38         6.0630    0.1680   -7.7260 ce        1 4CE      0.044800
     37 C39         5.2910   -0.6080   -6.9490 cf        1 4CE     -0.253200
     38 O41         5.6030    0.4090   -4.7520 o         1 4CE     -0.421100
     39 N42         4.0890   -1.3390   -4.8660 n4        1 4CE     -0.679800
     40 C43         1.7700   -2.2870   -5.2270 c3        1 4CE     -0.181400
     41 C44         2.2120   -3.2920   -6.2790 c         1 4CE      0.653100
     42 O45         3.3260   -3.1240   -6.8480 o         1 4CE     -0.699100
     43 C46        -1.5850   -6.4210   -8.8020 c3        1 4CE      0.154100
     44 H56         0.9220   -1.0600   -0.4600 ha        1 4CE      0.159000
     45 H58         1.6870    3.1790   -0.9740 ha        1 4CE      0.143000
     46 H57         1.4120    3.5430    1.4520 ha        1 4CE      0.150000
     47 H59         0.1870   -1.5700    4.2770 ha        1 4CE      0.174000
     48 H64         9.0860    4.4350   -6.4890 ha        1 4CE      0.175000
     49 H48         0.3170   -5.5330   -5.2310 h1        1 4CE      0.070200
     50 H47        -0.1930   -3.7820   -5.3270 h1        1 4CE      0.070200
     51 H50        -1.8190   -5.4250   -6.3510 h1        1 4CE      0.050450
     52 H49        -1.2900   -4.0730   -7.4570 h1        1 4CE      0.050450
     53 H51         0.5640   -4.8270   -9.2830 h1        1 4CE      0.050450
     54 H52         1.0440   -6.5820   -9.1580 h1        1 4CE      0.050450
     55 H54         2.1810   -6.2690   -7.0540 h1        1 4CE      0.070200
     56 H53         2.7050   -4.9160   -8.1720 h1        1 4CE      0.070200
     57 H55         1.1710    1.4350   -5.4700 hn        1 4CE      0.340700
     58 H60         0.9430    2.5490    3.6380 hn        1 4CE      0.340500
     59 H61         0.2400   -2.8410    2.3100 ho        1 4CE      0.438000
     60 H62         2.6670   -0.5840   -6.2630 hx        1 4CE      0.127700
     61 H63         6.6330    4.7140   -6.6460 ha        1 4CE      0.161000
     62 H65         8.6890    0.2220   -7.4360 ha        1 4CE      0.167000
     63 H67         6.1700   -0.1100   -8.7980 ha        1 4CE      0.171000
     64 H68         4.7710   -1.4810   -7.3980 ha        1 4CE      0.199000
     65 H69         4.2980   -2.2920   -5.2090 hn        1 4CE      0.476300
     66 H71         0.7240   -1.9320   -5.4420 hc        1 4CE      0.111700
     67 H70         1.7640   -2.7760   -4.2160 hc        1 4CE      0.111700
     68 H73        -1.2190   -7.2720   -9.4340 h1        1 4CE      0.044033
     69 H74        -1.9110   -5.5840   -9.4780 h1        1 4CE      0.044033
     70 H72        -2.4700   -6.7680   -8.2070 h1        1 4CE      0.044033
     71 C40         5.0780   -0.3860   -5.5190 c         1 4CE      0.572300
     72 CL2        10.7070    2.1190   -6.8370 cl        1 4CE     -0.031400
     73 H422        4.2150   -1.3070   -3.8450 hn        1 4CE      0.476300
     74 CL1         0.0730    3.0780   -3.2810 cl        1 4CE      0.027600
     75 H66         4.6830    4.8050   -8.2340 h5        1 4CE      0.106100
@<TRIPOS>BOND
     1    1    8 ar  
     2    1   22 ar  
     3    1   44 1   
     4    2    3 ar  
     5    2    8 ar  
     6    2   45 1   
     7    3    4 ar  
     8    3   46 1   
     9    4   22 ar  
    10    4   23 1   
    11    5    6 2   
    12    5   22 1   
    13    5   25 1   
    14    6    7 1   
    15    6   47 1   
    16    7   23 1   
    17    7   24 2   
    18    8   20 1   
    19    9   32 1   
    20    9   33 2   
    21    9   75 1   
    22   10   27 ar  
    23   10   28 ar  
    24   10   48 1   
    25   11   12 1   
    26   11   16 1   
    27   11   41 1   
    28   12   13 1   
    29   12   49 1   
    30   12   50 1   
    31   13   14 1   
    32   13   51 1   
    33   13   52 1   
    34   14   15 1   
    35   14   43 1   
    36   15   16 1   
    37   15   53 1   
    38   15   54 1   
    39   16   55 1   
    40   16   56 1   
    41   17   18 1   
    42   17   21 2   
    43   17   26 1   
    44   18   19 1   
    45   18   57 1   
    46   19   20 2   
    47   19   74 1   
    48   20   21 1   
    49   23   58 1   
    50   25   59 1   
    51   26   39 1   
    52   26   40 1   
    53   26   60 1   
    54   27   31 ar  
    55   27   61 1   
    56   28   29 ar  
    57   28   72 1   
    58   29   30 ar  
    59   29   62 1   
    60   30   31 ar  
    61   30   36 1   
    62   31   32 1   
    63   32   35 1   
    64   33   34 1   
    65   34   35 2   
    66   36   37 2   
    67   36   63 1   
    68   37   64 1   
    69   37   71 1   
    70   38   71 2   
    71   39   65 1   
    72   39   71 1   
    73   39   73 1   
    74   40   41 1   
    75   40   66 1   
    76   40   67 1   
    77   41   42 2   
    78   43   68 1   
    79   43   69 1   
    80   43   70 1   
@<TRIPOS>SUBSTRUCTURE
     1 4CE         1 TEMP              0 ****  ****    0 ROOT
