@<TRIPOS>MOLECULE
4CF
   23    23     1     0     0
SMALL
bcc


@<TRIPOS>ATOM
      1 C           3.4580   -0.2740    0.0240 c         1 4CF      0.888600
      2 N           1.8850    1.5030    0.9450 n3        1 4CF     -0.887800
      3 O           4.4000    0.5080    0.3320 o         1 4CF     -0.837300
      4 C1         -4.4650   -0.2430    0.2680 cg        1 4CF      0.262800
      5 N1         -5.6070   -0.2920    0.4930 n1        1 4CF     -0.422800
      6 CA          1.9960    0.1660    0.3790 c3        1 4CF      0.021500
      7 CB          1.1290   -0.0280   -0.8720 c3        1 4CF     -0.045100
      8 CG         -0.3230   -0.0680   -0.5640 ca        1 4CF      0.007700
      9 CZ         -3.0740   -0.1820   -0.0070 ca        1 4CF     -0.067000
     10 CD1        -0.8730   -1.1790    0.0940 ca        1 4CF     -0.141500
     11 CD2        -1.1700    0.9870   -0.9330 ca        1 4CF     -0.141500
     12 CE1        -2.2330   -1.2400    0.3720 ca        1 4CF     -0.091000
     13 CE2        -2.5330    0.9350   -0.6580 ca        1 4CF     -0.091000
     14 OXT         3.6040   -1.3970   -0.5320 o         1 4CF     -0.837300
     15 HN          2.5730    1.5710    1.6780 hn        1 4CF      0.332800
     16 HNA         2.1600    2.1680    0.2430 hn        1 4CF      0.332800
     17 HA          1.6340   -0.5540    1.1710 h1        1 4CF      0.043700
     18 HB          1.3470    0.7800   -1.6180 hc        1 4CF      0.066200
     19 HBA         1.4440   -1.0080   -1.3310 hc        1 4CF      0.066200
     20 HD1        -0.2080   -2.0040    0.3950 ha        1 4CF      0.144000
     21 HD2        -0.7460    1.8710   -1.4340 ha        1 4CF      0.144000
     22 HE1        -2.6530   -2.1150    0.8900 ha        1 4CF      0.127000
     23 HE2        -3.1860    1.7700   -0.9490 ha        1 4CF      0.127000
@<TRIPOS>BOND
     1    1    3 1   
     2    1    6 1   
     3    1   14 1   
     4    2    6 1   
     5    2   15 1   
     6    2   16 1   
     7    4    5 3   
     8    4    9 1   
     9    6    7 1   
    10    6   17 1   
    11    7    8 1   
    12    7   18 1   
    13    7   19 1   
    14    8   10 ar  
    15    8   11 ar  
    16    9   12 ar  
    17    9   13 ar  
    18   10   12 ar  
    19   10   20 1   
    20   11   13 ar  
    21   11   21 1   
    22   12   22 1   
    23   13   23 1   
@<TRIPOS>SUBSTRUCTURE
     1 4CF         1 TEMP              0 ****  ****    0 ROOT
