@<TRIPOS>MOLECULE
4CH
   13    13     1     0     0
SMALL
bcc


@<TRIPOS>ATOM
      1 CL9        -2.5910   -0.0600   -0.1350 cl        1 4CH     -0.095400
      2 C4         -0.8950   -0.0010   -0.0370 ca        1 4CH     -0.019600
      3 C5         -0.2440    1.2390   -0.0490 ca        1 4CH     -0.087500
      4 C6          1.1430    1.2970    0.0310 ca        1 4CH     -0.178000
      5 C1          1.8750    0.1000    0.1220 ca        1 4CH      0.126100
      6 O7          3.2420    0.2240    0.1980 oh        1 4CH     -0.494100
      7 C2          1.2250   -1.1420    0.1340 ca        1 4CH     -0.178000
      8 C3         -0.1650   -1.1890    0.0540 ca        1 4CH     -0.087500
      9 H5         -0.8270    2.1710   -0.1200 ha        1 4CH      0.149000
     10 H6          1.6740    2.2590    0.0240 ha        1 4CH      0.147500
     11 HO7         3.6210   -0.6650    0.2560 ho        1 4CH      0.421000
     12 H2          1.8060   -2.0730    0.2050 ha        1 4CH      0.147500
     13 H3         -0.6810   -2.1610    0.0620 ha        1 4CH      0.149000
@<TRIPOS>BOND
     1    1    2 1   
     2    2    3 ar  
     3    2    8 ar  
     4    3    4 ar  
     5    3    9 1   
     6    4    5 ar  
     7    4   10 1   
     8    5    6 1   
     9    5    7 ar  
    10    6   11 1   
    11    7    8 ar  
    12    7   12 1   
    13    8   13 1   
@<TRIPOS>SUBSTRUCTURE
     1 4CH         1 TEMP              0 ****  ****    0 ROOT
