@<TRIPOS>MOLECULE
4CH
   13    13     1     0     0
SMALL
bcc


@<TRIPOS>ATOM
      1 CL9         0.0280   -0.1550    0.0680 cl        1 4CH     -0.095400
      2 C4          1.7240   -0.0420    0.0040 ca        1 4CH     -0.019600
      3 C5          2.4550    0.0680    1.1900 ca        1 4CH     -0.087500
      4 C6          3.8440    0.1600    1.1400 ca        1 4CH     -0.178000
      5 C1          4.4910    0.1420   -0.1030 ca        1 4CH      0.126100
      6 O7          5.8580    0.2290   -0.2310 oh        1 4CH     -0.494100
      7 C2          3.7580    0.0310   -1.2970 ca        1 4CH     -0.178000
      8 C3          2.3730   -0.0600   -1.2360 ca        1 4CH     -0.087500
      9 H5          1.9400    0.0820    2.1630 ha        1 4CH      0.149000
     10 H6          4.4250    0.2470    2.0690 ha        1 4CH      0.147500
     11 HO7         6.2370    0.2990    0.6580 ho        1 4CH      0.421000
     12 H2          4.2870    0.0190   -2.2600 ha        1 4CH      0.147500
     13 H3          1.7890   -0.1470   -2.1660 ha        1 4CH      0.149000
@<TRIPOS>BOND
     1    1    2 1   
     2    2    3 ar  
     3    2    8 ar  
     4    3    4 ar  
     5    3    9 1   
     6    4    5 ar  
     7    4   10 1   
     8    5    6 1   
     9    5    7 ar  
    10    6   11 1   
    11    7    8 ar  
    12    7   12 1   
    13    8   13 1   
@<TRIPOS>SUBSTRUCTURE
     1 4CH         1 TEMP              0 ****  ****    0 ROOT
