@<TRIPOS>MOLECULE
4CH
   13    11     1     0     0
SMALL
bcc


@<TRIPOS>ATOM
      1 CL9        -3.3420    0.0610   -0.0000 cl        1 4CH     -0.017000
      2 C4         -1.5990    0.0610   -0.0000 c2        1 4CH     -0.098000
      3 C5         -0.9060    0.0610    1.2000 c2        1 4CH     -0.090000
      4 C6          0.4800    0.0610    1.2000 c1        1 4CH     -0.149000
      5 C1          1.1730    0.0610    0.0000 c1        1 4CH      0.081000
      6 O7          2.5800    0.0810    0.0000 oh        1 4CH     -0.248000
      7 C2          0.4800    0.0610   -1.2000 c1        1 4CH     -0.207000
      8 C3         -0.9060    0.0610   -1.2000 c1        1 4CH     -0.085000
      9 H5         -1.3940    0.0610    2.0460 ha        1 4CH      0.150000
     10 H6          0.9680    0.0610    2.0460 ha        1 4CH      0.156000
     11 HO7         2.8880   -0.7510    0.0000 ho        1 4CH      0.220000
     12 H2          0.9690    0.0610   -2.0460 ha        1 4CH      0.139000
     13 H3         -1.3940    0.0610   -2.0460 ha        1 4CH      0.148000
@<TRIPOS>BOND
     1    1    2 1   
     2    2    3 1   
     3    2    8 1   
     4    3    4 1   
     5    3    9 1   
     6    4   10 1   
     7    5    6 1   
     8    5    7 1   
     9    6   11 1   
    10    7   12 1   
    11    8   13 1   
@<TRIPOS>SUBSTRUCTURE
     1 4CH         1 TEMP              0 ****  ****    0 ROOT
