@<TRIPOS>MOLECULE
4CK
   32    33     1     0     0
SMALL
bcc


@<TRIPOS>ATOM
      1 N1         -0.1790   -1.5210    0.8480 na        1 4CK     -0.165000
      2 N2          1.0440   -1.8590    1.2730 n2        1 4CK     -0.150000
      3 N3          2.8990   -0.6360    2.2970 n         1 4CK     -0.292000
      4 OAA         9.2040   -1.1130    5.3360 o         1 4CK     -0.539000
      5 OAC         9.7410    0.9690    4.6970 o         1 4CK     -0.539000
      6 CAD         6.8670    1.3670    4.2910 c2        1 4CK     -0.255000
      7 CAE         6.8820   -1.0230    3.6720 c3        1 4CK     -0.201000
      8 CAF         5.5400    1.4720    3.8140 c2        1 4CK      0.082000
      9 CAG         5.5170   -0.8890    3.1890 c1        1 4CK     -0.177000
     10 CAH         0.6220    0.3750    1.7580 c2        1 4CK     -0.220000
     11 CAI        -2.9880   -0.3670    1.3840 c3        1 4CK     -0.180000
     12 CAJ        -2.0270    0.8240   -0.5330 c1        1 4CK     -0.047000
     13 CAO         3.4870    0.5140    2.8250 c2        1 4CK      0.384000
     14 CAP         7.5350    0.1720    4.2430 c2        1 4CK      0.004000
     15 CAQ         4.8860    0.3610    3.2940 c2        1 4CK     -0.282000
     16 CAR         1.6050   -0.7120    1.8080 c2        1 4CK      0.051000
     17 CAS        -0.5140   -0.1940    1.1790 c2        1 4CK     -0.117000
     18 CAT        -1.8140    0.4440    0.8580 c3        1 4CK     -0.129000
     19 HN3         3.4740   -1.4600    2.2740 hn        1 4CK      0.282000
     20 HAD         5.0240    2.4470    3.8600 ha        1 4CK      0.136000
     21 HAE         6.9190   -1.8410    4.4600 hc        1 4CK      0.182500
     22 HAF         7.3740    2.2560    4.6990 ha        1 4CK      0.155000
     23 HAG         7.5190   -1.4260    2.8280 hc        1 4CK      0.182500
     24 HAH         0.7890    1.3930    2.1000 ha        1 4CK      0.195000
     25 HAI        -2.8590   -0.5600    2.4750 hc        1 4CK      0.081000
     26 HAIA       -1.8260    1.4580    1.3850 hc        1 4CK      0.166000
     27 HAJ        -3.9390    0.1930    1.2180 hc        1 4CK      0.081000
     28 HAJA       -3.0590   -1.3470    0.8530 hc        1 4CK      0.081000
     29 HAT        -1.1380    0.8200   -1.1830 ha        1 4CK      0.051000
     30 HN1        -0.8440   -2.2470    0.7130 hn        1 4CK      0.250000
     31 CAN         8.9440    0.0010    4.8040 c2        1 4CK      0.341000
     32 OAB         2.8670    1.5990    2.8980 o         1 4CK     -0.414000
@<TRIPOS>BOND
     1    1    2 1   
     2    1   17 1   
     3    1   30 1   
     4    2   16 1   
     5    3   13 1   
     6    3   16 1   
     7    3   19 1   
     8    4   31 1   
     9    5   31 1   
    10    6    8 1   
    11    6   14 1   
    12    6   22 1   
    13    7    9 1   
    14    7   14 1   
    15    7   21 1   
    16    7   23 1   
    17    8   15 1   
    18    8   20 1   
    19    9   15 1   
    20   10   16 1   
    21   10   17 1   
    22   10   24 1   
    23   11   18 1   
    24   11   25 1   
    25   11   27 1   
    26   11   28 1   
    27   12   18 1   
    28   12   29 1   
    29   13   15 1   
    30   13   32 1   
    31   14   31 1   
    32   17   18 1   
    33   18   26 1   
@<TRIPOS>SUBSTRUCTURE
     1 4CK         1 TEMP              0 ****  ****    0 ROOT
