@<TRIPOS>MOLECULE
4CK
   32    34     1     0     0
SMALL
bcc


@<TRIPOS>ATOM
      1 N1          4.1690    1.1980    0.4290 na        1 4CK     -0.025600
      2 N2          2.9010    1.5870    0.5550 nc        1 4CK     -0.578800
      3 N3          0.7350    0.5060    0.1900 n         1 4CK     -0.542400
      4 OAA        -6.5260   -0.6890    0.5220 o         1 4CK     -0.822300
      5 OAC        -6.2740    1.3750   -0.3000 o         1 4CK     -0.822300
      6 CAD        -3.4790    1.0650   -0.4750 ca        1 4CK     -0.120000
      7 CAE        -3.7460   -1.1700    0.3960 ca        1 4CK     -0.120000
      8 CAF        -2.1010    0.8830   -0.5370 ca        1 4CK     -0.116500
      9 CAG        -2.3690   -1.3640    0.3310 ca        1 4CK     -0.116500
     10 CAH         2.9930   -0.6250   -0.1530 cd        1 4CK     -0.278300
     11 CAI         6.7580   -0.5530    0.6750 cx        1 4CK     -0.134400
     12 CAJ         6.7620   -0.1050   -0.7540 cx        1 4CK     -0.134400
     13 CAO        -0.0750   -0.5780   -0.1680 c         1 4CK      0.698700
     14 CAP        -4.3130    0.0450   -0.0010 ca        1 4CK     -0.094600
     15 CAQ        -1.5380   -0.3320   -0.1250 ca        1 4CK     -0.184600
     16 CAR         2.1250    0.4930    0.1990 cd        1 4CK      0.443200
     17 CAS         4.2970   -0.1340    0.0140 cc        1 4CK     -0.081600
     18 CAT         5.5590   -0.8290   -0.2000 cx        1 4CK     -0.046400
     19 HN3         0.2840    1.3510    0.4650 hn        1 4CK      0.332500
     20 HAD        -3.9460    2.0100   -0.7970 ha        1 4CK      0.158500
     21 HAE        -4.4180   -1.9660    0.7580 ha        1 4CK      0.158500
     22 HAF        -1.4670    1.6910   -0.9310 ha        1 4CK      0.120500
     23 HAG        -1.9210   -2.3230    0.6310 ha        1 4CK      0.120500
     24 HAH         2.6700   -1.6110   -0.4730 ha        1 4CK      0.197000
     25 HAI         7.3950   -1.4030    0.9770 hc        1 4CK      0.070700
     26 HAIA        6.6780    0.2010    1.4780 hc        1 4CK      0.070700
     27 HAJ         6.6850    0.9720   -0.9830 hc        1 4CK      0.070700
     28 HAJA        7.4020   -0.6330   -1.4830 hc        1 4CK      0.070700
     29 HAT         5.3880   -1.8760   -0.5280 hc        1 4CK      0.100700
     30 HN1         4.9030    1.8160    0.6740 hn        1 4CK      0.310700
     31 CAN        -5.8210    0.2600    0.0790 c         1 4CK      0.905200
     32 OAB         0.4190   -1.6790   -0.4760 o         1 4CK     -0.610100
@<TRIPOS>BOND
     1    1    2 1   
     2    1   17 1   
     3    1   30 1   
     4    2   16 2   
     5    3   13 1   
     6    3   16 1   
     7    3   19 1   
     8    4   31 1   
     9    5   31 1   
    10    6    8 ar  
    11    6   14 ar  
    12    6   20 1   
    13    7    9 ar  
    14    7   14 ar  
    15    7   21 1   
    16    8   15 ar  
    17    8   22 1   
    18    9   15 ar  
    19    9   23 1   
    20   10   16 1   
    21   10   17 2   
    22   10   24 1   
    23   11   12 1   
    24   11   18 1   
    25   11   25 1   
    26   11   26 1   
    27   12   18 1   
    28   12   27 1   
    29   12   28 1   
    30   13   15 1   
    31   13   32 2   
    32   14   31 1   
    33   17   18 1   
    34   18   29 1   
@<TRIPOS>SUBSTRUCTURE
     1 4CK         1 TEMP              0 ****  ****    0 ROOT
