@<TRIPOS>MOLECULE
4CK
   32    33     1     0     0
SMALL
bcc


@<TRIPOS>ATOM
      1 N1          0.0960    0.8970   -0.1180 na        1 4CK     -0.152000
      2 N2          1.4140    1.0000    0.0530 n2        1 4CK     -0.159000
      3 N3          2.9340    0.5610    1.9280 ns        1 4CK     -0.303000
      4 OAA         9.3790   -1.5190    4.6240 o         1 4CK     -0.499500
      5 OAC         9.5580    0.7370    4.6300 o         1 4CK     -0.499500
      6 CAD         7.0390   -0.1480    2.7550 c3        1 4CK     -0.229500
      7 CAE         6.4550   -0.1260    5.2090 c3        1 4CK     -0.229500
      8 CAF         5.6080   -0.0680    2.4620 c1        1 4CK     -0.183000
      9 CAG         5.0350   -0.0590    4.8440 c1        1 4CK     -0.183000
     10 CAH         0.4130    0.2280    2.0030 c2        1 4CK     -0.229000
     11 CAI        -2.4030   -0.9910    1.8410 c3        1 4CK     -0.220000
     12 CAJ        -2.7180    0.5130   -0.1500 c1        1 4CK     -0.056000
     13 CAO         3.2430   -0.0730    3.1490 c2        1 4CK      0.408000
     14 CAP         7.4610   -0.2120    4.1530 c2        1 4CK      0.174000
     15 CAQ         4.6870   -0.0750    3.4970 c2        1 4CK     -0.317000
     16 CAR         1.6730    0.5830    1.3540 c2        1 4CK      0.044000
     17 CAS        -0.5690    0.4580    1.0300 c2        1 4CK     -0.080000
     18 CAT        -2.0420    0.2970    1.1230 c3        1 4CK     -0.122000
     19 HN3         3.7150    0.7680    1.3360 hn        1 4CK      0.260000
     20 HAD         7.5590    0.7440    2.2830 hc        1 4CK      0.182750
     21 HAE         6.6010   -1.0110    5.9050 hc        1 4CK      0.182750
     22 HAF         7.4690   -1.0500    2.2180 hc        1 4CK      0.182750
     23 HAG         6.7040    0.7830    5.8440 hc        1 4CK      0.182750
     24 HAH         0.3070   -0.1460    3.0170 ha        1 4CK      0.193000
     25 HAI        -1.8990   -1.0350    2.8360 hc        1 4CK      0.084000
     26 HAIA       -2.4310    1.1780    1.7450 hc        1 4CK      0.153000
     27 HAJ        -2.0700   -1.8740    1.2440 hc        1 4CK      0.084000
     28 HAJA       -3.5080   -1.0530    1.9900 hc        1 4CK      0.084000
     29 HAT        -3.6970    0.0160   -0.2490 ha        1 4CK      0.033000
     30 HN1        -0.3430    1.2390   -0.9410 hn        1 4CK      0.274000
     31 CAN         8.9440   -0.3500    4.5040 c2        1 4CK      0.324000
     32 OAB         2.3440   -0.5690    3.8530 o         1 4CK     -0.382000
@<TRIPOS>BOND
     1    1    2 1   
     2    1   17 1   
     3    1   30 1   
     4    2   16 1   
     5    3   13 1   
     6    3   16 1   
     7    3   19 1   
     8    4   31 1   
     9    5   31 1   
    10    6    8 1   
    11    6   14 1   
    12    6   20 1   
    13    6   22 1   
    14    7    9 1   
    15    7   14 1   
    16    7   21 1   
    17    7   23 1   
    18    8   15 1   
    19    9   15 1   
    20   10   16 1   
    21   10   17 1   
    22   10   24 1   
    23   11   18 1   
    24   11   25 1   
    25   11   27 1   
    26   11   28 1   
    27   12   18 1   
    28   12   29 1   
    29   13   15 1   
    30   13   32 1   
    31   14   31 1   
    32   17   18 1   
    33   18   26 1   
@<TRIPOS>SUBSTRUCTURE
     1 4CK         1 TEMP              0 ****  ****    0 ROOT
