@<TRIPOS>MOLECULE
4CK
   33    34     1     0     0
SMALL
bcc


@<TRIPOS>ATOM
      1 N1         -0.1060    1.1830    0.0200 na        1 4CK     -0.156000
      2 N2          1.1630    1.3930   -0.3150 n2        1 4CK     -0.069000
      3 N3          4.7360   -0.1100    2.1220 n2        1 4CK     -0.227000
      4 OAA         9.5950    1.0070    5.4930 o         1 4CK     -0.271000
      5 OAC         9.7880   -0.8420    4.3600 oh        1 4CK     -0.281000
      6 CAD         7.1200   -0.0380    3.2510 c2        1 4CK     -0.143000
      7 CAE         6.6480    0.3840    5.7200 c3        1 4CK     -0.144000
      8 CAF         5.7070   -0.0050    3.0350 cv        1 4CK      0.104000
      9 CAG         5.1890    0.4270    5.5020 c1        1 4CK     -0.105000
     10 CAH         0.9340   -0.7540    0.4730 c2        1 4CK     -0.260000
     11 CAI        -4.0120   -0.5870    1.4540 c3        1 4CK     -0.194000
     12 CAJ        -2.7470    0.0150    0.9920 c2        1 4CK     -0.134000
     13 CAO         3.7870    0.1300    3.2190 cv        1 4CK      0.339000
     14 CAP         7.5390    0.1480    4.5300 c2        1 4CK     -0.059000
     15 CAQ         4.8000    0.2390    4.2290 cv        1 4CK     -0.364000
     16 CAR         1.8380    0.2390   -0.0560 c2        1 4CK     -0.198000
     17 CAS        -0.3260   -0.1170    0.5070 c2        1 4CK     -0.025000
     18 CAT        -1.5870   -0.6550    0.9490 c2        1 4CK     -0.127000
     19 HN3         2.1010    0.0850    2.3370 ho        1 4CK      0.287000
     20 HAD         9.2580   -1.4770    3.8570 ho        1 4CK      0.229000
     21 HAE         6.8540   -0.4190    6.4850 hc        1 4CK      0.149000
     22 HAF         7.8090   -0.1820    2.4050 ha        1 4CK      0.154000
     23 HAG         6.9580    1.3640    6.1890 hc        1 4CK      0.149000
     24 HAH         1.1650   -1.7780    0.7400 ha        1 4CK      0.170000
     25 HAI        -1.5290   -1.7130    1.2650 ha        1 4CK      0.146000
     26 HAIA       -3.8830   -1.6550    1.7570 hc        1 4CK      0.090000
     27 HAJ        -4.7770   -0.5410    0.6380 hc        1 4CK      0.090000
     28 HAJA       -4.4070   -0.0170    2.3330 hc        1 4CK      0.090000
     29 HAT        -2.8230    1.0700    0.6810 ha        1 4CK      0.116000
     30 HN1        -0.7870    1.8960   -0.1010 hn        1 4CK      0.276000
     31 OAB         2.4790    0.2080    3.2430 oh        1 4CK     -0.143000
     32 H32         2.9070    0.1340   -0.2550 h4        1 4CK      0.197000
     33 CAN         8.9920    0.1640    4.8320 c2        1 4CK      0.313000
@<TRIPOS>BOND
     1    1    2 1   
     2    1   17 1   
     3    1   30 1   
     4    2   16 1   
     5    3    8 1   
     6    3   13 1   
     7    4   33 1   
     8    5   20 1   
     9    5   33 1   
    10    6    8 1   
    11    6   14 1   
    12    6   22 1   
    13    7    9 1   
    14    7   14 1   
    15    7   21 1   
    16    7   23 1   
    17    8   15 1   
    18    9   15 1   
    19   10   16 1   
    20   10   17 1   
    21   10   24 1   
    22   11   12 1   
    23   11   26 1   
    24   11   27 1   
    25   11   28 1   
    26   12   18 1   
    27   12   29 1   
    28   13   15 1   
    29   13   31 1   
    30   14   33 1   
    31   16   32 1   
    32   17   18 1   
    33   18   25 1   
    34   19   31 1   
@<TRIPOS>SUBSTRUCTURE
     1 4CK         1 TEMP              0 ****  ****    0 ROOT
