@<TRIPOS>MOLECULE
4CL
   14    14     1     0     0
SMALL
bcc


@<TRIPOS>ATOM
      1 CL9         0.0550   -0.0740   -0.0200 cl        1 4CL     -0.090400
      2 C4          1.7520    0.0190   -0.0140 ca        1 4CL      0.020400
      3 C5          2.4450   -0.0040    1.1970 ca        1 4CL     -0.119000
      4 C6          3.8370    0.0720    1.1990 ca        1 4CL     -0.179000
      5 C1          4.5390    0.1720   -0.0050 ca        1 4CL      0.103100
      6 O7          5.9090    0.2500   -0.0760 oh        1 4CL     -0.471100
      7 C2          3.8300    0.1940   -1.2320 ca        1 4CL      0.111100
      8 C3          2.4350    0.1180   -1.2320 ca        1 4CL     -0.183000
      9 O8          4.5750    0.2930   -2.3820 oh        1 4CL     -0.471100
     10 H5          1.9010   -0.0820    2.1500 ha        1 4CL      0.151000
     11 H6          4.3860    0.0540    2.1530 ha        1 4CL      0.142000
     12 HO7         6.2510    0.2240    0.8300 ho        1 4CL      0.417000
     13 H3          1.8830    0.1350   -2.1830 ha        1 4CL      0.151000
     14 HO8         3.9600    0.2970   -3.1310 ho        1 4CL      0.418000
@<TRIPOS>BOND
     1    1    2 1   
     2    2    3 ar  
     3    2    8 ar  
     4    3    4 ar  
     5    3   10 1   
     6    4    5 ar  
     7    4   11 1   
     8    5    6 1   
     9    5    7 ar  
    10    6   12 1   
    11    7    8 ar  
    12    7    9 1   
    13    8   13 1   
    14    9   14 1   
@<TRIPOS>SUBSTRUCTURE
     1 4CL         1 TEMP              0 ****  ****    0 ROOT
