@<TRIPOS>MOLECULE
4CL
   14    14     1     0     0
SMALL
bcc


@<TRIPOS>ATOM
      1 CL9        -2.7580   -0.2820   -0.0360 cl        1 4CL     -0.090400
      2 C4         -1.0980    0.0780    0.0240 ca        1 4CL      0.014400
      3 C5         -0.6710    1.4060   -0.0710 ca        1 4CL     -0.119000
      4 C6          0.6870    1.7090   -0.0230 ca        1 4CL     -0.127000
      5 C1          1.6260    0.6790    0.1200 ca        1 4CL      0.113100
      6 O7          2.9520    1.0310    0.1620 oh        1 4CL     -0.491100
      7 C2          1.1850   -0.6600    0.2150 ca        1 4CL      0.048100
      8 C3         -0.1770   -0.9650    0.1670 ca        1 4CL     -0.167000
      9 O8          2.1700   -1.6160    0.3550 oh        1 4CL     -0.514100
     10 H5         -1.4060    2.2180   -0.1840 ha        1 4CL      0.152000
     11 H6          1.0380    2.7480   -0.0960 ha        1 4CL      0.159000
     12 HO7         3.4750    0.2210    0.2630 ho        1 4CL      0.439000
     13 H3         -0.5150   -2.0080    0.2420 ha        1 4CL      0.150000
     14 HO8         1.7400   -2.4810    0.4080 ho        1 4CL      0.432000
@<TRIPOS>BOND
     1    1    2 1   
     2    2    3 ar  
     3    2    8 ar  
     4    3    4 ar  
     5    3   10 1   
     6    4    5 ar  
     7    4   11 1   
     8    5    6 1   
     9    5    7 ar  
    10    6   12 1   
    11    7    8 ar  
    12    7    9 1   
    13    8   13 1   
    14    9   14 1   
@<TRIPOS>SUBSTRUCTURE
     1 4CL         1 TEMP              0 ****  ****    0 ROOT
