@<TRIPOS>MOLECULE
4CL
   14    12     1     0     0
SMALL
bcc


@<TRIPOS>ATOM
      1 CL9        -3.4370    0.0010    0.2120 cl        1 4CL     -0.012000
      2 C4         -1.6940    0.0010    0.2120 c2        1 4CL     -0.064000
      3 C5         -1.0010    0.0010    1.4120 c2        1 4CL     -0.119000
      4 C6          0.3850    0.0010    1.4120 c1        1 4CL     -0.127000
      5 C1          1.0790    0.0010    0.2120 c1        1 4CL      0.035500
      6 O7          2.4850    0.0200    0.2120 oh        1 4CL     -0.256500
      7 C2          0.3860    0.0010   -0.9890 c1        1 4CL      0.035500
      8 C3         -1.0010    0.0010   -0.9890 c1        1 4CL     -0.167000
      9 O8          1.0890   -0.0200   -2.2070 oh        1 4CL     -0.256500
     10 H5         -1.4890    0.0010    2.2570 ha        1 4CL      0.152000
     11 H6          0.8740    0.0010    2.2570 ha        1 4CL      0.159000
     12 HO7         2.7920   -0.7820    0.4360 ho        1 4CL      0.234500
     13 H3         -1.4890    0.0010   -1.8340 ha        1 4CL      0.150000
     14 HO8         1.0190    0.7720   -2.6030 ho        1 4CL      0.234500
@<TRIPOS>BOND
     1    1    2 1   
     2    2    3 1   
     3    2    8 1   
     4    3    4 1   
     5    3   10 1   
     6    4   11 1   
     7    5    6 1   
     8    5    7 1   
     9    6   12 1   
    10    7    9 1   
    11    8   13 1   
    12    9   14 1   
@<TRIPOS>SUBSTRUCTURE
     1 4CL         1 TEMP              0 ****  ****    0 ROOT
