@<TRIPOS>MOLECULE
4CL
   14    14     1     0     0
SMALL
bcc


@<TRIPOS>ATOM
      1 Cl9         0.0500    0.0620   -0.0140 cl        1 4CL     -0.090400
      2 C4          1.7500    0.0900   -0.0110 ca        1 4CL      0.020400
      3 C5          2.4420    0.0890    1.2000 ca        1 4CL     -0.119000
      4 C6          3.8370    0.1130    1.2000 ca        1 4CL     -0.179000
      5 C1          4.5410    0.1360   -0.0070 ca        1 4CL      0.103100
      6 O7          5.9120    0.1600   -0.0800 oh        1 4CL     -0.471100
      7 C2          3.8310    0.1360   -1.2330 ca        1 4CL      0.111100
      8 C3          2.4340    0.1130   -1.2310 ca        1 4CL     -0.183000
      9 O8          4.5790    0.1600   -2.3860 oh        1 4CL     -0.471100
     10 H5          1.8960    0.0710    2.1550 ha        1 4CL      0.151000
     11 H6          4.3850    0.1130    2.1540 ha        1 4CL      0.142000
     12 HO7         6.2540    0.1570    0.8270 ho        1 4CL      0.417000
     13 H3          1.8830    0.1130   -2.1830 ha        1 4CL      0.151000
     14 HO8         3.9630    0.1570   -3.1350 ho        1 4CL      0.418000
@<TRIPOS>BOND
     1    1    2 1   
     2    2    3 ar  
     3    2    8 ar  
     4    3    4 ar  
     5    3   10 1   
     6    4    5 ar  
     7    4   11 1   
     8    5    6 1   
     9    5    7 ar  
    10    6   12 1   
    11    7    8 ar  
    12    7    9 1   
    13    8   13 1   
    14    9   14 1   
@<TRIPOS>SUBSTRUCTURE
     1 4CL         1 TEMP              0 ****  ****    0 ROOT
