@<TRIPOS>MOLECULE
4CM
   24    24     1     0     0
SMALL
bcc


@<TRIPOS>ATOM
      1 C1         -0.0180   -0.2820    0.0710 ca        1 4CM     -0.285900
      2 O1          3.8990    0.3080    3.1530 o         1 4CM     -0.868500
      3 C2          1.3450   -0.6110   -0.0090 ca        1 4CM     -0.133500
      4 O2          1.8250    1.0520    4.5590 o         1 4CM     -0.868500
      5 C3          2.1210   -0.5520    1.1450 ca        1 4CM     -0.049500
      6 N1         -0.3340    0.8410   -2.0740 nz        1 4CM     -0.834600
      7 N2         -1.8280   -0.9390   -1.5660 n2        1 4CM     -0.754100
      8 C4          1.5380   -0.1740    2.3470 ca        1 4CM     -0.222500
      9 C5          0.1890    0.1360    2.4330 ca        1 4CM     -0.049500
     10 C6         -0.6090    0.0800    1.2900 ca        1 4CM     -0.133500
     11 C7         -0.8290   -0.2590   -1.1550 ce        1 4CM      0.618800
     12 P1          2.5460    0.0690    3.7140 p5        1 4CM      1.277700
     13 C8          2.4620   -1.4660    4.4030 c3        1 4CM     -0.380300
     14 H2          1.7910   -0.9260   -0.9640 ha        1 4CM      0.120500
     15 H3          3.2100   -0.7510    1.1440 ha        1 4CM      0.196000
     16 HN11        0.6810    0.7230   -2.1720 hn        1 4CM      0.462800
     17 HN12       -0.5170    1.7370   -1.6110 hn        1 4CM      0.462800
     18 HN2        -2.1560   -1.6740   -0.9730 hn        1 4CM      0.481400
     19 H5         -0.2010    0.4680    3.4140 ha        1 4CM      0.196000
     20 H6         -1.6770    0.3320    1.3400 ha        1 4CM      0.120500
     21 H81         3.0820   -1.4980    5.3280 hc        1 4CM      0.060033
     22 H82         1.4260   -1.7430    4.6960 hc        1 4CM      0.060033
     23 H83         2.8510   -2.2570    3.7240 hc        1 4CM      0.060033
     24 H13        -0.7820    0.8260   -2.9930 hn        1 4CM      0.462800
@<TRIPOS>BOND
     1    1    3 ar  
     2    1   10 ar  
     3    1   11 1   
     4    2   12 1   
     5    3    5 ar  
     6    3   14 1   
     7    4   12 1   
     8    5    8 ar  
     9    5   15 1   
    10    6   11 1   
    11    6   16 1   
    12    6   17 1   
    13    6   24 1   
    14    7   11 2   
    15    7   18 1   
    16    8    9 ar  
    17    8   12 1   
    18    9   10 ar  
    19    9   19 1   
    20   10   20 1   
    21   12   13 1   
    22   13   21 1   
    23   13   22 1   
    24   13   23 1   
@<TRIPOS>SUBSTRUCTURE
     1 4CM         1 TEMP              0 ****  ****    0 ROOT
