@<TRIPOS>MOLECULE
4CM
   24    20     1     0     0
SMALL
bcc


@<TRIPOS>ATOM
      1 C1         -0.8060    0.2750   -1.5990 cg        1 4CM     -0.088300
      2 O1          0.6620    0.8350    3.4690 oh        1 4CM     -0.810400
      3 C2          0.5770    0.1860   -1.5930 c1        1 4CM     -0.081500
      4 O2          2.8040    0.5970    2.2020 o         1 4CM     -0.892300
      5 C3          1.2590    0.0780   -0.3910 c1        1 4CM      0.021500
      6 N1         -2.1670   -0.3440   -3.6500 nh        1 4CM     -0.820600
      7 N2         -1.7030    1.9200   -3.1680 n1        1 4CM     -0.290000
      8 C4          0.5590    0.0590    0.8050 c1        1 4CM     -0.496500
      9 C5         -0.8250    0.1490    0.7990 c1        1 4CM     -0.021500
     10 C6         -1.5070    0.2570   -0.4030 c1        1 4CM     -0.021500
     11 C7         -1.5790    0.6610   -2.8410 ce        1 4CM      0.219300
     12 P1          1.4570    0.0080    2.3820 p5        1 4CM      1.597400
     13 C8          1.6190   -1.7150    2.9310 c3        1 4CM     -0.459300
     14 HO1         1.2350    1.2070    4.0350 ho        1 4CM      0.475000
     15 H2          1.0700    0.2000   -2.4350 ha        1 4CM      0.091500
     16 H3          2.2330    0.0160   -0.3870 ha        1 4CM      0.115500
     17 HN11       -2.9080   -0.1530   -4.1500 hn        1 4CM      0.400300
     18 HN12       -1.8000   -1.1810   -3.6790 hn        1 4CM      0.400300
     19 HN2        -1.3240    2.5670   -2.6470 DU        1 4CM      0.155000
     20 H5         -1.3180    0.1350    1.6410 ha        1 4CM      0.094500
     21 H6         -2.4810    0.3190   -0.4070 ha        1 4CM      0.094500
     22 H81         1.9550   -2.2640    2.1910 hc        1 4CM      0.105367
     23 H82         0.7430   -2.0510    3.2150 hc        1 4CM      0.105367
     24 H83         2.2460   -1.7610    3.6830 hc        1 4CM      0.105367
@<TRIPOS>BOND
     1    1    3 3   
     2    1   11 1   
     3    2   12 1   
     4    2   14 1   
     5    3   15 1   
     6    4   12 2   
     7    5    8 3   
     8    5   16 1   
     9    6   11 1   
    10    6   17 1   
    11    6   18 1   
    12    7   11 2   
    13    8   12 1   
    14    9   10 3   
    15    9   20 1   
    16   10   21 1   
    17   12   13 1   
    18   13   22 1   
    19   13   23 1   
    20   13   24 1   
@<TRIPOS>SUBSTRUCTURE
     1 4CM         1 TEMP              0 ****  ****    0 ROOT
