@<TRIPOS>MOLECULE
4CM
   24    24     1     0     0
SMALL
bcc


@<TRIPOS>ATOM
      1 C1         -2.0320   -0.0450   -0.1350 ca        1 4CM     -0.081900
      2 O1          2.8110    1.4680    0.4910 oh        1 4CM     -0.812400
      3 C2         -1.3160   -1.1640    0.3020 ca        1 4CM     -0.124000
      4 O2          3.0130   -0.9570    0.7840 o         1 4CM     -0.893300
      5 C3          0.0770   -1.1230    0.3130 ca        1 4CM     -0.039500
      6 N1         -4.1440    1.0280    0.4690 nh        1 4CM     -0.957800
      7 N2         -4.1120   -1.0670   -0.7680 n2        1 4CM     -0.819100
      8 C4          0.7550    0.0160   -0.1200 ca        1 4CM     -0.463500
      9 C5          0.0330    1.1260   -0.5510 ca        1 4CM     -0.039500
     10 C6         -1.3590    1.1060   -0.5640 ca        1 4CM     -0.124000
     11 C7         -3.5320   -0.0840   -0.1490 ce        1 4CM      0.641800
     12 P1          2.3700    0.0230   -0.0890 py        1 4CM      1.563400
     13 C8          2.8710    0.0590   -1.6500 c3        1 4CM     -0.460300
     14 HO1         3.3300    1.4430    1.2910 ho        1 4CM      0.473000
     15 H2         -1.8480   -2.0720    0.6260 ha        1 4CM      0.155000
     16 H3          0.6720   -1.9810    0.6740 ha        1 4CM      0.157500
     17 HN11       -3.5770    1.5290    1.1110 hn        1 4CM      0.402300
     18 HN12       -5.0900    0.9180    0.7530 hn        1 4CM      0.402300
     19 HN2        -5.1100   -1.0700   -0.7680 hn        1 4CM      0.388400
     20 H5          0.5880    2.0240   -0.8700 ha        1 4CM      0.157500
     21 H6         -1.9240    1.9820   -0.9160 ha        1 4CM      0.155000
     22 H81         3.8520   -0.4660   -1.7770 hc        1 4CM      0.106033
     23 H82         2.1670   -0.4310   -2.3650 hc        1 4CM      0.106033
     24 H83         3.0260    1.0990   -2.0300 hc        1 4CM      0.106033
@<TRIPOS>BOND
     1    1    3 ar  
     2    1   10 ar  
     3    1   11 1   
     4    2   12 1   
     5    2   14 1   
     6    3    5 ar  
     7    3   15 1   
     8    4   12 2   
     9    5    8 ar  
    10    5   16 1   
    11    6   11 1   
    12    6   17 1   
    13    6   18 1   
    14    7   11 2   
    15    7   19 1   
    16    8    9 ar  
    17    8   12 1   
    18    9   10 ar  
    19    9   20 1   
    20   10   21 1   
    21   12   13 1   
    22   13   22 1   
    23   13   23 1   
    24   13   24 1   
@<TRIPOS>SUBSTRUCTURE
     1 4CM         1 TEMP              0 ****  ****    0 ROOT
