@<TRIPOS>MOLECULE
4CM
   24    24     1     0     0
SMALL
bcc


@<TRIPOS>ATOM
      1 C1          0.0060   -0.2780    0.0530 ca        1 4CM     -0.285900
      2 O1          3.8710    0.2580    3.2100 o         1 4CM     -0.868500
      3 C2          1.3620   -0.6450    0.0080 ca        1 4CM     -0.133500
      4 O2          1.7890    1.0800    4.5580 o         1 4CM     -0.868500
      5 C3          2.1140   -0.5880    1.1780 ca        1 4CM     -0.049500
      6 N1         -0.2320    0.8170   -2.1160 n4        1 4CM     -0.834600
      7 N2         -1.7850   -0.9140   -1.6120 n2        1 4CM     -0.754100
      8 C4          1.5160   -0.1740    2.3610 ca        1 4CM     -0.222500
      9 C5          0.1750    0.1730    2.4120 ca        1 4CM     -0.049500
     10 C6         -0.6000    0.1200    1.2530 ca        1 4CM     -0.133500
     11 C7         -0.7770   -0.2540   -1.1900 ce        1 4CM      0.618800
     12 P1          2.5000    0.0640    3.7450 p5        1 4CM      1.277700
     13 C8          2.3610   -1.4570    4.4560 c3        1 4CM     -0.380300
     14 H2          1.8190   -0.9870   -0.9310 ha        1 4CM      0.120500
     15 H3          3.1970   -0.8160    1.2040 ha        1 4CM      0.196000
     16 HN11        0.7810    0.6700   -2.1910 hn        1 4CM      0.462800
     17 HN12       -0.6610    0.7990   -3.0440 hn        1 4CM      0.462800
     18 HN2        -2.1460   -1.6290   -1.0140 hn        1 4CM      0.481400
     19 H5         -0.2270    0.5320    3.3790 ha        1 4CM      0.196000
     20 H6         -1.6620    0.4010    1.2760 ha        1 4CM      0.120500
     21 H81         1.3110   -1.7020    4.7290 hc        1 4CM      0.060033
     22 H82         2.9570   -1.4890    5.3970 hc        1 4CM      0.060033
     23 H83         2.7450   -2.2680    3.8000 hc        1 4CM      0.060033
     24 H13        -0.4010    1.7250   -1.6710 hn        1 4CM      0.462800
@<TRIPOS>BOND
     1    1    3 ar  
     2    1   10 ar  
     3    1   11 1   
     4    2   12 1   
     5    3    5 ar  
     6    3   14 1   
     7    4   12 1   
     8    5    8 ar  
     9    5   15 1   
    10    6   11 1   
    11    6   16 1   
    12    6   17 1   
    13    6   24 1   
    14    7   11 2   
    15    7   18 1   
    16    8    9 ar  
    17    8   12 1   
    18    9   10 ar  
    19    9   19 1   
    20   10   20 1   
    21   12   13 1   
    22   13   21 1   
    23   13   22 1   
    24   13   23 1   
@<TRIPOS>SUBSTRUCTURE
     1 4CM         1 TEMP              0 ****  ****    0 ROOT
