@<TRIPOS>MOLECULE
4CM
   25    25     1     0     0
SMALL
bcc


@<TRIPOS>ATOM
      1 C1          0.0480    0.1970    0.0530 ca        1 4CM     -0.218900
      2 O1          1.1190   -0.4970    4.9450 oh        1 4CM     -0.812400
      3 C2          1.3370   -0.3470    0.0940 ca        1 4CM     -0.118500
      4 O2          3.2730   -1.0510    3.8470 o         1 4CM     -0.869300
      5 C3          2.0130   -0.3930    1.3150 ca        1 4CM     -0.023500
      6 N1         -1.7470   -0.7830   -1.3280 n4        1 4CM     -0.825600
      7 N2         -0.5280    1.0300   -2.2530 n2        1 4CM     -0.701100
      8 C4          1.4120    0.1070    2.4680 ca        1 4CM     -0.380500
      9 C5          0.1310    0.6440    2.4190 ca        1 4CM     -0.023500
     10 C6         -0.5640    0.6940    1.2100 ca        1 4CM     -0.118500
     11 C7         -0.6670    0.2670   -1.2410 ce        1 4CM      0.582800
     12 P1          2.2360   -0.0280    3.8830 py        1 4CM      1.543400
     13 C8          2.6390    1.4880    4.3250 c3        1 4CM     -0.479300
     14 HO1         1.3010   -1.3020    5.4260 ho        1 4CM      0.489000
     15 H2          1.8180   -0.7350   -0.8170 ha        1 4CM      0.153500
     16 H3          3.0210   -0.8470    1.3980 ha        1 4CM      0.189000
     17 HN11       -2.3050   -0.6970   -2.1870 hn        1 4CM      0.472800
     18 HN12       -1.3000   -1.7060   -1.3040 hn        1 4CM      0.472800
     19 HN2         0.1750    1.7400   -2.2310 hn        1 4CM      0.494400
     20 H5         -0.3330    1.0100    3.3530 ha        1 4CM      0.189000
     21 H6         -1.5720    1.1340    1.1730 ha        1 4CM      0.153500
     22 H81         3.6330    1.5150    4.8460 hc        1 4CM      0.119700
     23 H82         2.7280    2.2160    3.4830 hc        1 4CM      0.119700
     24 H83         1.9130    1.9430    5.0480 hc        1 4CM      0.119700
     25 H13        -2.3560   -0.6820   -0.5090 hn        1 4CM      0.472800
@<TRIPOS>BOND
     1    1    3 ar  
     2    1   10 ar  
     3    1   11 1   
     4    2   12 1   
     5    2   14 1   
     6    3    5 ar  
     7    3   15 1   
     8    4   12 2   
     9    5    8 ar  
    10    5   16 1   
    11    6   11 1   
    12    6   17 1   
    13    6   18 1   
    14    6   25 1   
    15    7   11 2   
    16    7   19 1   
    17    8    9 ar  
    18    8   12 1   
    19    9   10 ar  
    20    9   20 1   
    21   10   21 1   
    22   12   13 1   
    23   13   22 1   
    24   13   23 1   
    25   13   24 1   
@<TRIPOS>SUBSTRUCTURE
     1 4CM         1 TEMP              0 ****  ****    0 ROOT
