@<TRIPOS>MOLECULE
4CN
   29    31     1     0     0
SMALL
bcc


@<TRIPOS>ATOM
      1 CAA         0.0640   -0.3640   -0.1760 c3        1 4CN     -0.132400
      2 CAL         1.5020   -0.0820    0.0150 cc        1 4CN      0.405700
      3 NAI         2.1640   -0.2230    1.1630 nd        1 4CN     -0.630000
      4 SAJ         2.4710    0.4770   -1.3000 ss        1 4CN     -0.101300
      5 CAF         3.8160    0.5340   -0.3190 cc        1 4CN     -0.255400
      6 CAO         3.5050    0.1280    0.9800 cd        1 4CN      0.405800
      7 CAM         4.4690    0.0650    2.0730 ca        1 4CN     -0.150500
      8 CAG         4.0400    0.2190    3.4090 ca        1 4CN     -0.044000
      9 CAN         4.9760    0.1670    4.4180 ca        1 4CN     -0.155300
     10 CAH         4.8190    0.2970    5.9000 c3        1 4CN     -0.099100
     11 CAK         6.2590    0.1390    6.4170 c         1 4CN      0.700500
     12 OAC         6.6370    0.1730    7.5920 o         1 4CN     -0.601500
     13 NAQ         7.1180   -0.0570    5.3090 n         1 4CN     -0.385000
     14 CAB         8.5270   -0.2560    5.3730 c3        1 4CN      0.091300
     15 CAP         6.3640   -0.0450    4.1210 ca        1 4CN      0.068600
     16 CAE         6.7860   -0.2040    2.8030 ca        1 4CN     -0.169000
     17 CAD         5.8230   -0.1480    1.7910 ca        1 4CN     -0.081000
     18 H1         -0.2310   -0.1650   -1.2360 hc        1 4CN      0.059700
     19 H2         -0.1600   -1.4350    0.0630 hc        1 4CN      0.059700
     20 H3         -0.5560    0.2810    0.4960 hc        1 4CN      0.059700
     21 H4          4.7990    0.8590   -0.6530 h4        1 4CN      0.181000
     22 H5          2.9760    0.3770    3.6380 ha        1 4CN      0.157000
     23 H6          4.4180    1.2950    6.2030 hc        1 4CN      0.095200
     24 H7          4.1730   -0.5060    6.3350 hc        1 4CN      0.095200
     25 H8          9.0600    0.5470    4.7960 h1        1 4CN      0.049700
     26 H9          8.8510   -0.2200    6.4480 h1        1 4CN      0.049700
     27 H10         8.8010   -1.2540    4.9340 h1        1 4CN      0.049700
     28 H11         7.8440   -0.3720    2.5590 ha        1 4CN      0.142000
     29 H12         6.1460   -0.2830    0.7470 ha        1 4CN      0.135000
@<TRIPOS>BOND
     1    1    2 1   
     2    1   18 1   
     3    1   19 1   
     4    1   20 1   
     5    2    3 2   
     6    2    4 1   
     7    3    6 1   
     8    4    5 1   
     9    5    6 2   
    10    5   21 1   
    11    6    7 1   
    12    7    8 ar  
    13    7   17 ar  
    14    8    9 ar  
    15    8   22 1   
    16    9   10 1   
    17    9   15 ar  
    18   10   11 1   
    19   10   23 1   
    20   10   24 1   
    21   11   12 2   
    22   11   13 1   
    23   13   14 1   
    24   13   15 1   
    25   14   25 1   
    26   14   26 1   
    27   14   27 1   
    28   15   16 ar  
    29   16   17 ar  
    30   16   28 1   
    31   17   29 1   
@<TRIPOS>SUBSTRUCTURE
     1 4CN         1 TEMP              0 ****  ****    0 ROOT
