@<TRIPOS>MOLECULE
4CN
   29    31     1     0     0
SMALL
bcc


@<TRIPOS>ATOM
      1 CAA         0.0580   -0.3650   -0.1680 c3        1 4CN     -0.132400
      2 CAL         1.5000   -0.0960    0.0180 cc        1 4CN      0.405700
      3 NAI         2.1610   -0.2250    1.1670 nd        1 4CN     -0.630000
      4 SAJ         2.4750    0.4260   -1.3070 ss        1 4CN     -0.101300
      5 CAF         3.8210    0.4860   -0.3280 cc        1 4CN     -0.255400
      6 CAO         3.5060    0.1070    0.9780 cd        1 4CN      0.405800
      7 CAM         4.4690    0.0520    2.0720 ca        1 4CN     -0.150500
      8 CAG         4.0430    0.2350    3.4050 ca        1 4CN     -0.044000
      9 CAN         4.9780    0.1910    4.4140 ca        1 4CN     -0.155300
     10 CAH         4.8240    0.3490    5.8940 c3        1 4CN     -0.099100
     11 CAK         6.2620    0.1840    6.4130 c         1 4CN      0.700500
     12 OAC         6.6410    0.2350    7.5880 o         1 4CN     -0.601500
     13 NAQ         7.1180   -0.0430    5.3090 n         1 4CN     -0.385000
     14 CAB         8.5240   -0.2560    5.3770 c3        1 4CN      0.091300
     15 CAP         6.3640   -0.0430    4.1210 ca        1 4CN      0.068600
     16 CAE         6.7830   -0.2300    2.8060 ca        1 4CN     -0.169000
     17 CAD         5.8210   -0.1810    1.7930 ca        1 4CN     -0.081000
     18 H1         -0.1780   -1.4280    0.0910 hc        1 4CN      0.059700
     19 H2         -0.5530    0.3000    0.4930 hc        1 4CN      0.059700
     20 H3         -0.2340   -0.1820   -1.2320 hc        1 4CN      0.059700
     21 H4          4.8080    0.7930   -0.6680 h4        1 4CN      0.181000
     22 H5          2.9810    0.4110    3.6310 ha        1 4CN      0.157000
     23 H6          4.1690   -0.4380    6.3430 hc        1 4CN      0.095200
     24 H7          4.4350    1.3580    6.1790 hc        1 4CN      0.095200
     25 H8          8.8500   -0.2050    6.4500 h1        1 4CN      0.049700
     26 H9          9.0670    0.5300    4.7850 h1        1 4CN      0.049700
     27 H10         8.7870   -1.2650    4.9560 h1        1 4CN      0.049700
     28 H11         7.8390   -0.4150    2.5650 ha        1 4CN      0.142000
     29 H12         6.1420   -0.3390    0.7520 ha        1 4CN      0.135000
@<TRIPOS>BOND
     1    1    2 1   
     2    1   18 1   
     3    1   19 1   
     4    1   20 1   
     5    2    3 2   
     6    2    4 1   
     7    3    6 1   
     8    4    5 1   
     9    5    6 2   
    10    5   21 1   
    11    6    7 1   
    12    7    8 ar  
    13    7   17 ar  
    14    8    9 ar  
    15    8   22 1   
    16    9   10 1   
    17    9   15 ar  
    18   10   11 1   
    19   10   23 1   
    20   10   24 1   
    21   11   12 2   
    22   11   13 1   
    23   13   14 1   
    24   13   15 1   
    25   14   25 1   
    26   14   26 1   
    27   14   27 1   
    28   15   16 ar  
    29   16   17 ar  
    30   16   28 1   
    31   17   29 1   
@<TRIPOS>SUBSTRUCTURE
     1 4CN         1 TEMP              0 ****  ****    0 ROOT
