@<TRIPOS>MOLECULE
4CP
   47    42     1     0     0
SMALL
bcc


@<TRIPOS>ATOM
      1 C1         -3.2040   -5.9780   -5.3740 c1        1 4CP     -0.066000
      2 C2         -2.3480   -5.1910   -6.1290 c1        1 4CP     -0.119000
      3 C3         -1.4190   -4.3750   -5.4990 c1        1 4CP     -0.119000
      4 C4         -1.3460   -4.3470   -4.1130 c1        1 4CP     -0.236000
      5 C5         -2.2030   -5.1360   -3.3590 c1        1 4CP     -0.109000
      6 C6         -3.1320   -5.9510   -3.9890 c1        1 4CP     -0.107000
      7 CL7        -4.3960   -6.9770   -6.1670 cl        1 4CP     -0.008000
      8 S8         -0.0610   -3.4080   -3.3080 ss        1 4CP      0.250000
      9 C9         -0.7130   -1.8360   -2.7840 c3        1 4CP     -0.340000
     10 C10         0.1680   -1.2640   -1.6810 c2        1 4CP      0.324000
     11 O11         1.3460   -1.5540   -1.6330 o         1 4CP     -0.372000
     12 N12        -0.3840   -0.3610   -0.7250 n         1 4CP     -0.368000
     13 C13         0.2310   -0.2120    0.5500 c3        1 4CP      0.013000
     14 C14        -0.6600    0.6200    1.4440 c3        1 4CP     -0.122000
     15 C15         0.1350    1.7810    2.0110 c2        1 4CP     -0.102000
     16 C16        -0.4440    3.0390    2.0970 c2        1 4CP     -0.104000
     17 C17         0.2230    4.0680    2.7470 c1        1 4CP     -0.173000
     18 C18         1.4690    3.8390    3.3120 c1        1 4CP      0.040000
     19 C19         2.0480    2.5810    3.2260 c1        1 4CP     -0.147000
     20 C20         1.3810    1.5520    2.5760 c1        1 4CP     -0.098000
     21 N21         2.0930    4.8560    4.0910 n3        1 4CP     -0.297000
     22 C22         2.0850    6.2060    3.6380 c2        1 4CP      0.158000
     23 N23         1.2530    6.5770    2.6980 n1        1 4CP     -0.327000
     24 N24         2.9800    7.1510    4.2060 n3        1 4CP     -0.322000
     25 C25         0.4380   -1.5750    1.1720 c2        1 4CP      0.281000
     26 O26        -0.4570   -2.3950    1.1470 o         1 4CP     -0.387000
     27 N27         1.6970   -1.9140    1.7350 n         1 4CP     -0.423000
     28 H2         -2.3990   -5.2100   -7.1030 ha        1 4CP      0.144000
     29 H3         -0.8170   -3.8210   -6.0290 ha        1 4CP      0.144000
     30 H5         -2.1530   -5.1170   -2.3850 ha        1 4CP      0.150000
     31 H6         -3.7360   -6.5060   -3.4580 ha        1 4CP      0.153000
     32 H9C1       -1.6230   -1.9560   -2.4450 h1        1 4CP      0.142500
     33 H9C2       -0.7260   -1.2200   -3.5420 h1        1 4CP      0.142500
     34 H12        -1.1540    0.0870   -0.9130 hn        1 4CP      0.245000
     35 H13         1.0960    0.2330    0.4450 h1        1 4CP      0.135000
     36 H141       -0.9950    0.0660    2.1770 hc        1 4CP      0.109500
     37 H142       -1.4130    0.9650    0.9250 hc        1 4CP      0.109500
     38 H16        -1.3200    3.2000    1.7000 ha        1 4CP      0.133000
     39 H17        -0.1830    4.9490    2.8060 ha        1 4CP      0.147000
     40 H19         2.9240    2.4200    3.6240 ha        1 4CP      0.142000
     41 H20         1.7890    0.6680    2.5170 ha        1 4CP      0.163000
     42 H21         2.5010    4.6410    4.8790 hn        1 4CP      0.212000
     43 H23         0.6790    5.9710    2.3330 DU        1 4CP      0.162000
     44 H241        3.8280    6.8960    4.4370 hn        1 4CP      0.186000
     45 H242        2.7110    8.0170    4.3350 hn        1 4CP      0.186000
     46 H271        2.4650   -1.5730    1.3760 hn        1 4CP      0.237500
     47 H272        1.7420   -2.5070    2.4310 hn        1 4CP      0.237500
@<TRIPOS>BOND
     1    1    6 1   
     2    1    7 1   
     3    2    3 1   
     4    2   28 1   
     5    3   29 1   
     6    4    5 1   
     7    4    8 1   
     8    5   30 1   
     9    6   31 1   
    10    8    9 1   
    11    9   10 1   
    12    9   32 1   
    13    9   33 1   
    14   10   11 1   
    15   10   12 1   
    16   12   13 1   
    17   12   34 1   
    18   13   14 1   
    19   13   25 1   
    20   13   35 1   
    21   14   15 1   
    22   14   36 1   
    23   14   37 1   
    24   15   16 1   
    25   15   20 1   
    26   16   17 1   
    27   16   38 1   
    28   17   39 1   
    29   18   19 1   
    30   18   21 1   
    31   19   40 1   
    32   20   41 1   
    33   21   22 1   
    34   21   42 1   
    35   22   23 1   
    36   22   24 1   
    37   24   44 1   
    38   24   45 1   
    39   25   26 1   
    40   25   27 1   
    41   27   46 1   
    42   27   47 1   
@<TRIPOS>SUBSTRUCTURE
     1 4CP         1 TEMP              0 ****  ****    0 ROOT
