@<TRIPOS>MOLECULE
4CP
   50    51     1     0     0
SMALL
bcc


@<TRIPOS>ATOM
      1 C1          1.5660    0.4170    0.5680 ca        1 4CP      0.094400
      2 C2          2.3480    0.6270    1.7180 ca        1 4CP     -0.137500
      3 C3          1.7480    0.6380    2.9690 ca        1 4CP     -0.042000
      4 C4          0.3620    0.4500    3.0980 ca        1 4CP     -0.124100
      5 C5         -0.4120    0.2380    1.9460 ca        1 4CP     -0.042000
      6 C6          0.1810    0.2230    0.6890 ca        1 4CP     -0.137500
      7 Cl7         2.2920    0.3990   -0.9470 cl        1 4CP      0.016600
      8 S8         -0.3990    0.6270    4.5880 ss        1 4CP     -0.166000
      9 C9         -0.6000   -1.0050    5.2460 c3        1 4CP     -0.159300
     10 C10         0.3030   -1.1230    6.4140 c         1 4CP      0.612100
     11 O11         1.3360   -1.7530    6.5890 o         1 4CP     -0.497100
     12 N12        -0.0860   -0.2360    7.6190 ny        1 4CP     -0.704800
     13 C13         0.9830   -0.1300    8.6610 c3        1 4CP      0.073500
     14 C14         0.5730    0.8030    9.8240 c3        1 4CP     -0.049100
     15 C15         0.1490    2.1580    9.3850 ca        1 4CP     -0.182300
     16 C16        -1.2090    2.4400    9.1800 ca        1 4CP     -0.082000
     17 C17        -1.6430    3.7390    8.9460 ca        1 4CP     -0.141000
     18 C18        -0.7140    4.8080    8.9120 ca        1 4CP      0.148600
     19 C19         0.6560    4.5170    9.0870 ca        1 4CP     -0.141000
     20 C20         1.0720    3.2090    9.3230 ca        1 4CP     -0.082000
     21 N21        -1.1690    6.1180    8.6350 nu        1 4CP     -0.734600
     22 C22        -0.6130    7.2120    9.3670 c2        1 4CP      0.691100
     23 N23        -0.0060    7.2930   10.4970 n2        1 4CP     -0.709100
     24 N24        -0.7270    8.5270    8.6140 nz        1 4CP     -0.814600
     25 C25         1.2540   -1.5180    9.2670 c         1 4CP      0.510100
     26 O26         0.4090   -2.2050    9.8160 o         1 4CP     -0.340100
     27 N27         2.6390   -2.0680    9.1800 nz        1 4CP     -0.740400
     28 H2          3.4360    0.7850    1.6220 ha        1 4CP      0.182500
     29 H3          2.3670    0.8090    3.8630 ha        1 4CP      0.145000
     30 H5         -1.5030    0.0930    2.0330 ha        1 4CP      0.145000
     31 H6         -0.4370    0.0620   -0.2120 ha        1 4CP      0.182500
     32 H9C1       -1.6750   -1.1490    5.5330 h1        1 4CP      0.161200
     33 H9C2       -0.3390   -1.8120    4.5040 h1        1 4CP      0.161200
     34 H12        -0.9470   -0.6130    8.0390 hn        1 4CP      0.488800
     35 H13         1.9030    0.2840    8.1470 hx        1 4CP      0.139700
     36 H141       -0.2540    0.3170   10.4170 hc        1 4CP      0.109700
     37 H142        1.4660    0.8890   10.5050 hc        1 4CP      0.109700
     38 H16        -1.9640    1.6390    9.2580 ha        1 4CP      0.152500
     39 H17        -2.7230    3.9240    8.8040 ha        1 4CP      0.172000
     40 H19         1.4170    5.3140    9.0380 ha        1 4CP      0.172000
     41 H20         2.1460    3.0170    9.4860 ha        1 4CP      0.152500
     42 H21        -2.1530    6.1870    8.4500 hn        1 4CP      0.456800
     43 H23         0.0880    6.4800   11.0710 hn        1 4CP      0.488400
     44 H241       -1.7140    8.8020    8.5450 hn        1 4CP      0.489467
     45 H242       -0.2100    9.2670    9.1200 hn        1 4CP      0.489467
     46 H271        3.3240   -1.4200    9.5870 hn        1 4CP      0.500133
     47 H272        2.6910   -2.9690    9.6910 hn        1 4CP      0.500133
     48 H122       -0.2910    0.7210    7.2750 hn        1 4CP      0.488800
     49 H243       -0.3310    8.4230    7.6710 hn        1 4CP      0.489467
     50 H273        2.8820   -2.2420    8.1890 hn        1 4CP      0.500133
@<TRIPOS>BOND
     1    1    2 ar  
     2    1    6 ar  
     3    1    7 1   
     4    2    3 ar  
     5    2   28 1   
     6    3    4 ar  
     7    3   29 1   
     8    4    5 ar  
     9    4    8 1   
    10    5    6 ar  
    11    5   30 1   
    12    6   31 1   
    13    8    9 1   
    14    9   10 1   
    15    9   32 1   
    16    9   33 1   
    17   10   11 2   
    18   10   12 1   
    19   12   13 1   
    20   12   34 1   
    21   12   48 1   
    22   13   14 1   
    23   13   25 1   
    24   13   35 1   
    25   14   15 1   
    26   14   36 1   
    27   14   37 1   
    28   15   16 ar  
    29   15   20 ar  
    30   16   17 ar  
    31   16   38 1   
    32   17   18 ar  
    33   17   39 1   
    34   18   19 ar  
    35   18   21 1   
    36   19   20 ar  
    37   19   40 1   
    38   20   41 1   
    39   21   22 1   
    40   21   42 1   
    41   22   23 2   
    42   22   24 1   
    43   23   43 1   
    44   24   44 1   
    45   24   45 1   
    46   24   49 1   
    47   25   26 2   
    48   25   27 1   
    49   27   46 1   
    50   27   47 1   
    51   27   50 1   
@<TRIPOS>SUBSTRUCTURE
     1 4CP         1 TEMP              0 ****  ****    0 ROOT
