@<TRIPOS>MOLECULE
4CP
   47    48     1     0     0
SMALL
bcc


@<TRIPOS>ATOM
      1 C1         -5.3380   -1.7780   -0.2540 ca        1 4CP      0.011400
      2 C2         -5.2080   -0.7120   -1.1520 ca        1 4CP     -0.106500
      3 C3         -4.1910    0.2180   -0.9720 ca        1 4CP     -0.121500
      4 C4         -3.2960    0.0990    0.1040 ca        1 4CP     -0.010100
      5 C5         -3.4390   -0.9670    0.9960 ca        1 4CP     -0.121500
      6 C6         -4.4540   -1.9070    0.8200 ca        1 4CP     -0.106500
      7 CL7        -6.5760   -2.9200   -0.4730 cl        1 4CP     -0.086400
      8 S8         -2.1270    1.3230    0.1990 ss        1 4CP     -0.155000
      9 C9         -1.0380    0.8180    1.4930 c3        1 4CP     -0.129300
     10 C10         0.1890    1.7030    1.5170 c         1 4CP      0.682100
     11 O11         0.6360    2.1350    2.6010 o         1 4CP     -0.618100
     12 N12         0.7980    1.9910    0.3180 n         1 4CP     -0.554900
     13 C13         2.0510    2.6990    0.2390 c3        1 4CP      0.042700
     14 C14         2.8560    2.3400   -1.0230 c3        1 4CP     -0.038100
     15 C15         3.1570    0.8880   -1.0970 ca        1 4CP     -0.119300
     16 C16         2.4050    0.0450   -1.9230 ca        1 4CP     -0.094000
     17 C17         2.6790   -1.3130   -2.0000 ca        1 4CP     -0.175000
     18 C18         3.7290   -1.8780   -1.2340 ca        1 4CP      0.139600
     19 C19         4.5020   -1.0180   -0.4250 ca        1 4CP     -0.175000
     20 C20         4.2090    0.3400   -0.3570 ca        1 4CP     -0.094000
     21 N21         3.9090   -3.2750   -1.2730 nh        1 4CP     -0.691600
     22 C22         5.0060   -3.8500   -0.5210 c2        1 4CP      0.759100
     23 N23         6.0150   -4.3680   -1.1710 n2        1 4CP     -0.855100
     24 N24         4.7960   -3.9210    0.8880 nh        1 4CP     -0.929800
     25 C25         1.8490    4.2370    0.2550 c         1 4CP      0.638100
     26 O26         2.1570    4.9420   -0.7270 o         1 4CP     -0.620100
     27 N27         1.3410    4.7890    1.3960 n         1 4CP     -0.664000
     28 H2         -5.9050   -0.6080   -1.9970 ha        1 4CP      0.151500
     29 H3         -4.0850    1.0570   -1.6780 ha        1 4CP      0.142500
     30 H5         -2.7570   -1.0760    1.8520 ha        1 4CP      0.142500
     31 H6         -4.5550   -2.7430    1.5290 ha        1 4CP      0.151500
     32 H9C1       -0.7070   -0.2430    1.3570 h1        1 4CP      0.102700
     33 H9C2       -1.5380    0.8950    2.4920 h1        1 4CP      0.102700
     34 H12         0.4120    1.6420   -0.5290 hn        1 4CP      0.333500
     35 H13         2.6700    2.4280    1.1500 h1        1 4CP      0.085700
     36 H141        3.8080    2.9360   -0.9880 hc        1 4CP      0.078700
     37 H142        2.2950    2.6790   -1.9350 hc        1 4CP      0.078700
     38 H16         1.5860    0.4650   -2.5300 ha        1 4CP      0.134500
     39 H17         2.0720   -1.9510   -2.6600 ha        1 4CP      0.136000
     40 H19         5.3600   -1.4010    0.1460 ha        1 4CP      0.136000
     41 H20         4.8230    0.9940    0.2820 ha        1 4CP      0.134500
     42 H21         3.8230   -3.6590   -2.1960 hn        1 4CP      0.431800
     43 H23         6.6970   -4.8400   -0.6200 hn        1 4CP      0.401400
     44 H241        4.0190   -3.4060    1.2370 hn        1 4CP      0.399800
     45 H242        5.6230   -3.7990    1.4290 hn        1 4CP      0.399800
     46 H271        1.1020    4.2260    2.1760 hn        1 4CP      0.324000
     47 H272        1.2000    5.7670    1.4460 hn        1 4CP      0.324000
@<TRIPOS>BOND
     1    1    2 ar  
     2    1    6 ar  
     3    1    7 1   
     4    2    3 ar  
     5    2   28 1   
     6    3    4 ar  
     7    3   29 1   
     8    4    5 ar  
     9    4    8 1   
    10    5    6 ar  
    11    5   30 1   
    12    6   31 1   
    13    8    9 1   
    14    9   10 1   
    15    9   32 1   
    16    9   33 1   
    17   10   11 2   
    18   10   12 1   
    19   12   13 1   
    20   12   34 1   
    21   13   14 1   
    22   13   25 1   
    23   13   35 1   
    24   14   15 1   
    25   14   36 1   
    26   14   37 1   
    27   15   16 ar  
    28   15   20 ar  
    29   16   17 ar  
    30   16   38 1   
    31   17   18 ar  
    32   17   39 1   
    33   18   19 ar  
    34   18   21 1   
    35   19   20 ar  
    36   19   40 1   
    37   20   41 1   
    38   21   22 1   
    39   21   42 1   
    40   22   23 2   
    41   22   24 1   
    42   23   43 1   
    43   24   44 1   
    44   24   45 1   
    45   25   26 2   
    46   25   27 1   
    47   27   46 1   
    48   27   47 1   
@<TRIPOS>SUBSTRUCTURE
     1 4CP         1 TEMP              0 ****  ****    0 ROOT
