@<TRIPOS>MOLECULE
4CP
   51    52     1     0     0
SMALL
bcc


@<TRIPOS>ATOM
      1 C1          1.6070   -0.6230    0.1140 ca        1 4CP      0.108400
      2 C2          2.4610   -0.3470    1.1990 ca        1 4CP     -0.140000
      3 C3          1.9280   -0.0960    2.4530 ca        1 4CP     -0.035500
      4 C4          0.5350   -0.0960    2.6540 ca        1 4CP     -0.136100
      5 C5         -0.3120   -0.3820    1.5670 ca        1 4CP     -0.035500
      6 C6          0.2140   -0.6370    0.3080 ca        1 4CP     -0.140000
      7 CL7         2.2500   -0.9350   -1.4010 cl        1 4CP      0.041600
      8 S8         -0.1240    0.3820    4.1140 ss        1 4CP     -0.158000
      9 C9         -0.5170   -1.0970    5.0220 c3        1 4CP     -0.163300
     10 C10         0.3560   -1.0750    6.2100 c         1 4CP      0.623100
     11 O11         1.4360   -1.5770    6.4730 o         1 4CP     -0.499100
     12 N12        -0.1630   -0.1360    7.3620 n4        1 4CP     -0.720800
     13 C13         0.8220    0.0960    8.4640 c3        1 4CP      0.084500
     14 C14         0.2880    1.0160    9.5840 c3        1 4CP     -0.085100
     15 C15         0.0190    2.4480    9.2600 ca        1 4CP     -0.060300
     16 C16        -1.2600    2.9720    9.5110 ca        1 4CP     -0.090500
     17 C17        -1.5150    4.3410    9.4150 ca        1 4CP     -0.072500
     18 C18        -0.4690    5.2160    9.0610 ca        1 4CP     -0.079400
     19 C19         0.8140    4.7040    8.7810 ca        1 4CP     -0.072500
     20 C20         1.0420    3.3300    8.8830 ca        1 4CP     -0.090500
     21 N21        -0.7410    6.6560    8.8950 n4        1 4CP     -0.646400
     22 C22        -0.6320    7.4340   10.2010 c2        1 4CP      0.601100
     23 N23        -0.3100    6.9950   11.3490 n2        1 4CP     -0.566100
     24 N24        -0.9520    8.8990   10.0790 n4        1 4CP     -0.817600
     25 C25         1.1350   -1.2570    9.1480 c         1 4CP      0.503100
     26 O26         0.2840   -1.9210    9.7180 o         1 4CP     -0.327100
     27 N27         2.5240   -1.7920    9.1140 n4        1 4CP     -0.736400
     28 H2          3.5550   -0.3340    1.0460 ha        1 4CP      0.188500
     29 H3          2.6050    0.1190    3.2950 ha        1 4CP      0.146000
     30 H5         -1.4070   -0.3910    1.7080 ha        1 4CP      0.146000
     31 H6         -0.4600   -0.8510   -0.5410 ha        1 4CP      0.188500
     32 H9C1       -1.6080   -1.1020    5.2730 h1        1 4CP      0.164200
     33 H9C2       -0.3020   -2.0340    4.4300 h1        1 4CP      0.164200
     34 H12        -1.0200   -0.5610    7.7420 hn        1 4CP      0.477800
     35 H13         1.7500    0.5430    7.9940 hx        1 4CP      0.138700
     36 H141        1.0640    1.0060   10.4070 hc        1 4CP      0.123200
     37 H142       -0.6420    0.5460   10.0220 hc        1 4CP      0.123200
     38 H16        -2.0910    2.3080    9.8180 ha        1 4CP      0.190000
     39 H17        -2.5410    4.7020    9.6200 ha        1 4CP      0.193000
     40 H19         1.6540    5.3590    8.4810 ha        1 4CP      0.193000
     41 H20         2.0630    2.9560    8.6820 ha        1 4CP      0.190000
     42 H21        -1.6980    6.7550    8.5110 hn        1 4CP      0.493300
     43 H23        -0.0770    6.0410   11.5580 hn        1 4CP      0.537400
     44 H241       -1.9270    9.0410    9.7700 hn        1 4CP      0.521133
     45 H242       -0.2990    9.3680    9.4290 hn        1 4CP      0.521133
     46 H271        2.5660   -2.6840    9.6490 hn        1 4CP      0.507133
     47 H272        2.8070   -1.9910    8.1360 hn        1 4CP      0.507133
     48 H122       -0.4120    0.7680    6.9420 hn        1 4CP      0.477800
     49 H212       -0.0640    7.0350    8.2110 hn        1 4CP      0.493300
     50 H243       -0.8470    9.3540   11.0180 hn        1 4CP      0.521133
     51 H273        3.1940   -1.1330    9.5300 hn        1 4CP      0.507133
@<TRIPOS>BOND
     1    1    2 ar  
     2    1    6 ar  
     3    1    7 1   
     4    2    3 ar  
     5    2   28 1   
     6    3    4 ar  
     7    3   29 1   
     8    4    5 ar  
     9    4    8 1   
    10    5    6 ar  
    11    5   30 1   
    12    6   31 1   
    13    8    9 1   
    14    9   10 1   
    15    9   32 1   
    16    9   33 1   
    17   10   11 2   
    18   10   12 1   
    19   12   13 1   
    20   12   34 1   
    21   12   48 1   
    22   13   14 1   
    23   13   25 1   
    24   13   35 1   
    25   14   15 1   
    26   14   36 1   
    27   14   37 1   
    28   15   16 ar  
    29   15   20 ar  
    30   16   17 ar  
    31   16   38 1   
    32   17   18 ar  
    33   17   39 1   
    34   18   19 ar  
    35   18   21 1   
    36   19   20 ar  
    37   19   40 1   
    38   20   41 1   
    39   21   22 1   
    40   21   42 1   
    41   21   49 1   
    42   22   23 2   
    43   22   24 1   
    44   23   43 1   
    45   24   44 1   
    46   24   45 1   
    47   24   50 1   
    48   25   26 2   
    49   25   27 1   
    50   27   46 1   
    51   27   47 1   
    52   27   51 1   
@<TRIPOS>SUBSTRUCTURE
     1 4CP         1 TEMP              0 ****  ****    0 ROOT
