@<TRIPOS>MOLECULE
4CP
   50    51     1     0     0
SMALL
bcc


@<TRIPOS>ATOM
      1 C1          1.5400    0.4600    0.5490 ca        1 4CP      0.094400
      2 C2          2.3290    0.6470    1.6990 ca        1 4CP     -0.137500
      3 C3          1.7320    0.6550    2.9520 ca        1 4CP     -0.042500
      4 C4          0.3440    0.4880    3.0830 ca        1 4CP     -0.124100
      5 C5         -0.4370    0.2980    1.9310 ca        1 4CP     -0.042500
      6 C6          0.1530    0.2860    0.6720 ca        1 4CP     -0.137500
      7 CL7         2.2620    0.4430   -0.9670 cl        1 4CP      0.016600
      8 S8         -0.4100    0.6630    4.5770 ss        1 4CP     -0.165000
      9 C9         -0.6350   -0.9710    5.2210 c3        1 4CP     -0.159300
     10 C10         0.2690   -1.1120    6.3860 c         1 4CP      0.612100
     11 O11         1.2940   -1.7560    6.5530 o         1 4CP     -0.497100
     12 N12        -0.1090   -0.2340    7.6010 n4        1 4CP     -0.704800
     13 C13         0.9630   -0.1500    8.6420 c3        1 4CP      0.073500
     14 C14         0.5660    0.7760    9.8150 c3        1 4CP     -0.049100
     15 C15         0.1560    2.1390    9.3890 ca        1 4CP     -0.182300
     16 C16        -1.2000    2.4390    9.1920 ca        1 4CP     -0.082000
     17 C17        -1.6200    3.7450    8.9710 ca        1 4CP     -0.141000
     18 C18        -0.6790    4.8030    8.9450 ca        1 4CP      0.148600
     19 C19         0.6880    4.4950    9.1130 ca        1 4CP     -0.141000
     20 C20         1.0900    3.1810    9.3350 ca        1 4CP     -0.082000
     21 N21        -1.1190    6.1210    8.6810 nh        1 4CP     -0.734600
     22 C22        -0.5490    7.2020    9.4210 c2        1 4CP      0.691100
     23 N23         0.0620    7.2650   10.5500 n2        1 4CP     -0.709100
     24 N24        -0.6500    8.5260    8.6810 n4        1 4CP     -0.814600
     25 C25         1.2200   -1.5470    9.2330 c         1 4CP      0.510100
     26 O26         0.3680   -2.2290    9.7770 o         1 4CP     -0.340100
     27 N27         2.5980   -2.1120    9.1370 n4        1 4CP     -0.740400
     28 H2          3.4190    0.7880    1.6020 ha        1 4CP      0.182500
     29 H3          2.3560    0.8080    3.8460 ha        1 4CP      0.145000
     30 H5         -1.5290    0.1700    2.0190 ha        1 4CP      0.145000
     31 H6         -0.4700    0.1430   -0.2290 ha        1 4CP      0.182500
     32 H9C1       -0.3870   -1.7750    4.4710 h1        1 4CP      0.161200
     33 H9C2       -1.7120   -1.1020    5.5080 h1        1 4CP      0.161200
     34 H12        -0.3040    0.7290    7.2680 hn        1 4CP      0.488800
     35 H13         1.8870    0.2590    8.1300 hx        1 4CP      0.139700
     36 H141        1.4620    0.8460   10.4940 hc        1 4CP      0.109700
     37 H142       -0.2640    0.2930   10.4050 hc        1 4CP      0.109700
     38 H16        -1.9620    1.6460    9.2650 ha        1 4CP      0.152500
     39 H17        -2.6980    3.9440    8.8350 ha        1 4CP      0.172000
     40 H19         1.4580    5.2840    9.0690 ha        1 4CP      0.172000
     41 H20         2.1630    2.9760    9.4930 ha        1 4CP      0.152500
     42 H21        -2.1030    6.2030    8.5000 hn        1 4CP      0.456800
     43 H23         0.1490    6.4460   11.1160 hn        1 4CP      0.488400
     44 H241       -1.6340    8.8120    8.6180 hn        1 4CP      0.489467
     45 H242       -0.1240    9.2540    9.1920 hn        1 4CP      0.489467
     46 H271        3.2920   -1.4760    9.5500 hn        1 4CP      0.500133
     47 H272        2.8370   -2.2780    8.1440 hn        1 4CP      0.500133
     48 H122       -0.9730   -0.6060    8.0180 hn        1 4CP      0.488800
     49 H243       -0.2590    8.4260    7.7360 hn        1 4CP      0.489467
     50 H273        2.6400   -3.0190    9.6400 hn        1 4CP      0.500133
@<TRIPOS>BOND
     1    1    2 ar  
     2    1    6 ar  
     3    1    7 1   
     4    2    3 ar  
     5    2   28 1   
     6    3    4 ar  
     7    3   29 1   
     8    4    5 ar  
     9    4    8 1   
    10    5    6 ar  
    11    5   30 1   
    12    6   31 1   
    13    8    9 1   
    14    9   10 1   
    15    9   32 1   
    16    9   33 1   
    17   10   11 2   
    18   10   12 1   
    19   12   13 1   
    20   12   34 1   
    21   12   48 1   
    22   13   14 1   
    23   13   25 1   
    24   13   35 1   
    25   14   15 1   
    26   14   36 1   
    27   14   37 1   
    28   15   16 ar  
    29   15   20 ar  
    30   16   17 ar  
    31   16   38 1   
    32   17   18 ar  
    33   17   39 1   
    34   18   19 ar  
    35   18   21 1   
    36   19   20 ar  
    37   19   40 1   
    38   20   41 1   
    39   21   22 1   
    40   21   42 1   
    41   22   23 2   
    42   22   24 1   
    43   23   43 1   
    44   24   44 1   
    45   24   45 1   
    46   24   49 1   
    47   25   26 2   
    48   25   27 1   
    49   27   46 1   
    50   27   47 1   
    51   27   50 1   
@<TRIPOS>SUBSTRUCTURE
     1 4CP         1 TEMP              0 ****  ****    0 ROOT
