@<TRIPOS>MOLECULE
4CR
   44    40     1     0     0
SMALL
bcc


@<TRIPOS>ATOM
      1 O4A        -0.5900    0.0710    3.4480 o         1 4CR     -0.368000
      2 C4A        -0.7810   -1.0170    2.8780 c1        1 4CR      0.388000
      3 N4         -0.9380   -2.2700    3.6900 n2        1 4CR     -0.271000
      4 C4B        -0.5030   -2.2990    5.0570 c3        1 4CR     -0.039000
      5 C4C        -1.6500   -2.7710    5.9410 c3        1 4CR     -0.246000
      6 CN4        -1.4110   -3.4770    3.0610 c3        1 4CR     -0.086000
      7 O4         -1.0170   -1.0490    1.4790 os        1 4CR     -0.239000
      8 C4         -0.7320    0.1760    0.8250 c2        1 4CR      0.105000
      9 C3          0.0100    0.1790   -0.3580 c2        1 4CR     -0.065000
     10 C2          0.8270   -0.9110   -0.9900 c3        1 4CR     -0.120000
     11 C1          1.3590   -0.4010   -2.2730 c3        1 4CR     -0.168000
     12 C5         -1.0990    1.3910    1.4250 c1        1 4CR     -0.092000
     13 C6         -0.7200    2.6110    0.8340 c1        1 4CR     -0.128750
     14 C7          0.0260    2.6140   -0.3580 c1        1 4CR     -0.128750
     15 C8          0.3910    1.4090   -0.9530 c1        1 4CR     -0.147000
     16 C9          1.0810    1.0910   -2.3330 c3        1 4CR      0.020000
     17 N10         0.3020    1.4830   -3.4780 n3        1 4CR     -0.071000
     18 C10        -1.0850    1.0920   -3.5770 c3        1 4CR     -0.142000
     19 C11         0.8620    2.2040   -4.4460 c1        1 4CR      0.130000
     20 C12         2.3320    2.6150   -4.3380 c1        1 4CR     -0.128750
     21 C13         3.1570    2.4820   -5.4080 c1        1 4CR     -0.128750
     22 H4B1        0.2720   -2.9330    5.1480 h1        1 4CR      0.115000
     23 H4B2       -0.2280   -1.4140    5.3280 h1        1 4CR      0.115000
     24 H4C1       -2.4840   -2.3510    5.6460 hc        1 4CR      0.089667
     25 H4C2       -1.7310   -3.7110    5.8740 hc        1 4CR      0.089667
     26 H4C3       -1.4710   -2.5260    6.8700 hc        1 4CR      0.089667
     27 HN41       -0.8290   -4.2640    3.3550 h1        1 4CR      0.091667
     28 HN42       -2.3750   -3.6490    3.3370 h1        1 4CR      0.091667
     29 HN43       -1.3600   -3.3750    2.0530 h1        1 4CR      0.091667
     30 H2C1        1.5940   -1.1620   -0.3810 hc        1 4CR      0.122500
     31 H2C2        0.2290   -1.7460   -1.1610 hc        1 4CR      0.122500
     32 H1C1        2.3510   -0.5540   -2.3010 hc        1 4CR      0.109500
     33 H1C2        0.8930   -0.8480   -3.0160 hc        1 4CR      0.109500
     34 H5         -1.6150    1.3900    2.2460 ha        1 4CR      0.179000
     35 H6         -0.9740    3.4580    1.2530 ha        1 4CR      0.158250
     36 H7          0.3070    3.5170   -0.7970 ha        1 4CR      0.158250
     37 H9          1.9020    1.6120   -2.4630 h1        1 4CR      0.138000
     38 H101       -1.6320    1.7250   -3.1010 h1        1 4CR      0.138000
     39 H102       -1.2030    0.1980   -3.1860 h1        1 4CR      0.138000
     40 H103       -1.3590    1.0750   -4.5430 h1        1 4CR      0.138000
     41 H11         0.3120    2.4820   -5.2590 ha        1 4CR      0.183000
     42 H12         2.6910    2.9870   -3.4660 ha        1 4CR      0.158250
     43 H131        2.8220    2.1350   -6.2250 DU        1 4CR      0.142000
     44 H132        4.0660    2.7340   -5.3390 ha        1 4CR      0.158250
@<TRIPOS>BOND
     1    1    2 1   
     2    2    7 1   
     3    3    4 1   
     4    3    6 1   
     5    4    5 1   
     6    4   22 1   
     7    4   23 1   
     8    5   24 1   
     9    5   25 1   
    10    5   26 1   
    11    6   27 1   
    12    6   28 1   
    13    6   29 1   
    14    7    8 1   
    15    8    9 1   
    16    8   12 1   
    17    9   10 1   
    18    9   15 1   
    19   10   11 1   
    20   10   30 1   
    21   10   31 1   
    22   11   16 1   
    23   11   32 1   
    24   11   33 1   
    25   12   34 1   
    26   13   14 1   
    27   13   35 1   
    28   14   36 1   
    29   15   16 1   
    30   16   17 1   
    31   16   37 1   
    32   17   18 1   
    33   17   19 1   
    34   18   38 1   
    35   18   39 1   
    36   18   40 1   
    37   19   41 1   
    38   20   21 1   
    39   20   42 1   
    40   21   44 1   
@<TRIPOS>SUBSTRUCTURE
     1 4CR         1 TEMP              0 ****  ****    0 ROOT
