@<TRIPOS>MOLECULE
4CR
   44    45     1     0     0
SMALL
bcc


@<TRIPOS>ATOM
      1 O4A         3.2870    1.4410   -0.6910 o         1 4CR     -0.554000
      2 C4A         3.3230    0.4660    0.0710 c         1 4CR      0.733100
      3 N4          4.4200   -0.1430    0.6530 n         1 4CR     -0.411800
      4 C4B         5.7180    0.1050    0.0450 c3        1 4CR      0.077000
      5 C4C         6.1260   -0.8580   -1.0560 c3        1 4CR     -0.128100
      6 CN4         4.2540   -1.3750    1.3800 c3        1 4CR      0.068300
      7 O4          2.0920   -0.0820    0.4770 os        1 4CR     -0.374200
      8 C4          0.9430    0.6470    0.2180 ca        1 4CR      0.157100
      9 C3         -0.1780   -0.0690   -0.2030 ca        1 4CR     -0.080300
     10 C2         -0.2940   -1.5130   -0.5420 c3        1 4CR     -0.034100
     11 C1         -1.7270   -1.7000   -1.0540 c3        1 4CR     -0.091400
     12 C5          0.8410    2.0310    0.4520 ca        1 4CR     -0.099000
     13 C6         -0.3760    2.6790    0.2650 ca        1 4CR     -0.107000
     14 C7         -1.5140    1.9740   -0.1500 ca        1 4CR     -0.110000
     15 C8         -1.4030    0.6100   -0.3730 ca        1 4CR     -0.152300
     16 C9         -2.4610   -0.3380   -0.8740 c3        1 4CR      0.055300
     17 N10        -3.6190   -0.4260    0.0500 nh        1 4CR     -0.088100
     18 C10        -3.3460   -0.8850    1.4010 c3        1 4CR     -0.048400
     19 C11        -4.8260   -0.0920   -0.3500 ce        1 4CR      0.399500
     20 C12        -6.0250   -0.1370    0.4640 ce        1 4CR     -0.347600
     21 C13        -7.2170    0.2260   -0.0360 c2        1 4CR     -0.031000
     22 H4B1        6.4720    0.0540    0.8830 h1        1 4CR      0.076200
     23 H4B2        5.7150    1.1570   -0.3640 h1        1 4CR      0.076200
     24 H4C1        7.1500   -0.5840   -1.4080 hc        1 4CR      0.050367
     25 H4C2        6.1480   -1.9110   -0.6870 hc        1 4CR      0.050367
     26 H4C3        5.4260   -0.7970   -1.9240 hc        1 4CR      0.050367
     27 HN41        3.3540   -1.3010    2.0460 h1        1 4CR      0.052700
     28 HN42        4.1250   -2.2520    0.6900 h1        1 4CR      0.052700
     29 HN43        5.1670   -1.5410    2.0110 h1        1 4CR      0.052700
     30 H2C1       -0.0960   -2.1500    0.3580 hc        1 4CR      0.082200
     31 H2C2        0.4530   -1.7990   -1.3280 hc        1 4CR      0.082200
     32 H1C1       -2.2340   -2.5350   -0.5130 hc        1 4CR      0.073700
     33 H1C2       -1.7220   -1.9520   -2.1450 hc        1 4CR      0.073700
     34 H5          1.7390    2.5970    0.7520 ha        1 4CR      0.178000
     35 H6         -0.4440    3.7650    0.4380 ha        1 4CR      0.157000
     36 H7         -2.4630    2.5050   -0.3030 ha        1 4CR      0.134000
     37 H9         -2.8520    0.0160   -1.8740 h1        1 4CR      0.094700
     38 H101       -2.2400   -1.0490    1.5210 h1        1 4CR      0.098033
     39 H102       -3.6850   -0.1130    2.1440 h1        1 4CR      0.098033
     40 H103       -3.8890   -1.8510    1.5900 h1        1 4CR      0.098033
     41 H11        -4.9450    0.2550   -1.4060 h4        1 4CR      0.057800
     42 H12        -5.9320   -0.4790    1.5110 ha        1 4CR      0.170000
     43 H131       -8.1300    0.1930    0.5810 ha        1 4CR      0.153500
     44 H132       -7.3620    0.5720   -1.0720 ha        1 4CR      0.153500
@<TRIPOS>BOND
     1    1    2 2   
     2    2    3 1   
     3    2    7 1   
     4    3    4 1   
     5    3    6 1   
     6    4    5 1   
     7    4   22 1   
     8    4   23 1   
     9    5   24 1   
    10    5   25 1   
    11    5   26 1   
    12    6   27 1   
    13    6   28 1   
    14    6   29 1   
    15    7    8 1   
    16    8    9 ar  
    17    8   12 ar  
    18    9   10 1   
    19    9   15 ar  
    20   10   11 1   
    21   10   30 1   
    22   10   31 1   
    23   11   16 1   
    24   11   32 1   
    25   11   33 1   
    26   12   13 ar  
    27   12   34 1   
    28   13   14 ar  
    29   13   35 1   
    30   14   15 ar  
    31   14   36 1   
    32   15   16 1   
    33   16   17 1   
    34   16   37 1   
    35   17   18 1   
    36   17   19 2   
    37   18   38 1   
    38   18   39 1   
    39   18   40 1   
    40   19   20 1   
    41   19   41 1   
    42   20   21 2   
    43   20   42 1   
    44   21   43 1   
    45   21   44 1   
@<TRIPOS>SUBSTRUCTURE
     1 4CR         1 TEMP              0 ****  ****    0 ROOT
