@<TRIPOS>MOLECULE
4CR
   44    45     1     0     0
SMALL
bcc


@<TRIPOS>ATOM
      1 O4A        -0.0810    0.7380   -0.1890 o         1 4CR     -0.554000
      2 C4A         0.9540    0.0830   -0.0130 c         1 4CR      0.733100
      3 N4          1.5830   -0.2490    1.1740 n         1 4CR     -0.411800
      4 C4B         1.2500    0.5450    2.3470 c3        1 4CR      0.077000
      5 C4C         2.1040    1.7810    2.5700 c3        1 4CR     -0.128100
      6 CN4         2.8760   -0.8810    1.1470 c3        1 4CR      0.068300
      7 O4          1.5660   -0.4760   -1.1500 os        1 4CR     -0.374200
      8 C4          0.8470   -0.4810   -2.3340 ca        1 4CR      0.157100
      9 C3          1.5520   -0.1930   -3.5040 ca        1 4CR     -0.080300
     10 C2          2.9640    0.2480   -3.6610 c3        1 4CR     -0.034100
     11 C1          3.1430    0.5250   -5.1580 c3        1 4CR     -0.091400
     12 C5         -0.5090   -0.8510   -2.4090 ca        1 4CR     -0.099000
     13 C6         -1.1400   -0.9310   -3.6470 ca        1 4CR     -0.107000
     14 C7         -0.4440   -0.6540   -4.8310 ca        1 4CR     -0.110000
     15 C8          0.8920   -0.2940   -4.7460 ca        1 4CR     -0.152300
     16 C9          1.8200    0.1030   -5.8650 c3        1 4CR      0.055300
     17 N10         2.0170   -0.9920   -6.8460 nh        1 4CR     -0.088100
     18 C10         2.5830   -2.2310   -6.3430 c3        1 4CR     -0.048400
     19 C11         1.6800   -0.8340   -8.1080 ce        1 4CR      0.399500
     20 C12         1.8250   -1.8310   -9.1490 ce        1 4CR     -0.347600
     21 C13         1.4520   -1.5750  -10.4130 c2        1 4CR     -0.031000
     22 H4B1        1.3530   -0.1450    3.2330 h1        1 4CR      0.076200
     23 H4B2        0.1670    0.8530    2.2620 h1        1 4CR      0.076200
     24 H4C1        3.1850    1.5160    2.6660 hc        1 4CR      0.050367
     25 H4C2        1.7750    2.2750    3.5170 hc        1 4CR      0.050367
     26 H4C3        1.9880    2.5090    1.7320 hc        1 4CR      0.050367
     27 HN41        3.0720   -1.3320    2.1570 h1        1 4CR      0.052700
     28 HN42        2.8820   -1.6930    0.3730 h1        1 4CR      0.052700
     29 HN43        3.6940   -0.1470    0.9120 h1        1 4CR      0.052700
     30 H2C1        3.6710   -0.5450   -3.3050 hc        1 4CR      0.082200
     31 H2C2        3.1630    1.1710   -3.0560 hc        1 4CR      0.082200
     32 H1C1        4.0340   -0.0180   -5.5560 hc        1 4CR      0.073700
     33 H1C2        3.3000    1.6190   -5.3370 hc        1 4CR      0.073700
     34 H5         -1.0700   -1.0440   -1.4790 ha        1 4CR      0.178000
     35 H6         -2.2040   -1.2100   -3.6960 ha        1 4CR      0.157000
     36 H7         -0.9620   -0.7110   -5.7990 ha        1 4CR      0.134000
     37 H9          1.3910    0.9860   -6.4240 h1        1 4CR      0.094700
     38 H101        3.5750   -2.4220   -6.8350 h1        1 4CR      0.098033
     39 H102        1.8870   -3.0870   -6.5570 h1        1 4CR      0.098033
     40 H103        2.7280   -2.1480   -5.2300 h1        1 4CR      0.098033
     41 H11         1.2470    0.1520   -8.4090 h4        1 4CR      0.057800
     42 H12         2.2530   -2.8130   -8.8750 ha        1 4CR      0.170000
     43 H131        1.0210   -0.6140  -10.7360 ha        1 4CR      0.153500
     44 H132        1.5610   -2.3320  -11.2070 ha        1 4CR      0.153500
@<TRIPOS>BOND
     1    1    2 2   
     2    2    3 1   
     3    2    7 1   
     4    3    4 1   
     5    3    6 1   
     6    4    5 1   
     7    4   22 1   
     8    4   23 1   
     9    5   24 1   
    10    5   25 1   
    11    5   26 1   
    12    6   27 1   
    13    6   28 1   
    14    6   29 1   
    15    7    8 1   
    16    8    9 ar  
    17    8   12 ar  
    18    9   10 1   
    19    9   15 ar  
    20   10   11 1   
    21   10   30 1   
    22   10   31 1   
    23   11   16 1   
    24   11   32 1   
    25   11   33 1   
    26   12   13 ar  
    27   12   34 1   
    28   13   14 ar  
    29   13   35 1   
    30   14   15 ar  
    31   14   36 1   
    32   15   16 1   
    33   16   17 1   
    34   16   37 1   
    35   17   18 1   
    36   17   19 2   
    37   18   38 1   
    38   18   39 1   
    39   18   40 1   
    40   19   20 1   
    41   19   41 1   
    42   20   21 2   
    43   20   42 1   
    44   21   43 1   
    45   21   44 1   
@<TRIPOS>SUBSTRUCTURE
     1 4CR         1 TEMP              0 ****  ****    0 ROOT
