@<TRIPOS>MOLECULE
4CS
   19    19     1     0     0
SMALL
bcc


@<TRIPOS>ATOM
      1 O           1.7310   -0.5170    1.5040 o         1 4CS     -0.824300
      2 C           1.8560   -0.2850    0.2740 c         1 4CS      0.942600
      3 OXT         2.9090   -0.4050   -0.4020 o         1 4CS     -0.824300
      4 CA          0.5900    0.2730   -0.5020 c3        1 4CS     -0.031500
      5 CB          0.1640    1.5670    0.2020 c3        1 4CS     -0.129400
      6 CAD        -1.3380    1.8110    0.0940 c3        1 4CS      0.152800
      7 NAG        -2.1670    0.6500    0.3660 nh        1 4CS     -0.799200
      8 CAI        -1.6240   -0.5630   -0.2140 c2        1 4CS      0.483200
      9 CAA        -2.6460   -1.6710   -0.3320 c3        1 4CS     -0.103400
     10 N          -0.4150   -0.7430   -0.6530 n2        1 4CS     -0.557900
     11 HA          0.9400    0.5130   -1.5480 h1        1 4CS      0.062700
     12 HB1         0.4540    1.4960    1.2850 hc        1 4CS      0.052700
     13 HB2         0.7140    2.4320   -0.2450 hc        1 4CS      0.052700
     14 HAD1       -1.6380    2.6390    0.7940 h1        1 4CS      0.028700
     15 HAD2       -1.5830    2.1450   -0.9540 h1        1 4CS      0.028700
     16 HNAG       -2.2740    0.5140    1.3560 hn        1 4CS      0.357800
     17 HAA1       -3.4930   -1.3370   -0.9780 hc        1 4CS      0.035700
     18 HAA2       -2.1930   -2.5900   -0.7770 hc        1 4CS      0.035700
     19 HAA3       -3.0420   -1.9260    0.6810 hc        1 4CS      0.035700
@<TRIPOS>BOND
     1    1    2 1   
     2    2    3 1   
     3    2    4 1   
     4    4    5 1   
     5    4   10 1   
     6    4   11 1   
     7    5    6 1   
     8    5   12 1   
     9    5   13 1   
    10    6    7 1   
    11    6   14 1   
    12    6   15 1   
    13    7    8 1   
    14    7   16 1   
    15    8    9 1   
    16    8   10 2   
    17    9   17 1   
    18    9   18 1   
    19    9   19 1   
@<TRIPOS>SUBSTRUCTURE
     1 4CS         1 TEMP              0 ****  ****    0 ROOT
