@<TRIPOS>MOLECULE
4CS
   19    18     1     0     0
SMALL
bcc


@<TRIPOS>ATOM
      1 O          -1.4090    1.0840   -2.1220 o         1 4CS     -0.572000
      2 C          -0.2390    1.4840   -1.8410 c1        1 4CS      0.349000
      3 OXT         0.4800    1.9820   -2.7290 os        1 4CS     -0.558000
      4 CA          0.2600    1.4290   -0.3980 c3        1 4CS     -0.140000
      5 CB          1.5680    0.4480   -0.2710 c3        1 4CS     -0.160000
      6 CAD         1.3220   -0.7160   -0.3520 c3        1 4CS     -0.080000
      7 NAG         0.3260   -1.2030    0.6440 n3        1 4CS     -0.293000
      8 CAI        -0.8530   -0.5110    0.7460 c2        1 4CS      0.005000
      9 CAA        -1.9850   -1.0570    1.5930 c3        1 4CS     -0.158000
     10 N          -0.7540    1.0520    0.4540 n2        1 4CS     -0.179000
     11 HA          0.5080    2.3560   -0.2520 h1        1 4CS      0.102000
     12 HB1         2.1280    0.6530   -1.0630 hc        1 4CS      0.071500
     13 HB2         1.8960    0.5770    0.6380 hc        1 4CS      0.071500
     14 HAD1        0.8920   -0.8280   -1.2220 h1        1 4CS      0.080000
     15 HAD2        2.1640   -1.1770   -0.1250 h1        1 4CS      0.080000
     16 HNAG        0.3900   -2.0600    0.9820 hn        1 4CS      0.156000
     17 HAA1       -2.6890   -0.3720    1.6810 hc        1 4CS      0.075000
     18 HAA2       -2.3560   -1.8530    1.1660 hc        1 4CS      0.075000
     19 HAA3       -1.6480   -1.2890    2.4710 hc        1 4CS      0.075000
@<TRIPOS>BOND
     1    1    2 1   
     2    2    4 1   
     3    4    5 1   
     4    4   10 1   
     5    4   11 1   
     6    5    6 1   
     7    5   12 1   
     8    5   13 1   
     9    6    7 1   
    10    6   14 1   
    11    6   15 1   
    12    7    8 1   
    13    7   16 1   
    14    8    9 1   
    15    8   10 1   
    16    9   17 1   
    17    9   18 1   
    18    9   19 1   
@<TRIPOS>SUBSTRUCTURE
     1 4CS         1 TEMP              0 ****  ****    0 ROOT
