@<TRIPOS>MOLECULE
4CS
   19    19     1     0     0
SMALL
bcc


@<TRIPOS>ATOM
      1 O           0.1360   -0.9990    0.0770 o         1 4CS     -0.824300
      2 C           1.0840   -0.1730    0.0210 c         1 4CS      0.942600
      3 OXT         1.4260    0.4980   -0.9850 o         1 4CS     -0.824300
      4 CA          1.9820    0.0040    1.3160 c3        1 4CS     -0.031500
      5 CB          2.5520   -1.3770    1.6620 c3        1 4CS     -0.129400
      6 CAD         2.7860   -1.5410    3.1610 c3        1 4CS      0.152800
      7 NAG         1.6940   -1.0860    4.0040 nh        1 4CS     -0.799200
      8 CAI         1.1120    0.1540    3.5300 c2        1 4CS      0.483200
      9 CAA         0.3010    0.8680    4.5880 c3        1 4CS     -0.103400
     10 N           1.2640    0.6870    2.3560 n2        1 4CS     -0.557900
     11 HA          2.8260    0.6950    1.0240 h1        1 4CS      0.062700
     12 HB1         1.8280   -2.1600    1.3090 hc        1 4CS      0.053200
     13 HB2         3.5150   -1.5290    1.1160 hc        1 4CS      0.053200
     14 HAD1        2.9950   -2.6210    3.3940 h1        1 4CS      0.028700
     15 HAD2        3.6950   -0.9450    3.4600 h1        1 4CS      0.028700
     16 HNAG        0.9710   -1.7830    4.0540 hn        1 4CS      0.357800
     17 HAA1        0.9510    1.1120    5.4630 hc        1 4CS      0.035700
     18 HAA2       -0.5330    0.2090    4.9300 hc        1 4CS      0.035700
     19 HAA3       -0.1360    1.8150    4.1880 hc        1 4CS      0.035700
@<TRIPOS>BOND
     1    1    2 1   
     2    2    3 1   
     3    2    4 1   
     4    4    5 1   
     5    4   10 1   
     6    4   11 1   
     7    5    6 1   
     8    5   12 1   
     9    5   13 1   
    10    6    7 1   
    11    6   14 1   
    12    6   15 1   
    13    7    8 1   
    14    7   16 1   
    15    8    9 1   
    16    8   10 2   
    17    9   17 1   
    18    9   18 1   
    19    9   19 1   
@<TRIPOS>SUBSTRUCTURE
     1 4CS         1 TEMP              0 ****  ****    0 ROOT
