@<TRIPOS>MOLECULE
4CS
   19    19     1     0     0
SMALL
bcc


@<TRIPOS>ATOM
      1 O           0.0910   -0.9130    0.0860 o         1 4CS     -0.824300
      2 C           1.0760   -0.1330    0.0260 c         1 4CS      0.942600
      3 OXT         1.4420    0.5270   -0.9790 o         1 4CS     -0.824300
      4 CA          1.9920   -0.0060    1.3160 c3        1 4CS     -0.031500
      5 CB          2.4990   -1.4150    1.6490 c3        1 4CS     -0.129400
      6 CAD         2.7370   -1.5990    3.1450 c3        1 4CS      0.152800
      7 NAG         1.6740   -1.0990    3.9990 nu        1 4CS     -0.799200
      8 CAI         1.1480    0.1710    3.5380 c2        1 4CS      0.483200
      9 CAA         0.3800    0.9160    4.6060 c3        1 4CS     -0.103400
     10 N           1.3150    0.7040    2.3650 n2        1 4CS     -0.557900
     11 HA          2.8660    0.6460    1.0200 h1        1 4CS      0.062700
     12 HB1         1.7370   -2.1610    1.2970 hc        1 4CS      0.052700
     13 HB2         3.4500   -1.6090    1.0950 hc        1 4CS      0.052700
     14 HAD1        3.6750   -1.0490    3.4400 h1        1 4CS      0.028700
     15 HAD2        2.8960   -2.6900    3.3700 h1        1 4CS      0.028700
     16 HNAG        0.9200   -1.7610    4.0510 hn        1 4CS      0.357800
     17 HAA1        1.0470    1.1230    5.4770 hc        1 4CS      0.035700
     18 HAA2       -0.0150    1.8850    4.2150 hc        1 4CS      0.035700
     19 HAA3       -0.4820    0.2940    4.9510 hc        1 4CS      0.035700
@<TRIPOS>BOND
     1    1    2 1   
     2    2    3 1   
     3    2    4 1   
     4    4    5 1   
     5    4   10 1   
     6    4   11 1   
     7    5    6 1   
     8    5   12 1   
     9    5   13 1   
    10    6    7 1   
    11    6   14 1   
    12    6   15 1   
    13    7    8 1   
    14    7   16 1   
    15    8    9 1   
    16    8   10 2   
    17    9   17 1   
    18    9   18 1   
    19    9   19 1   
@<TRIPOS>SUBSTRUCTURE
     1 4CS         1 TEMP              0 ****  ****    0 ROOT
