@<TRIPOS>MOLECULE
4CS
   19    19     1     0     0
SMALL
bcc


@<TRIPOS>ATOM
      1 O           0.1470   -0.9970    0.0600 o         1 4CS     -0.824300
      2 C           1.0730   -0.1460    0.0170 c         1 4CS      0.942600
      3 OXT         1.3970    0.5490   -0.9790 o         1 4CS     -0.824300
      4 CA          1.9670    0.0350    1.3140 c3        1 4CS     -0.031500
      5 CB          2.5740   -1.3360    1.6390 c3        1 4CS     -0.129400
      6 CAD         2.8120   -1.5170    3.1350 c3        1 4CS      0.152800
      7 NAG         1.7100   -1.1050    3.9850 nh        1 4CS     -0.799200
      8 CAI         1.0950    0.1280    3.5310 c2        1 4CS      0.483200
      9 CAA         0.2660    0.8030    4.5990 c3        1 4CS     -0.103400
     10 N           1.2320    0.6830    2.3650 n2        1 4CS     -0.557900
     11 HA          2.7920    0.7520    1.0320 h1        1 4CS      0.062700
     12 HB1         1.8710   -2.1320    1.2740 hc        1 4CS      0.052700
     13 HB2         3.5410   -1.4540    1.0910 hc        1 4CS      0.052700
     14 HAD1        3.7050   -0.9030    3.4430 h1        1 4CS      0.028700
     15 HAD2        3.0500   -2.5950    3.3520 h1        1 4CS      0.028700
     16 HNAG        1.0050   -1.8200    4.0240 hn        1 4CS      0.357800
     17 HAA1       -0.5510    0.1170    4.9310 hc        1 4CS      0.035700
     18 HAA2       -0.1950    1.7450    4.2150 hc        1 4CS      0.035700
     19 HAA3        0.9100    1.0500    5.4790 hc        1 4CS      0.035700
@<TRIPOS>BOND
     1    1    2 1   
     2    2    3 1   
     3    2    4 1   
     4    4    5 1   
     5    4   10 1   
     6    4   11 1   
     7    5    6 1   
     8    5   12 1   
     9    5   13 1   
    10    6    7 1   
    11    6   14 1   
    12    6   15 1   
    13    7    8 1   
    14    7   16 1   
    15    8    9 1   
    16    8   10 2   
    17    9   17 1   
    18    9   18 1   
    19    9   19 1   
@<TRIPOS>SUBSTRUCTURE
     1 4CS         1 TEMP              0 ****  ****    0 ROOT
