@<TRIPOS>MOLECULE
4CT
   46    49     1     0     0
SMALL
bcc


@<TRIPOS>ATOM
      1 N1          5.5990   -0.4140   -3.0930 nb        1 4CT     -0.750000
      2 CL1        -6.7860   -2.2930   -2.8680 cl        1 4CT     -0.094400
      3 C2          4.2370   -0.5360   -3.0940 ca        1 4CT      0.639900
      4 N3          3.3770   -0.4990   -2.0560 nb        1 4CT     -0.683000
      5 C4          3.9640   -0.2920   -0.8500 ca        1 4CT      0.454100
      6 C5          5.4050   -0.1300   -0.7150 ca        1 4CT     -0.325800
      7 C6          6.2130   -0.2040   -1.8950 ca        1 4CT      0.654200
      8 N6          7.5960    0.0220   -1.8040 nh        1 4CT     -0.917500
      9 N7          5.7100    0.0430    0.6350 na        1 4CT     -0.165400
     10 C8          4.5100    0.0500    1.3470 cc        1 4CT     -0.062100
     11 C9          3.4270   -0.1780    0.4940 cd        1 4CT     -0.267000
     12 C1'         0.1570    0.4600    2.2450 c3        1 4CT      0.147800
     13 N1'         1.5240    0.7080    1.7800 n3        1 4CT     -0.718600
     14 C10         2.0060   -0.3340    0.8740 c3        1 4CT      0.231000
     15 C11        -5.6930   -1.6570   -1.7320 ca        1 4CT      0.005400
     16 C13        -5.8400   -1.9690   -0.3750 ca        1 4CT     -0.106500
     17 C14        -4.9450   -1.4470    0.5500 ca        1 4CT     -0.126500
     18 C2'         1.5660    2.0540    1.2100 c3        1 4CT      0.114800
     19 C3'         0.1330    2.6380    1.1260 c3        1 4CT      0.128100
     20 O3'         0.0130    3.8430    1.8500 oh        1 4CT     -0.587800
     21 C4'        -0.7960    1.5350    1.6790 c3        1 4CT     -0.115700
     22 C5'        -1.6960    0.9950    0.5950 c3        1 4CT     -0.029300
     23 S6'        -2.8860   -0.0550    1.3790 ss        1 4CT     -0.179000
     24 C7'        -3.8950   -0.6090    0.1380 ca        1 4CT      0.000900
     25 C8'        -3.7610   -0.3060   -1.2200 ca        1 4CT     -0.126500
     26 C9'        -4.6540   -0.8260   -2.1550 ca        1 4CT     -0.106500
     27 H2          3.7890   -0.6980   -4.0970 h5        1 4CT      0.052100
     28 HN6         8.0960   -0.0920   -2.6620 hn        1 4CT      0.399300
     29 HN6A        8.0190   -0.4660   -1.0450 hn        1 4CT      0.399300
     30 HN7         6.5720    0.3860    0.9710 hn        1 4CT      0.302700
     31 H8          4.5010    0.2010    2.4300 h4        1 4CT      0.182000
     32 H1'A        0.1810    0.5400    3.3670 h1        1 4CT      0.060700
     33 H10         1.3830   -0.3940   -0.0680 h1        1 4CT      0.052200
     34 H10A        1.8910   -1.3180    1.4190 h1        1 4CT      0.052200
     35 H13        -6.6590   -2.6240   -0.0410 ha        1 4CT      0.148500
     36 H14        -5.0590   -1.6900    1.6180 ha        1 4CT      0.141500
     37 H2'         2.1910    2.6920    1.8950 h1        1 4CT      0.062700
     38 H2'A        2.0450    2.0670    0.1940 h1        1 4CT      0.062700
     39 H3'        -0.1300    2.9250    0.0720 h1        1 4CT      0.086700
     40 HO3'        0.2670    3.6630    2.7640 ho        1 4CT      0.403000
     41 H4'        -1.4280    1.9580    2.5070 hc        1 4CT      0.082700
     42 H5'        -2.2100    1.8360    0.0680 h1        1 4CT      0.073700
     43 H5'A       -1.1010    0.4270   -0.1630 h1        1 4CT      0.073700
     44 H8'        -2.9460    0.3460   -1.5680 ha        1 4CT      0.141500
     45 H9'        -4.5360   -0.5790   -3.2210 ha        1 4CT      0.148500
     46 H1'        -0.2080   -0.5690    1.9800 h1        1 4CT      0.060700
@<TRIPOS>BOND
     1    1    3 ar  
     2    1    7 ar  
     3    2   15 1   
     4    3    4 ar  
     5    3   27 1   
     6    4    5 ar  
     7    5    6 ar  
     8    5   11 1   
     9    6    7 ar  
    10    6    9 1   
    11    7    8 1   
    12    8   28 1   
    13    8   29 1   
    14    9   10 1   
    15    9   30 1   
    16   10   11 2   
    17   10   31 1   
    18   11   14 1   
    19   12   13 1   
    20   12   21 1   
    21   12   32 1   
    22   12   46 1   
    23   13   14 1   
    24   13   18 1   
    25   14   33 1   
    26   14   34 1   
    27   15   16 ar  
    28   15   26 ar  
    29   16   17 ar  
    30   16   35 1   
    31   17   24 ar  
    32   17   36 1   
    33   18   19 1   
    34   18   37 1   
    35   18   38 1   
    36   19   20 1   
    37   19   21 1   
    38   19   39 1   
    39   20   40 1   
    40   21   22 1   
    41   21   41 1   
    42   22   23 1   
    43   22   42 1   
    44   22   43 1   
    45   23   24 1   
    46   24   25 ar  
    47   25   26 ar  
    48   25   44 1   
    49   26   45 1   
@<TRIPOS>SUBSTRUCTURE
     1 4CT         1 TEMP              0 ****  ****    0 ROOT
