@<TRIPOS>MOLECULE
4CT
   46    39     1     0     0
SMALL
bcc


@<TRIPOS>ATOM
      1 N1         -3.7370   -2.2090   -5.2530 n1        1 4CT     -0.222000
      2 CL1         7.4470    1.2220    5.9340 cl        1 4CT     -0.016000
      3 C2         -2.4100   -2.1300   -4.8680 c1        1 4CT     -0.025000
      4 N3         -2.0880   -1.8430   -3.5670 n1        1 4CT     -0.139000
      5 C4         -3.0780   -1.6340   -2.6450 c1        1 4CT     -0.061000
      6 C5         -4.3890   -1.7120   -3.0210 c1        1 4CT     -0.061000
      7 C6         -4.7170   -2.0040   -4.3470 c1        1 4CT      0.128000
      8 N6         -5.9850   -1.8180   -5.0510 n3        1 4CT     -0.313000
      9 N7         -5.1730   -1.4610   -1.9000 n1        1 4CT     -0.186000
     10 C8         -4.3340   -1.2290   -0.8380 c1        1 4CT     -0.065000
     11 C9         -3.0370   -1.3340   -1.2890 c1        1 4CT     -0.135000
     12 C1'         0.4090   -0.4270   -0.0490 c3        1 4CT     -0.084000
     13 N1'        -1.1060   -0.0890   -0.4230 n3        1 4CT     -0.222000
     14 C10        -1.9310   -1.2490   -0.1870 c2        1 4CT     -0.007000
     15 C11         6.4610    1.3900    4.5090 c2        1 4CT     -0.074000
     16 C13         6.5690    0.4610    3.4790 c2        1 4CT     -0.106000
     17 C14         5.6830    0.5000    2.4150 c1        1 4CT     -0.115000
     18 C2'        -1.4720    0.8760    0.3810 c3        1 4CT     -0.117000
     19 C3'        -0.1400    1.6440    0.7420 c3        1 4CT      0.010000
     20 O3'        -0.1040    2.8300    0.1210 oh        1 4CT     -0.317000
     21 C4'         0.9960    0.7510    0.2470 c3        1 4CT     -0.121000
     22 C5'         2.0840    0.5530    1.3900 c3        1 4CT     -0.295000
     23 S6'         3.5520    1.5250    0.9970 ss        1 4CT      0.245000
     24 C7'         4.6910    1.4660    2.3760 c1        1 4CT     -0.228000
     25 C8'         4.5850    2.3890    3.4010 c1        1 4CT     -0.140000
     26 C9'         5.4760    2.3480    4.4710 c1        1 4CT     -0.106000
     27 H2         -1.6950   -2.2800   -5.5290 ha        1 4CT      0.190000
     28 HN6        -6.7830   -1.8250   -4.5780 hn        1 4CT      0.193000
     29 HN6A       -5.9880   -1.6360   -5.9590 hn        1 4CT      0.193000
     30 HN7        -6.0960   -1.4510   -1.8750 DU        1 4CT      0.209500
     31 H8         -4.6080   -1.0380    0.0800 DU        1 4CT      0.209500
     32 H1'         0.4380   -1.0240    0.7290 h1        1 4CT      0.105500
     33 H1'A        0.8630   -0.8490   -0.8180 h1        1 4CT      0.105500
     34 H10        -1.3730   -2.0610   -0.2180 h4        1 4CT      0.085000
     35 H10A       -2.3550   -1.1750    0.7010 h4        1 4CT      0.085000
     36 H13         7.2820   -0.2310    3.5070 ha        1 4CT      0.149000
     37 H14         5.7590   -0.1540    1.6910 ha        1 4CT      0.148000
     38 H2'        -2.0950    1.4720   -0.0690 h1        1 4CT      0.094000
     39 H2'A       -1.8790    0.5080    1.1870 h1        1 4CT      0.094000
     40 H3'        -0.0750    1.7670    1.7010 h1        1 4CT      0.075000
     41 HO3'       -0.3600    3.4680    0.6850 ho        1 4CT      0.202000
     42 H4'         1.4090    1.1370   -0.5530 hc        1 4CT      0.139000
     43 H5'         2.3240   -0.3850    1.4490 h1        1 4CT      0.108000
     44 H5'A        1.7070    0.8570    2.2670 h1        1 4CT      0.108000
     45 H8'         3.8750    3.0800    3.3750 ha        1 4CT      0.133000
     46 H9'         5.4000    3.0040    5.1990 ha        1 4CT      0.146000
@<TRIPOS>BOND
     1    1    7 1   
     2    2   15 1   
     3    3    4 1   
     4    3   27 1   
     5    5    6 1   
     6    7    8 1   
     7    8   28 1   
     8    8   29 1   
     9    9   10 1   
    10   10   11 1   
    11   12   13 1   
    12   12   21 1   
    13   12   32 1   
    14   12   33 1   
    15   13   14 1   
    16   13   18 1   
    17   14   34 1   
    18   14   35 1   
    19   15   16 1   
    20   15   26 1   
    21   16   17 1   
    22   16   36 1   
    23   17   37 1   
    24   18   19 1   
    25   18   38 1   
    26   18   39 1   
    27   19   20 1   
    28   19   21 1   
    29   19   40 1   
    30   20   41 1   
    31   21   22 1   
    32   21   42 1   
    33   22   23 1   
    34   22   43 1   
    35   22   44 1   
    36   23   24 1   
    37   24   25 1   
    38   25   45 1   
    39   26   46 1   
@<TRIPOS>SUBSTRUCTURE
     1 4CT         1 TEMP              0 ****  ****    0 ROOT
