@<TRIPOS>MOLECULE
4CT
   46    49     1     0     0
SMALL
bcc


@<TRIPOS>ATOM
      1 N1          0.0540   -1.2060    0.5920 nb        1 4CT     -0.748000
      2 Cl1        11.5380    0.4590    9.8910 cl        1 4CT     -0.094400
      3 C2          1.3770   -0.9080    0.4180 ca        1 4CT      0.637900
      4 N3          2.2550   -0.3750    1.2940 nb        1 4CT     -0.665000
      5 C4          1.7230   -0.0810    2.5070 ca        1 4CT      0.466100
      6 C5          0.3250   -0.3450    2.8180 ca        1 4CT     -0.325800
      7 C6         -0.5010   -0.9270    1.8040 ca        1 4CT      0.649200
      8 N6         -1.8710   -1.1220    2.0530 nv        1 4CT     -0.915500
      9 N7          0.0860    0.0160    4.1440 na        1 4CT     -0.163400
     10 C8          1.2660    0.5620    4.6550 cc        1 4CT     -0.092100
     11 C9          2.2940    0.4970    3.7120 cd        1 4CT     -0.249000
     12 C1'         5.4240    2.5920    3.5570 c3        1 4CT      0.152800
     13 N1'         3.9940    2.2740    3.5030 n3        1 4CT     -0.696600
     14 C10         3.7070    0.8970    3.8960 c3        1 4CT      0.234000
     15 C11        10.5660    1.0890    8.6470 ca        1 4CT      0.004400
     16 C13        11.1190    1.3150    7.3800 ca        1 4CT     -0.106000
     17 C14        10.3210    1.8300    6.3660 ca        1 4CT     -0.127500
     18 C2'         3.2900    3.2920    4.2770 c3        1 4CT      0.119800
     19 C3'         4.3030    4.0840    5.1430 c3        1 4CT      0.121100
     20 O3'         4.2290    5.4800    4.9180 oh        1 4CT     -0.589800
     21 C4'         5.6990    3.6160    4.6820 c3        1 4CT     -0.081700
     22 C5'         6.4760    3.0250    5.8340 c3        1 4CT     -0.034300
     23 S6'         8.1270    2.7430    5.2650 ss        1 4CT     -0.164000
     24 C7'         8.9670    2.1250    6.5970 ca        1 4CT     -0.001100
     25 C8'         8.4310    1.8940    7.8670 ca        1 4CT     -0.127500
     26 C9'         9.2230    1.3780    8.8910 ca        1 4CT     -0.106000
     27 H2          1.7770   -1.1510   -0.5900 h5        1 4CT      0.053100
     28 HN6        -2.0430   -1.5520    2.9370 hn        1 4CT      0.397800
     29 HN6A       -2.3710   -1.5640    1.3090 hn        1 4CT      0.397800
     30 HN7        -0.8130    0.1620    4.5230 hn        1 4CT      0.300700
     31 H8          1.3010    0.9290    5.6830 h4        1 4CT      0.168000
     32 H1'A        6.0620    1.6760    3.6900 h1        1 4CT      0.066200
     33 H10         4.3460    0.2350    3.2400 h1        1 4CT      0.045700
     34 H10A        3.9950    0.7010    4.9730 h1        1 4CT      0.045700
     35 H13        12.1780    1.0880    7.1860 ha        1 4CT      0.147500
     36 H14        10.7520    2.0100    5.3680 ha        1 4CT      0.140500
     37 H2'         2.4860    2.8490    4.9220 h1        1 4CT      0.054700
     38 H2'A        2.8050    3.9900    3.5380 h1        1 4CT      0.054700
     39 H3'         4.1360    3.8810    6.2350 h1        1 4CT      0.035700
     40 HO3'        3.3010    5.7300    5.0030 ho        1 4CT      0.403000
     41 H4'         6.2610    4.4960    4.2630 hc        1 4CT      0.099700
     42 H5'         6.0070    2.0700    6.1780 h1        1 4CT      0.068700
     43 H5'A        6.4780    3.7370    6.6970 h1        1 4CT      0.068700
     44 H8'         7.3730    2.1180    8.0750 ha        1 4CT      0.140500
     45 H9'         8.7860    1.2020    9.8860 ha        1 4CT      0.147500
     46 H1'         5.6830    3.0550    2.5650 h1        1 4CT      0.066200
@<TRIPOS>BOND
     1    1    3 ar  
     2    1    7 ar  
     3    2   15 1   
     4    3    4 ar  
     5    3   27 1   
     6    4    5 ar  
     7    5    6 ar  
     8    5   11 1   
     9    6    7 ar  
    10    6    9 1   
    11    7    8 1   
    12    8   28 1   
    13    8   29 1   
    14    9   10 1   
    15    9   30 1   
    16   10   11 2   
    17   10   31 1   
    18   11   14 1   
    19   12   13 1   
    20   12   21 1   
    21   12   32 1   
    22   12   46 1   
    23   13   14 1   
    24   13   18 1   
    25   14   33 1   
    26   14   34 1   
    27   15   16 ar  
    28   15   26 ar  
    29   16   17 ar  
    30   16   35 1   
    31   17   24 ar  
    32   17   36 1   
    33   18   19 1   
    34   18   37 1   
    35   18   38 1   
    36   19   20 1   
    37   19   21 1   
    38   19   39 1   
    39   20   40 1   
    40   21   22 1   
    41   21   41 1   
    42   22   23 1   
    43   22   42 1   
    44   22   43 1   
    45   23   24 1   
    46   24   25 ar  
    47   25   26 ar  
    48   25   44 1   
    49   26   45 1   
@<TRIPOS>SUBSTRUCTURE
     1 4CT         1 TEMP              0 ****  ****    0 ROOT
