@<TRIPOS>MOLECULE
4CT
   46    49     1     0     0
SMALL
bcc


@<TRIPOS>ATOM
      1 N1          0.0680   -1.1960    0.5500 nb        1 4CT     -0.748000
      2 CL1        11.5210    0.4420    9.8990 cl        1 4CT     -0.094400
      3 C2          1.3900   -0.8890    0.3830 ca        1 4CT      0.637900
      4 N3          2.2620   -0.3610    1.2660 nb        1 4CT     -0.665000
      5 C4          1.7260   -0.0800    2.4800 ca        1 4CT      0.466100
      6 C5          0.3290   -0.3540    2.7840 ca        1 4CT     -0.325800
      7 C6         -0.4920   -0.9300    1.7630 ca        1 4CT      0.649200
      8 N6         -1.8620   -1.1330    2.0060 nh        1 4CT     -0.915500
      9 N7          0.0840   -0.0060    4.1130 na        1 4CT     -0.163400
     10 C8          1.2600    0.5400    4.6330 cc        1 4CT     -0.092100
     11 C9          2.2910    0.4890    3.6930 cd        1 4CT     -0.249000
     12 C1'         5.4130    2.5980    3.5670 c3        1 4CT      0.152800
     13 N1'         3.9840    2.2750    3.5050 n3        1 4CT     -0.696600
     14 C10         3.7010    0.8930    3.8840 c3        1 4CT      0.234000
     15 C11        10.5490    1.0770    8.6570 ca        1 4CT      0.004400
     16 C13        11.1030    1.3170    7.3940 ca        1 4CT     -0.106000
     17 C14        10.3060    1.8360    6.3820 ca        1 4CT     -0.127500
     18 C2'         3.2730    3.2830    4.2860 c3        1 4CT      0.119800
     19 C3'         4.2800    4.0710    5.1630 c3        1 4CT      0.121100
     20 O3'         4.2000    5.4690    4.9500 oh        1 4CT     -0.589800
     21 C4'         5.6800    3.6130    4.7020 c3        1 4CT     -0.081700
     22 C5'         6.4560    3.0160    5.8500 c3        1 4CT     -0.034300
     23 S6'         8.1100    2.7480    5.2830 ss        1 4CT     -0.164000
     24 C7'         8.9490    2.1230    6.6120 ca        1 4CT     -0.001100
     25 C8'         8.4110    1.8790    7.8790 ca        1 4CT     -0.127500
     26 C9'         9.2030    1.3580    8.9010 ca        1 4CT     -0.106000
     27 H2          1.7940   -1.1210   -0.6260 h5        1 4CT      0.053100
     28 HN6        -2.0350   -1.5720    2.8850 hn        1 4CT      0.397800
     29 HN6A       -2.3580   -1.5700    1.2560 hn        1 4CT      0.397800
     30 HN7        -0.8170    0.1330    4.4910 hn        1 4CT      0.300700
     31 H8          1.2910    0.8980    5.6650 h4        1 4CT      0.168000
     32 H1'A        5.6720    3.0710    2.5790 h1        1 4CT      0.066200
     33 H10         3.9880    0.6880    4.9600 h1        1 4CT      0.045700
     34 H10A        4.3450    0.2400    3.2250 h1        1 4CT      0.045700
     35 H13        12.1640    1.0960    7.2010 ha        1 4CT      0.147500
     36 H14        10.7390    2.0260    5.3870 ha        1 4CT      0.140500
     37 H2'         2.7880    3.9850    3.5520 h1        1 4CT      0.054700
     38 H2'A        2.4690    2.8300    4.9250 h1        1 4CT      0.054700
     39 H3'         4.1100    3.8560    6.2520 h1        1 4CT      0.035700
     40 HO3'        3.2700    5.7130    5.0350 ho        1 4CT      0.403000
     41 H4'         6.2380    4.5000    4.2920 hc        1 4CT      0.099700
     42 H5'         6.4520    3.7200    6.7190 h1        1 4CT      0.068700
     43 H5'A        5.9910    2.0560    6.1840 h1        1 4CT      0.068700
     44 H8'         7.3520    2.0960    8.0850 ha        1 4CT      0.140500
     45 H9'         8.7650    1.1720    9.8930 ha        1 4CT      0.147500
     46 H1'         6.0540    1.6840    3.6940 h1        1 4CT      0.066200
@<TRIPOS>BOND
     1    1    3 ar  
     2    1    7 ar  
     3    2   15 1   
     4    3    4 ar  
     5    3   27 1   
     6    4    5 ar  
     7    5    6 ar  
     8    5   11 1   
     9    6    7 ar  
    10    6    9 1   
    11    7    8 1   
    12    8   28 1   
    13    8   29 1   
    14    9   10 1   
    15    9   30 1   
    16   10   11 2   
    17   10   31 1   
    18   11   14 1   
    19   12   13 1   
    20   12   21 1   
    21   12   32 1   
    22   12   46 1   
    23   13   14 1   
    24   13   18 1   
    25   14   33 1   
    26   14   34 1   
    27   15   16 ar  
    28   15   26 ar  
    29   16   17 ar  
    30   16   35 1   
    31   17   24 ar  
    32   17   36 1   
    33   18   19 1   
    34   18   37 1   
    35   18   38 1   
    36   19   20 1   
    37   19   21 1   
    38   19   39 1   
    39   20   40 1   
    40   21   22 1   
    41   21   41 1   
    42   22   23 1   
    43   22   42 1   
    44   22   43 1   
    45   23   24 1   
    46   24   25 ar  
    47   25   26 ar  
    48   25   44 1   
    49   26   45 1   
@<TRIPOS>SUBSTRUCTURE
     1 4CT         1 TEMP              0 ****  ****    0 ROOT
