@<TRIPOS>MOLECULE
4CT
   47    50     1     0     0
SMALL
bcc


@<TRIPOS>ATOM
      1 N1          2.0060   -2.9370    2.9820 nb        1 4CT     -0.668000
      2 CL1        11.8880   -0.4120    5.8010 cl        1 4CT     -0.078400
      3 C2          2.5710   -2.5870    4.1640 ca        1 4CT      0.647900
      4 N3          2.6300   -1.3460    4.7260 nb        1 4CT     -0.590000
      5 C4          2.0630   -0.3630    4.0200 ca        1 4CT      0.477100
      6 C5          1.4070   -0.6100    2.7040 ca        1 4CT     -0.245800
      7 C6          1.4250   -1.9420    2.2550 ca        1 4CT      0.438200
      8 N6          0.8100   -2.3180    0.9680 n4        1 4CT     -0.815300
      9 N7          0.9180    0.5930    2.2330 na        1 4CT     -0.191400
     10 C8          1.2300    1.5950    3.1700 cc        1 4CT     -0.024100
     11 C9          1.9160    1.0670    4.2570 cd        1 4CT     -0.217000
     12 C1'         3.8410    3.5080    4.5110 c3        1 4CT      0.143800
     13 N1'         2.6040    3.2000    5.2360 n3        1 4CT     -0.722600
     14 C10         2.3990    1.7760    5.4690 c3        1 4CT      0.221000
     15 C11        10.5170    0.5250    5.4510 ca        1 4CT      0.010400
     16 C13        10.2930    0.9710    4.1420 ca        1 4CT     -0.106500
     17 C14         9.1670    1.7350    3.8600 ca        1 4CT     -0.125000
     18 C2'         2.6020    3.9990    6.4630 c3        1 4CT      0.118800
     19 C3'         4.0090    4.6160    6.6850 c3        1 4CT      0.127100
     20 O3'         3.9510    6.0290    6.7090 oh        1 4CT     -0.582800
     21 C4'         4.8410    4.2180    5.4480 c3        1 4CT     -0.076700
     22 C5'         5.9990    3.3320    5.8400 c3        1 4CT     -0.034300
     23 S6'         6.9200    2.9820    4.3690 ss        1 4CT     -0.188000
     24 C7'         8.2520    2.0620    4.8730 ca        1 4CT     -0.005100
     25 C8'         8.4900    1.6170    6.1760 ca        1 4CT     -0.125000
     26 C9'         9.6170    0.8510    6.4690 ca        1 4CT     -0.106500
     27 H2          3.0400   -3.4180    4.7390 h5        1 4CT      0.097100
     28 HN6        -0.1860   -2.0800    0.9870 hn        1 4CT      0.469800
     29 HN6A        1.2780   -1.8110    0.2100 hn        1 4CT      0.469800
     30 HN7         0.4550    0.7480    1.3770 hn        1 4CT      0.311700
     31 H8          0.9340    2.6370    2.9870 h4        1 4CT      0.219000
     32 H10         1.6090    1.6510    6.2690 h1        1 4CT      0.066200
     33 H10A        3.3340    1.2560    5.8350 h1        1 4CT      0.066200
     34 H13        11.0060    0.7230    3.3410 ha        1 4CT      0.152500
     35 H14         8.9940    2.0950    2.8340 ha        1 4CT      0.139500
     36 H2'         2.2950    3.4050    7.3630 h1        1 4CT      0.063700
     37 H2'A        1.8530    4.8260    6.3100 h1        1 4CT      0.063700
     38 H3'         4.4650    4.2330    7.6360 h1        1 4CT      0.048700
     39 HO3'        3.4730    6.2790    7.5100 ho        1 4CT      0.410000
     40 H4'         5.2310    5.1490    4.9500 hc        1 4CT      0.108700
     41 H5'         5.6320    2.3850    6.3070 h1        1 4CT      0.072200
     42 H5'A        6.6420    3.8570    6.5890 h1        1 4CT      0.072200
     43 H8'         7.7930    1.8690    6.9890 ha        1 4CT      0.139500
     44 H9'         9.7950    0.5100    7.5010 ha        1 4CT      0.152500
     45 H1'         3.5560    4.2110    3.6790 h1        1 4CT      0.063700
     46 H63         0.9100   -3.3320    0.8040 hn        1 4CT      0.469800
     47 H1'A        4.3050    2.5910    4.0550 h1        1 4CT      0.063700
@<TRIPOS>BOND
     1    1    3 ar  
     2    1    7 ar  
     3    2   15 1   
     4    3    4 ar  
     5    3   27 1   
     6    4    5 ar  
     7    5    6 ar  
     8    5   11 1   
     9    6    7 ar  
    10    6    9 1   
    11    7    8 1   
    12    8   28 1   
    13    8   29 1   
    14    8   46 1   
    15    9   10 1   
    16    9   30 1   
    17   10   11 2   
    18   10   31 1   
    19   11   14 1   
    20   12   13 1   
    21   12   21 1   
    22   12   45 1   
    23   12   47 1   
    24   13   14 1   
    25   13   18 1   
    26   14   32 1   
    27   14   33 1   
    28   15   16 ar  
    29   15   26 ar  
    30   16   17 ar  
    31   16   34 1   
    32   17   24 ar  
    33   17   35 1   
    34   18   19 1   
    35   18   36 1   
    36   18   37 1   
    37   19   20 1   
    38   19   21 1   
    39   19   38 1   
    40   20   39 1   
    41   21   22 1   
    42   21   40 1   
    43   22   23 1   
    44   22   41 1   
    45   22   42 1   
    46   23   24 1   
    47   24   25 ar  
    48   25   26 ar  
    49   25   43 1   
    50   26   44 1   
@<TRIPOS>SUBSTRUCTURE
     1 4CT         1 TEMP              0 ****  ****    0 ROOT
