@<TRIPOS>MOLECULE
4CV
   48    50     1     0     0
SMALL
bcc


@<TRIPOS>ATOM
      1 C10        -0.0210   -0.0860    0.1880 ca        1 4CV      0.290600
      2 C13        -2.5870   -0.7020   -2.4400 c3        1 4CV      0.114400
      3 C15        -0.8730    0.6130   -3.3830 c3        1 4CV      0.114400
      4 C17         1.4310   -0.1900    0.2090 ca        1 4CV      0.073600
      5 C21         4.6290    2.3490   -0.8750 ca        1 4CV      0.679900
      6 C26         3.6820   -0.4110   -3.7690 cc        1 4CV     -0.115500
      7 C28         3.8130    0.4380   -2.6130 ca        1 4CV     -0.339400
      8 C02         3.6920   -2.8440    4.6450 c3        1 4CV      0.096100
      9 S04         2.1810   -0.2150    4.0240 s4        1 4CV      1.672300
     10 O05         1.4420   -0.0490    5.1620 o         1 4CV     -0.453900
     11 O06         3.5220    0.0320    3.9900 o         1 4CV     -0.453900
     12 C07         1.4100   -0.2660    2.6800 ca        1 4CV     -0.665500
     13 C08        -0.0110   -0.2900    2.6290 ca        1 4CV      0.044000
     14 C09        -0.6940   -0.2260    1.4470 ca        1 4CV     -0.222000
     15 N11        -0.7380    0.0630   -0.9690 nh        1 4CV     -0.641000
     16 C12        -2.1390   -0.3400   -1.0130 c3        1 4CV      0.155300
     17 O14        -2.2640    0.3200   -3.3700 os        1 4CV     -0.389600
     18 C16        -0.3980    1.0470   -1.9880 c3        1 4CV      0.155300
     19 N18         2.1780   -0.3290   -0.9740 nh        1 4CV     -0.751300
     20 C19         3.1890    0.5720   -1.3360 ca        1 4CV      0.709200
     21 N20         3.6030    1.5420   -0.4700 nb        1 4CV     -0.790000
     22 N22         5.3140    2.3420   -2.0340 nb        1 4CV     -0.694000
     23 C23         4.8950    1.3710   -2.9050 ca        1 4CV      0.471800
     24 N24         5.3760    1.0780   -4.1850 na        1 4CV     -0.261100
     25 C25         4.6460    0.0070   -4.6950 cd        1 4CV     -0.046100
     26 C29         2.0870   -0.2510    1.4320 ca        1 4CV      0.054000
     27 H1         -2.1260   -1.6730   -2.7630 h1        1 4CV      0.075200
     28 H2         -3.7070   -0.7720   -2.4750 h1        1 4CV      0.075200
     29 H3         -0.7700    1.4700   -4.1010 h1        1 4CV      0.075200
     30 H4         -0.2930   -0.2740   -3.7500 h1        1 4CV      0.075200
     31 H5          4.9340    3.1230   -0.1360 h5        1 4CV      0.066100
     32 H6          3.9120   -2.4470    5.6720 h1        1 4CV      0.081367
     33 H7          4.4350   -2.4050    3.9240 h1        1 4CV      0.081367
     34 H8          3.8180   -3.9600    4.6590 h1        1 4CV      0.081367
     35 H9          1.6840   -2.7300    4.9510 hn        1 4CV      0.406800
     36 H10        -0.5740   -0.3280    3.5820 ha        1 4CV      0.165000
     37 H11        -1.7980   -0.2210    1.4770 ha        1 4CV      0.168000
     38 H12        -2.7860    0.5010   -0.6290 h1        1 4CV      0.072950
     39 H13        -2.2910   -1.2460   -0.3630 h1        1 4CV      0.072950
     40 H14         0.7020    1.2610   -2.0200 h1        1 4CV      0.072950
     41 H15        -0.9240    2.0130   -1.7200 h1        1 4CV      0.072950
     42 H16         1.7530   -0.8370   -1.7240 hn        1 4CV      0.462800
     43 H17         6.1170    1.5520   -4.6390 hn        1 4CV      0.331700
     44 H18         4.8620   -0.3900   -5.6920 h4        1 4CV      0.198000
     45 H19         3.1960   -0.2940    1.4500 ha        1 4CV      0.180000
     46 N03         2.3520   -2.4470    4.2490 n3        1 4CV     -1.007800
     47 H032        2.0990   -2.8840    3.3770 hn        1 4CV      0.406800
     48 BR2         2.4970   -1.7900   -4.0100 br        1 4CV     -0.023700
@<TRIPOS>BOND
     1    1    4 ar  
     2    1   14 ar  
     3    1   15 1   
     4    2   16 1   
     5    2   17 1   
     6    2   27 1   
     7    2   28 1   
     8    3   17 1   
     9    3   18 1   
    10    3   29 1   
    11    3   30 1   
    12    4   19 1   
    13    4   26 ar  
    14    5   21 ar  
    15    5   22 ar  
    16    5   31 1   
    17    6    7 1   
    18    6   25 2   
    19    6   48 1   
    20    7   20 ar  
    21    7   23 ar  
    22    8   32 1   
    23    8   33 1   
    24    8   34 1   
    25    8   46 1   
    26    9   10 1   
    27    9   11 1   
    28    9   12 1   
    29   12   13 ar  
    30   12   26 ar  
    31   13   14 ar  
    32   13   36 1   
    33   14   37 1   
    34   15   16 1   
    35   15   18 1   
    36   16   38 1   
    37   16   39 1   
    38   18   40 1   
    39   18   41 1   
    40   19   20 1   
    41   19   42 1   
    42   20   21 ar  
    43   22   23 ar  
    44   23   24 1   
    45   24   25 1   
    46   24   43 1   
    47   25   44 1   
    48   26   45 1   
    49   35   46 1   
    50   46   47 1   
@<TRIPOS>SUBSTRUCTURE
     1 4CV         1 TEMP              0 ****  ****    0 ROOT
