@<TRIPOS>MOLECULE
4CV
   48    47     1     0     0
SMALL
bcc


@<TRIPOS>ATOM
      1 C10        -0.0480   -0.4510    0.5440 ca        1 4CV      0.230000
      2 C13        -0.9300   -0.0460   -3.1270 c1        1 4CV     -0.061000
      3 C15        -1.5980    2.4130   -2.6010 c1        1 4CV     -0.222500
      4 C17         1.3910   -0.4820    0.2430 ca        1 4CV     -0.116000
      5 C21         2.9760    2.8730   -1.9310 c1        1 4CV      0.020000
      6 C26         3.9010   -0.9560   -3.4320 c3        1 4CV     -0.206000
      7 C28         3.4170    0.2670   -2.7360 c2        1 4CV     -0.323000
      8 C02         4.6170   -2.9750    4.1730 c3        1 4CV     -0.178000
      9 S04         2.9940   -0.3420    3.7680 s4        1 4CV      2.107800
     10 O05         2.5460   -0.1170    5.0400 o         1 4CV     -0.458900
     11 O06         4.2940   -0.1230    3.4070 o         1 4CV     -0.458900
     12 C07         1.9470   -0.4380    2.6490 ca        1 4CV     -1.148000
     13 C08         0.5430   -0.4590    2.9290 ca        1 4CV      0.059000
     14 C09        -0.3970   -0.4740    1.9510 ca        1 4CV     -0.246000
     15 N11        -0.9770   -0.4000   -0.4100 nu        1 4CV     -0.233000
     16 C12        -2.3860   -0.4060   -0.1230 c3        1 4CV     -0.125000
     17 O14        -2.0650   -0.5050   -3.5100 oh        1 4CV     -0.136000
     18 C16        -0.8580    3.2120   -3.0990 c1        1 4CV     -0.222500
     19 N18         1.7940   -0.5740   -1.1190 nu        1 4CV     -0.249000
     20 C19         2.5270    0.4880   -1.6850 c2        1 4CV      0.166000
     21 N20         2.3430    1.8230   -1.2980 n7        1 4CV     -0.215000
     22 N22         3.8380    2.6900   -2.9700 n2        1 4CV     -0.210000
     23 C23         4.0630    1.4290   -3.3540 c2        1 4CV      0.142000
     24 N24         4.9190    0.9310   -4.3910 n7        1 4CV     -0.200000
     25 C25         4.8820   -0.4050   -4.4960 c1        1 4CV      0.070000
     26 C29         2.3060   -0.4720    1.2700 ca        1 4CV      0.048000
     27 H1         -2.9370   -0.4130   -1.1040 h1        1 4CV      0.110667
     28 H2         -0.2280    0.3980   -3.8580 ha        1 4CV      0.073000
     29 H3         -2.2720   -0.4280   -4.4680 ho        1 4CV      0.204000
     30 H4         -2.2870    1.7560   -2.1310 ha        1 4CV      0.229500
     31 H5          1.7200    2.0400   -0.5500 hn        1 4CV      0.259000
     32 H6          5.1620   -2.5900    3.2690 h1        1 4CV      0.118333
     33 H7          5.0760   -2.5170    5.0900 h1        1 4CV      0.118333
     34 H8          4.7480   -4.0890    4.2280 h1        1 4CV      0.118333
     35 H9          2.7430   -2.8110    4.9470 hn        1 4CV      0.197500
     36 H10         0.2280   -0.4480    3.9910 ha        1 4CV      0.164000
     37 H11        -1.4650   -0.4870    2.2300 ha        1 4CV      0.167000
     38 H12        -2.6750   -1.3200    0.4620 h1        1 4CV      0.110667
     39 H13        -2.6820    0.5090    0.4590 h1        1 4CV      0.110667
     40 H14        -0.1950    3.9190   -3.5400 ha        1 4CV      0.229500
     41 H15        -0.7380   -0.3110   -1.4430 hn        1 4CV      0.336000
     42 H16         2.1560   -1.4780   -1.3630 hn        1 4CV      0.235000
     43 H17         5.4770    1.5410   -4.9450 hn        1 4CV      0.288000
     44 H18         3.0900   -1.5270   -3.9440 h1        1 4CV      0.159000
     45 H19         3.3910   -0.4780    1.0320 ha        1 4CV      0.166000
     46 N03         3.2210   -2.5870    4.0870 n8        1 4CV     -0.439000
     47 H032        2.7650   -3.0770    3.3350 hn        1 4CV      0.197500
     48 Br2         4.8150   -2.2080   -2.2870 br        1 4CV      0.013000
@<TRIPOS>BOND
     1    1    4 1   
     2    1   14 1   
     3    1   15 1   
     4    2   17 1   
     5    2   28 1   
     6    3   18 1   
     7    3   30 1   
     8    4   19 1   
     9    4   26 1   
    10    5   21 1   
    11    5   22 1   
    12    6    7 1   
    13    6   25 1   
    14    6   44 1   
    15    6   48 1   
    16    7   20 1   
    17    7   23 1   
    18    8   32 1   
    19    8   33 1   
    20    8   34 1   
    21    8   46 1   
    22    9   10 1   
    23    9   11 1   
    24    9   12 1   
    25   12   13 1   
    26   12   26 1   
    27   13   14 1   
    28   13   36 1   
    29   14   37 1   
    30   15   16 1   
    31   15   41 1   
    32   16   27 1   
    33   16   38 1   
    34   16   39 1   
    35   17   29 1   
    36   18   40 1   
    37   19   20 1   
    38   19   42 1   
    39   20   21 1   
    40   21   31 1   
    41   22   23 1   
    42   23   24 1   
    43   24   25 1   
    44   24   43 1   
    45   26   45 1   
    46   35   46 1   
    47   46   47 1   
@<TRIPOS>SUBSTRUCTURE
     1 4CV         1 TEMP              0 ****  ****    0 ROOT
