@<TRIPOS>MOLECULE
4CW
   34    36     1     0     0
SMALL
bcc


@<TRIPOS>ATOM
      1 N18         0.0790    0.0350   -0.3930 nu        1 4CW     -0.731300
      2 C17         1.4630   -0.0600   -0.2340 ca        1 4CW      0.168600
      3 C13         3.7320   -0.1950   -1.1220 ca        1 4CW     -0.129000
      4 C10         3.4080   -0.0050    1.2770 ca        1 4CW     -0.519500
      5 C11         4.2590   -0.1260    0.1610 ca        1 4CW     -0.018000
      6 C20        -0.6760   -0.6760   -1.3400 ca        1 4CW      0.725200
      7 C28        -4.2080   -0.2160   -0.8520 cc        1 4CW      0.440700
      8 C25        -2.8630   -1.3010   -2.2890 ca        1 4CW      0.451800
      9 C32         2.0150    0.0150    1.0600 ca        1 4CW     -0.081000
     10 C01         3.9970    2.4320    4.2630 c3        1 4CW      0.077100
     11 N05         4.2030    1.9450    2.8940 ny        1 4CW     -0.689900
     12 S07         3.9970    0.0110    2.7630 sy        1 4CW      1.488200
     13 O08         3.0840   -0.2310    3.7670 o         1 4CW     -0.568800
     14 O09         5.3180   -0.3640    2.8810 o         1 4CW     -0.568800
     15 C15         2.3570   -0.1500   -1.3360 ca        1 4CW     -0.008000
     16 N21        -0.1040   -1.4260   -2.3210 nb        1 4CW     -0.780000
     17 C22        -0.9360   -2.0490   -3.2110 ca        1 4CW      0.680900
     18 N24        -2.2840   -2.0460   -3.2760 nb        1 4CW     -0.678000
     19 N26        -4.2050   -1.0430   -1.9950 na        1 4CW     -0.365000
     20 N30        -2.9800    0.0770   -0.3940 nd        1 4CW     -0.559100
     21 C31        -2.1010   -0.5810   -1.2660 ca        1 4CW     -0.200200
     22 H1         -0.4390    0.3290    0.4120 hn        1 4CW      0.464800
     23 H2          4.4110   -0.2860   -1.9880 ha        1 4CW      0.176000
     24 H3          5.3530   -0.1840    0.3100 ha        1 4CW      0.167000
     25 H4         -5.1490    0.1380   -0.4080 h5        1 4CW      0.089800
     26 H5          1.3480    0.0710    1.9420 ha        1 4CW      0.163000
     27 H6          2.9900    2.0910    4.6330 hx        1 4CW      0.105033
     28 H7          4.7970    2.0100    4.9310 hx        1 4CW      0.105033
     29 H8          4.0430    3.5530    4.3070 hx        1 4CW      0.105033
     30 H9          5.1430    2.1960    2.5930 hn        1 4CW      0.442800
     31 H10         1.9770   -0.1830   -2.3740 ha        1 4CW      0.197000
     32 H11        -0.4160   -2.6480   -3.9920 h5        1 4CW      0.070100
     33 H12        -4.9870   -1.3810   -2.4960 hn        1 4CW      0.334700
     34 H052        3.5500    2.4110    2.2690 hn        1 4CW      0.442800
@<TRIPOS>BOND
     1    1    2 1   
     2    1    6 1   
     3    1   22 1   
     4    2    9 ar  
     5    2   15 ar  
     6    3    5 ar  
     7    3   15 ar  
     8    3   23 1   
     9    4    5 ar  
    10    4    9 ar  
    11    4   12 1   
    12    5   24 1   
    13    6   16 ar  
    14    6   21 ar  
    15    7   19 1   
    16    7   20 2   
    17    7   25 1   
    18    8   18 ar  
    19    8   19 1   
    20    8   21 ar  
    21    9   26 1   
    22   10   11 1   
    23   10   27 1   
    24   10   28 1   
    25   10   29 1   
    26   11   12 1   
    27   11   30 1   
    28   11   34 1   
    29   12   13 2   
    30   12   14 2   
    31   15   31 1   
    32   16   17 ar  
    33   17   18 ar  
    34   17   32 1   
    35   19   33 1   
    36   20   21 1   
@<TRIPOS>SUBSTRUCTURE
     1 4CW         1 TEMP              0 ****  ****    0 ROOT
