@<TRIPOS>MOLECULE
4CW
   34    36     1     0     0
SMALL
bcc


@<TRIPOS>ATOM
      1 N18         0.0790    0.0380   -0.3950 nh        1 4CW     -0.731300
      2 C17         1.4620   -0.0600   -0.2350 ca        1 4CW      0.168600
      3 C13         3.7310   -0.2080   -1.1190 ca        1 4CW     -0.129000
      4 C10         3.4060    0.0010    1.2780 ca        1 4CW     -0.519500
      5 C11         4.2570   -0.1310    0.1630 ca        1 4CW     -0.018000
      6 C20        -0.6770   -0.6780   -1.3370 ca        1 4CW      0.725200
      7 C28        -4.2090   -0.2020   -0.8590 cc        1 4CW      0.440700
      8 C25        -2.8660   -1.3040   -2.2840 ca        1 4CW      0.451800
      9 C32         2.0130    0.0240    1.0590 ca        1 4CW     -0.081000
     10 C01         4.0060    2.4580    4.2460 c3        1 4CW      0.077100
     11 N05         4.2050    1.9610    2.8800 n4        1 4CW     -0.689900
     12 S07         3.9940    0.0270    2.7640 sy        1 4CW      1.488200
     13 O08         3.0800   -0.2040    3.7690 o         1 4CW     -0.568800
     14 O09         5.3140   -0.3510    2.8860 o         1 4CW     -0.568800
     15 C15         2.3570   -0.1620   -1.3350 ca        1 4CW     -0.008000
     16 N21        -0.1070   -1.4390   -2.3120 nb        1 4CW     -0.780000
     17 C22        -0.9400   -2.0670   -3.1970 ca        1 4CW      0.680900
     18 N24        -2.2870   -2.0600   -3.2650 nb        1 4CW     -0.678000
     19 N26        -4.2070   -1.0390   -1.9940 na        1 4CW     -0.365000
     20 N30        -2.9800    0.0910   -0.4010 nd        1 4CW     -0.559100
     21 C31        -2.1020   -0.5780   -1.2660 ca        1 4CW     -0.200200
     22 H1         -0.4400    0.3400    0.4060 hn        1 4CW      0.464800
     23 H2          4.4110   -0.3090   -1.9840 ha        1 4CW      0.176000
     24 H3          5.3510   -0.1910    0.3140 ha        1 4CW      0.167000
     25 H4         -5.1490    0.1590   -0.4190 h5        1 4CW      0.089800
     26 H5          1.3460    0.0890    1.9400 ha        1 4CW      0.163000
     27 H6          4.8080    2.0390    4.9140 hx        1 4CW      0.105033
     28 H7          4.0560    3.5790    4.2820 hx        1 4CW      0.105033
     29 H8          3.0000    2.1230    4.6230 hx        1 4CW      0.105033
     30 H9          3.5510    2.4240    2.2540 hn        1 4CW      0.442800
     31 H10         1.9780   -0.2010   -2.3730 ha        1 4CW      0.197000
     32 H11        -0.4200   -2.6740   -3.9720 h5        1 4CW      0.070100
     33 H12        -4.9890   -1.3780   -2.4940 hn        1 4CW      0.334700
     34 H052        5.1450    2.2070    2.5730 hn        1 4CW      0.442800
@<TRIPOS>BOND
     1    1    2 1   
     2    1    6 1   
     3    1   22 1   
     4    2    9 ar  
     5    2   15 ar  
     6    3    5 ar  
     7    3   15 ar  
     8    3   23 1   
     9    4    5 ar  
    10    4    9 ar  
    11    4   12 1   
    12    5   24 1   
    13    6   16 ar  
    14    6   21 ar  
    15    7   19 1   
    16    7   20 2   
    17    7   25 1   
    18    8   18 ar  
    19    8   19 1   
    20    8   21 ar  
    21    9   26 1   
    22   10   11 1   
    23   10   27 1   
    24   10   28 1   
    25   10   29 1   
    26   11   12 1   
    27   11   30 1   
    28   11   34 1   
    29   12   13 2   
    30   12   14 2   
    31   15   31 1   
    32   16   17 ar  
    33   17   18 ar  
    34   17   32 1   
    35   19   33 1   
    36   20   21 1   
@<TRIPOS>SUBSTRUCTURE
     1 4CW         1 TEMP              0 ****  ****    0 ROOT
