@<TRIPOS>MOLECULE
4CY
   17    16     1     0     0
SMALL
bcc


@<TRIPOS>ATOM
      1 C           2.8190    0.2830   -0.0820 c         1 4CY      0.890600
      2 N           1.5490   -1.9200    0.0650 n3        1 4CY     -0.894800
      3 O           3.7980   -0.3390    0.4170 o         1 4CY     -0.835800
      4 CA          1.5150   -0.5340   -0.3840 c3        1 4CY      0.019500
      5 CB          0.3280    0.2500    0.1830 c3        1 4CY     -0.067400
      6 CCS        -3.6140    0.1420   -0.1350 c1        1 4CY      0.207900
      7 SD         -2.2220    0.8310    0.2870 ss        1 4CY     -0.072200
      8 CG         -0.9850   -0.3110   -0.3010 c3        1 4CY     -0.010300
      9 NSC        -4.6540   -0.3160   -0.4190 n1        1 4CY     -0.392800
     10 OXT         2.8150    1.5080   -0.3780 o         1 4CY     -0.835800
     11 HN          2.4330   -2.3030   -0.2300 hn        1 4CY      0.334300
     12 HB          0.3620    0.2380    1.3040 hc        1 4CY      0.066200
     13 HBA         0.4540    1.3170   -0.1530 hc        1 4CY      0.066200
     14 HG         -1.0050   -0.3670   -1.4150 h1        1 4CY      0.073700
     15 HGA        -1.1610   -1.3340    0.1040 h1        1 4CY      0.073700
     16 HNXT        1.5640   -1.9270    1.0700 hn        1 4CY      0.334300
     17 H8          1.4130   -0.5620   -1.5080 h1        1 4CY      0.042700
@<TRIPOS>BOND
     1    1    3 1   
     2    1    4 1   
     3    1   10 1   
     4    2    4 1   
     5    2   11 1   
     6    2   16 1   
     7    4    5 1   
     8    4   17 1   
     9    5    8 1   
    10    5   12 1   
    11    5   13 1   
    12    6    7 1   
    13    6    9 3   
    14    7    8 1   
    15    8   14 1   
    16    8   15 1   
@<TRIPOS>SUBSTRUCTURE
     1 4CY         1 TEMP              0 ****  ****    0 ROOT
