@<TRIPOS>MOLECULE
4D0
   59    60     1     0     0
SMALL
bcc


@<TRIPOS>ATOM
      1 C11       128.3910 -199.2000 -172.5400 ca        1 4D0     -0.118000
      2 C13       128.1790 -197.3910 -174.1320 ca        1 4D0     -0.118000
      3 C14       129.1500 -197.9820 -174.9330 ca        1 4D0     -0.106000
      4 C15       126.7660 -197.3730 -172.0850 cp        1 4D0     -0.079000
      5 C16       125.8100 -198.1650 -171.4310 ca        1 4D0     -0.107000
      6 C17       124.8340 -197.5710 -170.6330 ca        1 4D0     -0.125500
      7 C20       126.7280 -195.9800 -171.9250 ca        1 4D0     -0.107000
      8 C19       125.7540 -195.3920 -171.1210 ca        1 4D0     -0.125500
      9 C18       124.8050 -196.1850 -170.4760 ca        1 4D0     -0.103000
     10 C12       127.7870 -197.9920 -172.9240 cq        1 4D0      0.028000
     11 C10       129.3630 -199.7910 -173.3400 ca        1 4D0     -0.106000
     12 C9        129.7500 -199.1850 -174.5420 ca        1 4D0     -0.157000
     13 C8        130.7650 -199.8310 -175.4110 c3        1 4D0     -0.093000
     14 C7        132.1560 -199.3310 -174.9840 c3        1 4D0     -0.183000
     15 C5        133.2010 -199.9090 -175.7690 c1        1 4D0      0.436000
     16 O6        134.0320 -200.3870 -176.4140 o         1 4D0      0.107000
     17 N4       -129.6940  197.1450  179.9390 n         1 4D0     -0.367000
     18 C2       -128.4260  197.3270  180.3790 c2        1 4D0      0.342000
     19 O3       -128.0180  198.1300  181.2270 o         1 4D0     -0.255000
     20 N1       -127.3130  196.4310  179.8140 n4        1 4D0     -0.101000
     21 C1'      -127.2260  196.4550  178.3160 c3        1 4D0      0.060000
     22 O5'      -128.3780  195.7610  177.8540 os        1 4D0     -0.296000
     23 C5'      -128.5190  195.8180  176.4220 c3        1 4D0     -0.027000
     24 C6'      -129.8500  195.0990  176.1610 c3        1 4D0     -0.018000
     25 O6'      -130.8920  195.8060  176.7970 oh        1 4D0     -0.322000
     26 C4'      -127.3160  195.1350  175.7540 c3        1 4D0     -0.030000
     27 O4'      -127.3350  195.3820  174.3610 oh        1 4D0     -0.309000
     28 C3'      -126.0020  195.7660  176.2620 c3        1 4D0      0.003000
     29 O3'      -124.8830  195.0180  175.8330 oh        1 4D0     -0.319000
     30 C2'      -125.9590  195.7220  177.7990 c3        1 4D0      0.002000
     31 O2'      -124.8580  196.4210  178.3340 oh        1 4D0     -0.344000
     32 H1        128.0910 -199.6830 -171.5950 ha        1 4D0      0.158000
     33 H2        127.7000 -196.4510 -174.4530 ha        1 4D0      0.158000
     34 H3        129.4310 -197.5070 -175.8860 ha        1 4D0      0.132500
     35 H4        125.8220 -199.2580 -171.5580 ha        1 4D0      0.133500
     36 H5        124.0840 -198.1990 -170.1280 ha        1 4D0      0.144500
     37 H6        127.4760 -195.3480 -172.4270 ha        1 4D0      0.133500
     38 H7        125.7330 -194.2980 -170.9970 ha        1 4D0      0.144500
     39 H8        124.0340 -195.7190 -169.8440 ha        1 4D0      0.146000
     40 H9        129.8150 -200.7450 -173.0310 ha        1 4D0      0.132500
     41 H10       130.7180 -200.9480 -175.3040 hc        1 4D0      0.121000
     42 H11       130.5840 -199.5690 -176.4870 hc        1 4D0      0.121000
     43 H12       132.2020 -198.2000 -175.0850 hc        1 4D0      0.215000
     44 H13       132.3320 -199.5840 -173.8910 hc        1 4D0      0.215000
     45 H14      -129.9350  196.5250  179.1930 hn        1 4D0      0.291000
     46 H15      -126.4120  196.7810  180.1870 hn        1 4D0      0.278000
     47 H16      -127.2300  197.5360  177.9840 hx        1 4D0      0.160000
     48 H17      -128.5820  196.8940  176.0980 h1        1 4D0      0.118000
     49 H18      -130.0000  195.0120  175.0540 h1        1 4D0      0.117500
     50 H19      -129.8440  194.0820  176.6380 h1        1 4D0      0.117500
     51 H20      -131.2380  196.4530  176.1690 ho        1 4D0      0.218000
     52 H21      -127.3190  194.0330  175.9760 h1        1 4D0      0.120000
     53 H22      -127.8850  194.7020  173.9500 ho        1 4D0      0.228000
     54 H23      -125.9220  196.8270  175.8930 h1        1 4D0      0.119000
     55 H24      -124.8810  195.0420  174.8640 ho        1 4D0      0.248000
     56 H25      -125.9400  194.6500  178.1450 h1        1 4D0      0.126000
     57 H26      -124.0720  196.1630  177.8250 ho        1 4D0      0.269000
     58 H42      -130.4010  197.7230  180.3440 hn        1 4D0      0.291000
     59 H121     -127.4590  195.4680  180.1330 hn        1 4D0      0.278000
@<TRIPOS>BOND
     1    1   10 1   
     2    1   11 1   
     3    1   32 1   
     4    2    3 1   
     5    2   10 1   
     6    2   33 1   
     7    3   12 1   
     8    3   34 1   
     9    4    5 1   
    10    4    7 1   
    11    4   10 1   
    12    5    6 1   
    13    5   35 1   
    14    6    9 1   
    15    6   36 1   
    16    7    8 1   
    17    7   37 1   
    18    8    9 1   
    19    8   38 1   
    20    9   39 1   
    21   11   12 1   
    22   11   40 1   
    23   12   13 1   
    24   13   14 1   
    25   13   41 1   
    26   13   42 1   
    27   14   15 1   
    28   14   43 1   
    29   14   44 1   
    30   15   16 1   
    31   17   18 1   
    32   17   45 1   
    33   17   58 1   
    34   18   19 1   
    35   18   20 1   
    36   20   21 1   
    37   20   46 1   
    38   20   59 1   
    39   21   22 1   
    40   21   30 1   
    41   21   47 1   
    42   22   23 1   
    43   23   24 1   
    44   23   26 1   
    45   23   48 1   
    46   24   25 1   
    47   24   49 1   
    48   24   50 1   
    49   25   51 1   
    50   26   27 1   
    51   26   28 1   
    52   26   52 1   
    53   27   53 1   
    54   28   29 1   
    55   28   30 1   
    56   28   54 1   
    57   29   55 1   
    58   30   31 1   
    59   30   56 1   
    60   31   57 1   
@<TRIPOS>SUBSTRUCTURE
     1 4D0         1 TEMP              0 ****  ****    0 ROOT
