@<TRIPOS>MOLECULE
4D1
   56    56     1     0     0
SMALL
bcc


@<TRIPOS>ATOM
      1 C14     -1301.0020  248.4320  581.1780 ca        1 4D1     -0.027500
      2 C5      -1304.4650  250.8240  579.5050 c1        1 4D1      0.431000
      3 C11     -1301.0430  248.2930  578.3880 ca        1 4D1     -0.151000
      4 C7      -1304.0660  250.5810  580.7820 c2        1 4D1     -0.348000
      5 C8      -1302.9910  249.8280  581.2090 c2        1 4D1      0.192000
      6 C9      -1302.0280  249.1090  580.4630 ca        1 4D1     -0.194000
      7 C10     -1302.0190  249.0160  579.0500 ca        1 4D1     -0.027500
      8 C12     -1300.0300  247.6290  579.1060 ca        1 4D1      0.078000
      9 C13     -1300.0270  247.7110  580.5090 ca        1 4D1     -0.151000
     10 N1       1139.0580 -215.0190 -506.2070 ny        1 4D1     -0.100000
     11 C16     -1297.6010  247.4270  578.6500 c3        1 4D1     -0.213000
     12 C15     -1298.9800  246.8520  578.3780 c3        1 4D1     -0.099000
     13 C17     -1299.0330  245.3850  578.7650 c3        1 4D1     -0.213000
     14 O6      -1304.8650  251.0790  578.4380 o         1 4D1      0.026000
     15 N4       1139.2180 -217.1660 -507.4590 nt        1 4D1     -0.366000
     16 C2       1139.7900 -216.3220 -506.5690 c2        1 4D1      0.342000
     17 O3       1140.8800 -216.4360 -505.9950 o         1 4D1     -0.257000
     18 C1'      1137.6380 -215.2320 -505.7780 c3        1 4D1      0.058000
     19 O5'      1136.9310 -215.5910 -506.9590 os        1 4D1     -0.292000
     20 C5'      1135.5860 -216.0180 -506.6720 c3        1 4D1      0.003000
     21 C6'      1135.0490 -216.4840 -508.0280 c3        1 4D1     -0.016000
     22 O6'      1135.9710 -217.4560 -508.4940 oh        1 4D1     -0.346000
     23 C4'      1134.7960 -214.8450 -506.0700 c3        1 4D1     -0.031000
     24 O4'      1133.5500 -215.2980 -505.5790 oh        1 4D1     -0.308000
     25 C3'      1135.5390 -214.2890 -504.8350 c3        1 4D1      0.005000
     26 O3'      1134.9620 -213.0730 -504.4070 oh        1 4D1     -0.319000
     27 C2'      1136.9950 -213.9450 -505.1980 c3        1 4D1      0.003000
     28 O2'      1137.7680 -213.5930 -504.0720 oh        1 4D1     -0.343000
     29 H1      -1300.9830  248.4840  582.2800 ha        1 4D1      0.139000
     30 H2      -1301.0560  248.2340  577.2870 ha        1 4D1      0.172500
     31 H3      -1304.7120  251.0680  581.5500 ha        1 4D1      0.232000
     32 H4      -1302.8700  249.7880  582.3180 ha        1 4D1      0.179000
     33 H5      -1302.7970  249.5200  578.4560 ha        1 4D1      0.139000
     34 H6      -1299.2370  247.1930  581.0810 ha        1 4D1      0.172500
     35 H7       1139.0820 -214.3860 -507.0140 hn        1 4D1      0.278500
     36 H8      -1297.3440  247.3490  579.7340 hc        1 4D1      0.091333
     37 H9      -1296.8390  246.8570  578.0640 hc        1 4D1      0.091333
     38 H10     -1297.5530  248.5000  578.3450 hc        1 4D1      0.091333
     39 H11     -1299.1770  246.9290  577.2690 hc        1 4D1      0.113000
     40 H12     -1300.0380  244.9540  578.5390 hc        1 4D1      0.091333
     41 H13     -1298.2650  244.8190  578.1830 hc        1 4D1      0.091333
     42 H14     -1298.8200  245.2520  579.8530 hc        1 4D1      0.091333
     43 H15      1138.2940 -217.0430 -507.8250 hn        1 4D1      0.292500
     44 H16      1137.6270 -216.0660 -505.0140 hx        1 4D1      0.161000
     45 H17      1135.6140 -216.8830 -505.9520 h1        1 4D1      0.128000
     46 H18      1134.0280 -216.9250 -507.8790 h1        1 4D1      0.098500
     47 H19      1135.0020 -215.6290 -508.7540 h1        1 4D1      0.098500
     48 H20      1135.5540 -217.9060 -509.2400 ho        1 4D1      0.232000
     49 H21      1134.6640 -214.0290 -506.8330 h1        1 4D1      0.119000
     50 H22      1132.9420 -215.3510 -506.3280 ho        1 4D1      0.227000
     51 H23      1135.5080 -215.0460 -504.0020 h1        1 4D1      0.120000
     52 H24      1134.0450 -213.2670 -504.1580 ho        1 4D1      0.248000
     53 H25      1137.0090 -213.1080 -505.9520 h1        1 4D1      0.127000
     54 H26      1137.2480 -212.9640 -503.5450 ho        1 4D1      0.269000
     55 H121     1139.5660 -214.5830 -505.4180 hn        1 4D1      0.278500
     56 H42      1139.7220 -218.0000 -507.6780 hn        1 4D1      0.292500
@<TRIPOS>BOND
     1    1    6 1   
     2    1    9 1   
     3    1   29 1   
     4    2    4 1   
     5    2   14 1   
     6    3    7 1   
     7    3    8 1   
     8    3   30 1   
     9    4    5 1   
    10    4   31 1   
    11    5    6 1   
    12    5   32 1   
    13    6    7 1   
    14    7   33 1   
    15    8    9 1   
    16    8   12 1   
    17    9   34 1   
    18   10   16 1   
    19   10   18 1   
    20   10   35 1   
    21   10   55 1   
    22   11   12 1   
    23   11   36 1   
    24   11   37 1   
    25   11   38 1   
    26   12   13 1   
    27   12   39 1   
    28   13   40 1   
    29   13   41 1   
    30   13   42 1   
    31   15   16 1   
    32   15   43 1   
    33   15   56 1   
    34   16   17 1   
    35   18   19 1   
    36   18   27 1   
    37   18   44 1   
    38   19   20 1   
    39   20   21 1   
    40   20   23 1   
    41   20   45 1   
    42   21   22 1   
    43   21   46 1   
    44   21   47 1   
    45   22   48 1   
    46   23   24 1   
    47   23   25 1   
    48   23   49 1   
    49   24   50 1   
    50   25   26 1   
    51   25   27 1   
    52   25   51 1   
    53   26   52 1   
    54   27   28 1   
    55   27   53 1   
    56   28   54 1   
@<TRIPOS>SUBSTRUCTURE
     1 4D1         1 TEMP              0 ****  ****    0 ROOT
