@<TRIPOS>MOLECULE
4D1
   56    56     1     0     0
SMALL
bcc


@<TRIPOS>ATOM
      1 C14     -1309.1690  256.4550  585.1870 ca        1 4D1     -0.027500
      2 C5      -1306.2670  255.4760  584.9160 c1        1 4D1      0.431000
      3 C11     -1311.4610  255.9530  586.7040 ca        1 4D1     -0.151000
      4 C7      -1306.7250  254.6910  585.9280 c2        1 4D1     -0.348000
      5 C8      -1307.9840  254.6800  586.4940 c2        1 4D1      0.192000
      6 C9      -1309.1250  255.4580  586.1930 ca        1 4D1     -0.195000
      7 C10     -1310.3070  255.2260  586.9480 ca        1 4D1     -0.027500
      8 C12     -1311.4900  256.9390  585.7030 ca        1 4D1      0.078000
      9 C13     -1310.3240  257.1770  584.9490 ca        1 4D1     -0.151000
     10 N1       1147.0730 -223.7360 -510.2750 n4        1 4D1     -0.100000
     11 C16     -1312.5130  259.1970  585.7010 c3        1 4D1     -0.213000
     12 C15     -1312.7400  257.7180  585.4480 c3        1 4D1     -0.099000
     13 C17     -1313.2370  257.4870  584.0320 c3        1 4D1     -0.213000
     14 O6      -1305.8040  256.1120  584.0540 o         1 4D1      0.026000
     15 N4       1146.4450 -225.9000 -511.3380 n         1 4D1     -0.366000
     16 C2       1146.9800 -225.2720 -510.2650 c2        1 4D1      0.342000
     17 O3       1147.4520 -225.7750 -509.2390 o         1 4D1     -0.257000
     18 C1'      1145.7730 -223.0620 -510.5920 c3        1 4D1      0.058000
     19 O5'      1145.5440 -223.3030 -511.9750 os        1 4D1     -0.292000
     20 C5'      1144.2310 -222.8780 -512.3860 c3        1 4D1      0.003000
     21 C6'      1144.1320 -223.3400 -513.8420 c3        1 4D1     -0.016000
     22 O6'      1144.4060 -224.7320 -513.8240 oh        1 4D1     -0.346000
     23 C4'      1144.1110 -221.3560 -512.2160 c3        1 4D1     -0.031000
     24 O4'      1142.7690 -220.9490 -512.4000 oh        1 4D1     -0.308000
     25 C3'      1144.4560 -220.9590 -510.7630 c3        1 4D1      0.005000
     26 O3'      1144.5810 -219.5580 -510.6400 oh        1 4D1     -0.319000
     27 C2'      1145.8310 -221.5280 -510.3670 c3        1 4D1      0.003000
     28 O2'      1146.1230 -221.3430 -509.0000 oh        1 4D1     -0.343000
     29 H1      -1308.2770  256.6690  584.5790 ha        1 4D1      0.139000
     30 H2      -1312.3670  255.7560  587.3030 ha        1 4D1      0.172000
     31 H3      -1305.9580  253.9820  586.3230 ha        1 4D1      0.232000
     32 H4      -1308.1100  253.9360  587.3170 ha        1 4D1      0.179000
     33 H5      -1310.3040  254.4560  587.7390 ha        1 4D1      0.139000
     34 H6      -1310.3410  257.9510  584.1620 ha        1 4D1      0.172000
     35 H7       1147.7840 -223.4480 -510.9550 hn        1 4D1      0.278500
     36 H8      -1311.7470  259.6080  585.0000 hc        1 4D1      0.091333
     37 H9      -1313.4700  259.7530  585.5430 hc        1 4D1      0.091333
     38 H10     -1312.1710  259.3700  586.7490 hc        1 4D1      0.091333
     39 H11     -1313.5400  257.3610  586.1610 hc        1 4D1      0.116000
     40 H12     -1313.4270  256.4020  583.8520 hc        1 4D1      0.091333
     41 H13     -1314.1940  258.0450  583.8780 hc        1 4D1      0.091333
     42 H14     -1312.4930  257.8510  583.2840 hc        1 4D1      0.091333
     43 H15      1146.0120 -225.4190 -512.1030 hn        1 4D1      0.292500
     44 H16      1144.9700 -223.5330 -509.9480 hx        1 4D1      0.161000
     45 H17      1143.4560 -223.4050 -511.7620 h1        1 4D1      0.128000
     46 H18      1143.0950 -223.1310 -514.2160 h1        1 4D1      0.098500
     47 H19      1144.8900 -222.8130 -514.4800 h1        1 4D1      0.098500
     48 H20      1144.1520 -225.0800 -514.6890 ho        1 4D1      0.232000
     49 H21      1144.8010 -220.8260 -512.9280 h1        1 4D1      0.119000
     50 H22      1142.6130 -220.8770 -513.3510 ho        1 4D1      0.227000
     51 H23      1143.6570 -221.3390 -510.0660 h1        1 4D1      0.120000
     52 H24      1143.7210 -219.1760 -510.8720 ho        1 4D1      0.248000
     53 H25      1146.6330 -221.0540 -511.0010 h1        1 4D1      0.127000
     54 H26      1145.9080 -220.4230 -508.7770 ho        1 4D1      0.269000
     55 H121     1147.3650 -223.4350 -509.3290 hn        1 4D1      0.278500
     56 H42      1146.4060 -226.8970 -511.3040 hn        1 4D1      0.292500
@<TRIPOS>BOND
     1    1    6 1   
     2    1    9 1   
     3    1   29 1   
     4    2    4 1   
     5    2   14 1   
     6    3    7 1   
     7    3    8 1   
     8    3   30 1   
     9    4    5 1   
    10    4   31 1   
    11    5    6 1   
    12    5   32 1   
    13    6    7 1   
    14    7   33 1   
    15    8    9 1   
    16    8   12 1   
    17    9   34 1   
    18   10   16 1   
    19   10   18 1   
    20   10   35 1   
    21   10   55 1   
    22   11   12 1   
    23   11   36 1   
    24   11   37 1   
    25   11   38 1   
    26   12   13 1   
    27   12   39 1   
    28   13   40 1   
    29   13   41 1   
    30   13   42 1   
    31   15   16 1   
    32   15   43 1   
    33   15   56 1   
    34   16   17 1   
    35   18   19 1   
    36   18   27 1   
    37   18   44 1   
    38   19   20 1   
    39   20   21 1   
    40   20   23 1   
    41   20   45 1   
    42   21   22 1   
    43   21   46 1   
    44   21   47 1   
    45   22   48 1   
    46   23   24 1   
    47   23   25 1   
    48   23   49 1   
    49   24   50 1   
    50   25   26 1   
    51   25   27 1   
    52   25   51 1   
    53   26   52 1   
    54   27   28 1   
    55   27   53 1   
    56   28   54 1   
@<TRIPOS>SUBSTRUCTURE
     1 4D1         1 TEMP              0 ****  ****    0 ROOT
