@<TRIPOS>MOLECULE
4D2
   51    53     1     0     0
SMALL
bcc


@<TRIPOS>ATOM
      1 C1          6.1920   -2.4210    0.2880 ca        1 4D2     -0.263300
      2 C2          5.1430   -2.1430   -0.5880 ca        1 4D2     -0.048000
      3 C3         -2.6510   -0.7860   -1.9490 ca        1 4D2     -0.152000
      4 C4         -3.5670   -1.7990   -1.6140 ca        1 4D2     -0.145000
      5 C5          6.2700   -1.6970    1.4910 ca        1 4D2      0.400200
      6 C6          4.3730   -0.4880    0.9950 ca        1 4D2      0.422200
      7 C7          4.2050   -1.1650   -0.2310 ca        1 4D2     -0.247900
      8 C8         -2.7810    0.2410    0.2810 ca        1 4D2     -0.072600
      9 C9         -2.2680    0.2040   -1.0410 ca        1 4D2     -0.071300
     10 C10        -4.0680   -1.7580   -0.3310 ca        1 4D2      0.033100
     11 C11        -3.6820   -0.7580    0.5990 ca        1 4D2      0.065100
     12 C12         3.0940   -0.8510   -1.1770 c         1 4D2      0.665700
     13 C14        -5.1760   -2.1460    1.6170 c3        1 4D2      0.319200
     14 C17        -1.3220    1.2730   -1.4770 c3        1 4D2     -0.027100
     15 C18         0.9150    2.3560   -1.1420 c3        1 4D2     -0.068400
     16 C19         0.7350   -0.1500   -1.4210 c3        1 4D2      0.086000
     17 C20         1.6160    2.8770    0.1060 c3        1 4D2     -0.059700
     18 C21         0.0690    1.1190   -0.8680 c3        1 4D2     -0.106700
     19 N22         5.3860   -0.7430    1.8450 nb        1 4D2     -0.670000
     20 N23         1.8590   -0.6000   -0.6370 n         1 4D2     -0.538900
     21 O24        -1.3820    1.0460    2.0370 o         1 4D2     -0.817800
     22 O25         3.2940   -0.8800   -2.4130 o         1 4D2     -0.632100
     23 O26        -2.9180    2.4390    1.2060 o         1 4D2     -0.817800
     24 O27        -4.9850   -2.6240    0.2680 os        1 4D2     -0.357900
     25 O28        -4.3560   -0.9800    1.8040 os        1 4D2     -0.314900
     26 H1          6.9440   -3.1830    0.0470 ha        1 4D2      0.138000
     27 H2          5.0430   -2.6670   -1.5510 ha        1 4D2      0.157000
     28 H5          7.0840   -1.8850    2.2130 h4        1 4D2      0.015100
     29 H3         -2.2280   -0.7810   -2.9640 ha        1 4D2      0.118000
     30 H4         -3.8620   -2.5700   -2.3330 ha        1 4D2      0.130000
     31 H6          3.6730    0.3080    1.3150 h4        1 4D2      0.039100
     32 H171       -1.2420    1.2910   -2.5950 hc        1 4D2      0.055700
     33 H172       -1.7440    2.2610   -1.1360 hc        1 4D2      0.055700
     34 H23         1.7650   -0.5220    0.3510 hn        1 4D2      0.321500
     35 H141       -6.2490   -1.8570    1.7430 h2        1 4D2      0.050700
     36 H142       -4.8410   -2.9420    2.3270 h2        1 4D2      0.050700
     37 H151        3.2420    4.2180    0.6280 hc        1 4D2      0.037367
     38 H152        3.4930    3.3000   -0.9150 hc        1 4D2      0.037367
     39 H153        2.3290    4.6870   -0.8640 hc        1 4D2      0.037367
     40 H20         2.0700    2.0020    0.6540 hc        1 4D2      0.031700
     41 H161        0.2000    4.4670    0.5430 hc        1 4D2      0.037367
     42 H162       -0.1970    2.8780    1.3290 hc        1 4D2      0.037367
     43 H163        1.1670    3.8980    1.9650 hc        1 4D2      0.037367
     44 H21        -0.0790    1.0080    0.2520 hc        1 4D2      0.123700
     45 H181        0.2700    3.1780   -1.5540 hc        1 4D2      0.034200
     46 H182        1.6850    2.1260   -1.9260 hc        1 4D2      0.034200
     47 H191       -0.0320   -0.9800   -1.4250 h1        1 4D2      0.059200
     48 H192        1.0700    0.0200   -2.4830 h1        1 4D2      0.059200
     49 C13        -2.3400    1.3220    1.2600 c         1 4D2      0.922200
     50 C15         2.7350    3.8230   -0.2840 c3        1 4D2     -0.100600
     51 C16         0.6420    3.5680    1.0370 c3        1 4D2     -0.100600
@<TRIPOS>BOND
     1    1    2 ar  
     2    1    5 ar  
     3    1   26 1   
     4    2    7 ar  
     5    2   27 1   
     6    3    4 ar  
     7    3    9 ar  
     8    3   29 1   
     9    4   10 ar  
    10    4   30 1   
    11    5   19 ar  
    12    5   28 1   
    13    6    7 ar  
    14    6   19 ar  
    15    6   31 1   
    16    7   12 1   
    17    8    9 ar  
    18    8   11 ar  
    19    8   49 1   
    20    9   14 1   
    21   10   11 ar  
    22   10   24 1   
    23   11   25 1   
    24   12   20 1   
    25   12   22 2   
    26   13   24 1   
    27   13   25 1   
    28   13   35 1   
    29   13   36 1   
    30   14   18 1   
    31   14   32 1   
    32   14   33 1   
    33   15   17 1   
    34   15   18 1   
    35   15   45 1   
    36   15   46 1   
    37   16   18 1   
    38   16   20 1   
    39   16   47 1   
    40   16   48 1   
    41   17   40 1   
    42   17   50 1   
    43   17   51 1   
    44   18   44 1   
    45   20   34 1   
    46   21   49 1   
    47   23   49 1   
    48   37   50 1   
    49   38   50 1   
    50   39   50 1   
    51   41   51 1   
    52   42   51 1   
    53   43   51 1   
@<TRIPOS>SUBSTRUCTURE
     1 4D2         1 TEMP              0 ****  ****    0 ROOT
