@<TRIPOS>MOLECULE
4D2
   51    47     1     0     0
SMALL
bcc


@<TRIPOS>ATOM
      1 C1         -4.1380   -4.2260    1.5340 c1        1 4D2     -0.078000
      2 C2         -3.5430   -3.1350    1.0080 c1        1 4D2      0.005500
      3 C3          2.3370    2.2360    0.5020 c1        1 4D2     -0.091500
      4 C4          3.6590    2.1160    0.8840 c1        1 4D2     -0.079500
      5 C5         -3.8230   -5.4640    1.0640 c1        1 4D2     -0.078000
      6 C6         -2.3110   -4.5230   -0.4680 c1        1 4D2      0.348300
      7 C7         -2.6250   -3.2740    0.0030 cg        1 4D2     -0.137200
      8 C8          1.6880    0.5840    2.1820 cg        1 4D2     -0.036200
      9 C9          1.3420    1.4730    1.1450 c1        1 4D2     -0.030100
     10 C10         4.0210    1.2220    1.9280 c1        1 4D2      0.016600
     11 C11         3.0240    0.4580    2.5730 c1        1 4D2      0.048600
     12 C12        -1.5480   -2.2980   -0.5060 c         1 4D2      0.619300
     13 C13         0.5460   -0.1280    3.0250 c         1 4D2      0.876800
     14 C14         4.9830    0.1240    3.6550 c3        1 4D2      0.319200
     15 C15         1.2490    2.1410   -3.4410 c3        1 4D2     -0.087100
     16 C16        -1.1720    2.3830   -4.1220 c3        1 4D2     -0.087100
     17 C17        -0.1600    1.6450    0.7270 c3        1 4D2     -0.073300
     18 C18        -0.5450    2.2250   -1.6610 c3        1 4D2     -0.069400
     19 C19        -1.6390    0.2090   -0.7100 c3        1 4D2      0.097000
     20 C20        -0.1980    1.7350   -3.1080 c3        1 4D2     -0.075700
     21 C21        -0.3730    1.0900   -0.6940 c3        1 4D2     -0.090700
     22 N22        -2.9010   -5.6030    0.0540 n1        1 4D2     -0.498800
     23 N23        -1.4020   -1.0220    0.0950 n         1 4D2     -0.546900
     24 O24        -0.1010    0.5320    3.8950 o         1 4D2     -0.820800
     25 O25        -0.8990   -2.5820   -1.4270 o         1 4D2     -0.667100
     26 O26         0.3730   -1.4160    2.9260 o         1 4D2     -0.820800
     27 O27         5.1860    1.1210    2.6800 os        1 4D2     -0.338400
     28 O28         3.6260   -0.2290    3.6290 os        1 4D2     -0.301400
     29 H1         -4.8000   -4.1250    2.2590 ha        1 4D2      0.086000
     30 H2         -3.7620   -2.2720    1.3350 ha        1 4D2      0.161500
     31 H5         -4.2190   -6.1910    1.4130 ha        1 4D2      0.086000
     32 H3          2.0760    2.8800   -0.2550 ha        1 4D2      0.064500
     33 H4          4.3580    2.6580    0.4270 ha        1 4D2      0.075500
     34 H6         -1.6980   -4.6180   -1.1390 ha        1 4D2      0.116500
     35 H171       -0.7530    1.1400    1.3760 hc        1 4D2      0.063700
     36 H172       -0.3770    2.5300    0.7420 hc        1 4D2      0.063700
     37 H23        -1.1410   -0.9570    0.9370 hn        1 4D2      0.373500
     38 H141        5.2150    0.5070    4.5940 h2        1 4D2      0.052200
     39 H142        5.5300   -0.6700    3.4270 h2        1 4D2      0.052200
     40 H151        1.3670    3.1400   -3.2840 hc        1 4D2      0.028533
     41 H152        1.8940    1.6240   -2.8380 hc        1 4D2      0.028533
     42 H153        1.4330    1.9410   -4.3400 hc        1 4D2      0.028533
     43 H20        -0.2910    0.6720   -3.1590 hc        1 4D2      0.065700
     44 H161       -2.0820    1.8650   -4.1080 hc        1 4D2      0.028533
     45 H162       -0.7930    2.3400   -5.0090 hc        1 4D2      0.028533
     46 H163       -1.3320    3.3730   -3.8610 hc        1 4D2      0.028533
     47 H21         0.4530    0.5180   -0.9710 hc        1 4D2      0.064700
     48 H181       -1.5310    2.5590   -1.6320 hc        1 4D2      0.036200
     49 H182        0.0720    2.9790   -1.4070 hc        1 4D2      0.036200
     50 H191       -1.8400   -0.0250   -1.5780 h1        1 4D2      0.052200
     51 H192       -2.4340    0.7390   -0.3030 h1        1 4D2      0.052200
@<TRIPOS>BOND
     1    1    5 3   
     2    1   29 1   
     3    2    7 3   
     4    2   30 1   
     5    3    9 3   
     6    3   32 1   
     7    4   10 3   
     8    4   33 1   
     9    5   31 1   
    10    6   22 3   
    11    6   34 1   
    12    7   12 1   
    13    8   11 3   
    14    8   13 1   
    15    9   17 1   
    16   10   27 1   
    17   11   28 1   
    18   12   23 1   
    19   12   25 2   
    20   13   24 1   
    21   13   26 1   
    22   14   27 1   
    23   14   28 1   
    24   14   38 1   
    25   14   39 1   
    26   15   20 1   
    27   15   40 1   
    28   15   41 1   
    29   15   42 1   
    30   16   20 1   
    31   16   44 1   
    32   16   45 1   
    33   16   46 1   
    34   17   21 1   
    35   17   35 1   
    36   17   36 1   
    37   18   20 1   
    38   18   21 1   
    39   18   48 1   
    40   18   49 1   
    41   19   21 1   
    42   19   23 1   
    43   19   50 1   
    44   19   51 1   
    45   20   43 1   
    46   21   47 1   
    47   23   37 1   
@<TRIPOS>SUBSTRUCTURE
     1 4D2         1 TEMP              0 ****  ****    0 ROOT
