@<TRIPOS>MOLECULE
4D2
   52    49     1     0     0
SMALL
bcc


@<TRIPOS>ATOM
      1 C1          0.0330   -0.0480   -0.4250 c2        1 4D2     -0.535000
      2 C2          0.6270   -0.8020    0.6050 c1        1 4D2     -0.055000
      3 C3          7.2800    1.4500    3.5250 c3        1 4D2     -0.147000
      4 C4          8.2930    1.8470    2.5260 c2        1 4D2     -0.078000
      5 C5         -1.2240   -0.1920   -0.8210 c1        1 4D2      0.364000
      6 C6          2.2130   -0.9440    2.4910 c1        1 4D2     -0.188000
      7 C7          2.0100   -0.6160    1.0360 c3        1 4D2     -0.190000
      8 C8          8.1380    3.2830    4.9900 c2        1 4D2     -0.262000
      9 C9          7.3300    2.2000    4.8140 c2        1 4D2      0.104000
     10 C10         9.0880    2.9130    2.7150 c2        1 4D2     -0.184000
     11 C11         9.0130    3.7680    3.9080 c2        1 4D2      0.309000
     12 C12         2.6550    0.7230    0.6760 c2        1 4D2      0.308000
     13 C14        10.4340    4.3290    1.3290 c1        1 4D2     -0.008000
     14 C17         6.4440    1.7070    5.8590 c2        1 4D2     -0.127000
     15 C18         5.1280   -0.5450    5.8070 c2        1 4D2     -0.137000
     16 C19         3.6760    2.8210    1.4600 c3        1 4D2     -0.078000
     17 C20         3.7450   -0.7150    5.2920 c3        1 4D2     -0.238000
     18 C21         5.7840    0.5790    5.7940 c1        1 4D2     -0.119000
     19 N22         1.4250   -1.7500    3.1340 n3        1 4D2     -0.216000
     20 N23         3.0370    1.5660    1.6920 n         1 4D2     -0.366000
     21 O24         8.3510    5.3430    6.3440 oh        1 4D2     -0.280000
     22 O25         2.7910    1.0490   -0.5260 o         1 4D2     -0.406000
     23 O26         8.1440    3.4690    7.4060 o         1 4D2     -0.313000
     24 O27        10.1000    3.1780    1.7430 os        1 4D2     -0.009000
     25 O28         9.6420    4.8360    3.9820 o         1 4D2     -0.318000
     26 H1          0.6430    0.7160   -0.9810 ha        1 4D2      0.218000
     27 H2          2.5980   -1.4040    0.4540 hc        1 4D2      0.186000
     28 H5          1.6310   -1.9530    4.1050 hn        1 4D2      0.232000
     29 H3          6.2530    1.5810    3.0720 hc        1 4D2      0.140500
     30 H4          8.3670    1.2260    1.6180 ha        1 4D2      0.163000
     31 H6          0.6140   -2.1850    2.7380 hn        1 4D2      0.232000
     32 H171        6.3590    2.3300    6.7760 ha        1 4D2      0.188000
     33 H172        7.3970    0.3490    3.7460 hc        1 4D2      0.140500
     34 H23         3.0010    1.2220    2.6250 hn        1 4D2      0.243000
     35 H141        9.9700    5.2680    1.6840 ha        1 4D2      0.069000
     36 H142        8.5150    5.7230    5.4680 ho        1 4D2      0.250000
     37 H151        3.5680   -3.6590    3.9490 hc        1 4D2      0.068750
     38 H152        3.7260   -0.6180    4.1470 hc        1 4D2      0.190500
     39 H153        5.2390   -4.3780    3.9810 hc        1 4D2      0.068750
     40 H20         3.8490   -5.3390    3.3180 hc        1 4D2      0.068750
     41 H161        3.5710   -2.7120    6.1790 ha        1 4D2      0.063000
     42 H162        3.9560   -5.0090    5.1010 hc        1 4D2      0.068750
     43 H163        3.0770    0.1280    5.6480 hc        1 4D2      0.190500
     44 H21         5.6090   -1.4560    6.2160 ha        1 4D2      0.155000
     45 H181        5.5970   -3.8480    6.2790 ha        1 4D2      0.001000
     46 H182        5.9020   -3.6800    6.8610 ha        1 4D2      0.001000
     47 H191        3.1730    3.6180    2.0720 h1        1 4D2      0.080333
     48 H192        4.7600    2.7750    1.7570 h1        1 4D2      0.080333
     49 C15         4.1540   -4.5970    4.0880 c3        1 4D2     -0.271000
     50 C16         3.0600   -1.9440    5.5810 c1        1 4D2     -0.094000
     51 H232        3.6120    3.0960    0.3730 h1        1 4D2      0.080333
     52 C13         8.2150    3.9900    6.2890 c2        1 4D2      0.355000
@<TRIPOS>BOND
     1    1    2 1   
     2    1    5 1   
     3    1   26 1   
     4    2    7 1   
     5    3    4 1   
     6    3    9 1   
     7    3   29 1   
     8    3   33 1   
     9    4   10 1   
    10    4   30 1   
    11    6    7 1   
    12    6   19 1   
    13    7   12 1   
    14    7   27 1   
    15    8    9 1   
    16    8   11 1   
    17    8   52 1   
    18    9   14 1   
    19   10   11 1   
    20   10   24 1   
    21   11   25 1   
    22   12   20 1   
    23   12   22 1   
    24   13   24 1   
    25   13   35 1   
    26   14   18 1   
    27   14   32 1   
    28   15   17 1   
    29   15   18 1   
    30   15   44 1   
    31   16   20 1   
    32   16   47 1   
    33   16   48 1   
    34   16   51 1   
    35   17   38 1   
    36   17   43 1   
    37   17   50 1   
    38   19   28 1   
    39   19   31 1   
    40   20   34 1   
    41   21   36 1   
    42   21   52 1   
    43   23   52 1   
    44   37   49 1   
    45   39   49 1   
    46   40   49 1   
    47   41   50 1   
    48   42   49 1   
    49   45   46 1   
@<TRIPOS>SUBSTRUCTURE
     1 4D2         1 TEMP              0 ****  ****    0 ROOT
