@<TRIPOS>MOLECULE
4D5
   72    75     1     0     0
SMALL
bcc


@<TRIPOS>ATOM
      1 C13         1.0050   -0.7470   -0.2470 c2        1 4D5      0.032000
      2 C17        -0.7010   -2.2820   -1.1570 c2        1 4D5      0.409000
      3 C15         0.5110    0.7770    1.6750 c3        1 4D5     -0.181000
      4 C20         6.6350    2.1360    4.4680 c2        1 4D5      0.314000
      5 C21         7.4820    3.0300    3.6870 c2        1 4D5     -0.276000
      6 C23         8.1300    2.5530    2.6020 c2        1 4D5      0.087000
      7 C24         8.9340    3.4110    1.7400 c2        1 4D5     -0.142000
      8 C11         2.8260    0.3760    0.9300 c2        1 4D5     -0.075000
      9 C12         2.3480   -0.4250   -0.1550 c2        1 4D5     -0.155000
     10 C27         8.7900    3.4480    0.3770 c2        1 4D5     -0.002000
     11 C33         7.8080    2.4520   -1.7300 c2        1 4D5     -0.082000
     12 C1          3.6380    2.1590    4.8460 c2        1 4D5     -0.180000
     13 N2          2.8410    3.2450    4.6290 n2        1 4D5     -0.099000
     14 C3          2.1030    2.9460    3.4940 c2        1 4D5     -0.117000
     15 C4          2.4630    1.6510    2.9970 c2        1 4D5      0.016000
     16 N5          3.4440    1.1780    3.8640 na        1 4D5     -0.149000
     17 C6          4.6180    2.0380    5.9710 c3        1 4D5      0.056000
     18 N7          5.8780    2.7890    5.5980 n4        1 4D5     -0.118000
     19 C8          3.9890    2.5660    7.2660 c3        1 4D5     -0.202000
     20 C10         1.9800    0.9210    1.8450 c2        1 4D5     -0.123000
     21 C14         0.0510   -0.0230    0.5590 c1        1 4D5     -0.029000
     22 N16         0.5530   -1.6770   -1.1800 n         1 4D5     -0.291000
     23 O18        -1.3430   -2.3010    0.0570 os        1 4D5     -0.245000
     24 O19        -1.2140   -2.8510   -2.1320 o         1 4D5     -0.375000
     25 O22         6.4580    0.9300    4.3100 o         1 4D5     -0.229000
     26 C25         4.8990    2.3530    8.4660 c2        1 4D5      0.298000
     27 C26        -2.6520   -2.8850    0.0320 c3        1 4D5     -0.056000
     28 C28         9.6560    4.3910   -0.4280 c3        1 4D5     -0.008000
     29 C29        10.2690    5.3480    0.4460 c1        1 4D5     -0.188000
     30 C30        10.7600    6.2020    1.1420 c1        1 4D5     -0.085000
     31 C31         9.7790    4.3250    2.4480 c1        1 4D5     -0.018000
     32 N32         7.8230    2.7060   -0.3370 na        1 4D5     -0.137000
     33 N34         6.7050    2.1250    0.1810 n2        1 4D5     -0.052000
     34 N35         6.0780    1.5670   -0.7800 n2        1 4D5     -0.038000
     35 N36         6.6860    1.7260   -1.9610 n2        1 4D5     -0.085000
     36 CL3        11.4230    7.3300    2.0390 cl        1 4D5      0.235000
     37 O38         6.1370    2.2050    8.2780 o         1 4D5     -0.442000
     38 N39         4.3780    2.3500    9.7290 n         1 4D5     -0.286000
     39 C40         5.2230    2.0320   10.8680 c3        1 4D5     -0.070000
     40 C41         4.8680    2.8430   12.1200 c3        1 4D5     -0.038000
     41 O42         3.4730    2.7940   12.3910 os        1 4D5     -0.248000
     42 C43         2.7030    3.2980   11.3100 c3        1 4D5     -0.038000
     43 C44         2.9670    2.5200   10.0090 c3        1 4D5     -0.070000
     44 H53         0.0330    0.3470    2.6070 hc        1 4D5      0.177500
     45 H55         7.5540    4.0930    3.9740 ha        1 4D5      0.184000
     46 H56         8.0710    1.4820    2.3200 ha        1 4D5      0.179000
     47 H50         3.9180    0.5180    0.9960 ha        1 4D5      0.146000
     48 H51         3.0930   -0.7770   -0.8880 ha        1 4D5      0.155000
     49 H45         3.9150    0.3090    3.7990 hn        1 4D5      0.280000
     50 H46         5.6350    3.7490    5.3350 hn        1 4D5      0.277000
     51 H47         4.9300    0.9590    6.1280 hx        1 4D5      0.171000
     52 H48         3.7390    3.6580    7.1870 hc        1 4D5      0.155500
     53 H49         3.0210    2.0050    7.3920 hc        1 4D5      0.155500
     54 H52         0.0430    1.8030    1.5410 hc        1 4D5      0.177500
     55 H54         1.0830   -1.8160   -2.0130 hn        1 4D5      0.257000
     56 H58        -3.3070   -2.3240   -0.6760 h1        1 4D5      0.097000
     57 H59        -2.9960   -2.7740    1.0900 h1        1 4D5      0.097000
     58 H57        -2.5830   -3.9580   -0.2710 h1        1 4D5      0.097000
     59 H60         9.0410    4.9380   -1.2010 hc        1 4D5      0.136500
     60 H61        10.4460    3.7980   -0.9740 hc        1 4D5      0.136500
     61 H62        10.8170    4.0590    2.6790 ha        1 4D5      0.110000
     62 H64         6.3010    2.2210   10.6000 h1        1 4D5      0.110750
     63 H65         5.0980    0.9340   11.0970 h1        1 4D5      0.110750
     64 H66         5.1990    3.9100   12.0140 h1        1 4D5      0.110250
     65 H67         5.3460    2.3770   13.0220 h1        1 4D5      0.110250
     66 H69         2.9160    4.3900   11.1650 h1        1 4D5      0.110250
     67 H68         1.6370    3.1490   11.6280 h1        1 4D5      0.110250
     68 H71         2.4650    3.0800    9.1720 h1        1 4D5      0.110750
     69 H70         2.4950    1.4980   10.0950 h1        1 4D5      0.110750
     70 H72         6.4960    2.8090    6.4350 hn        1 4D5      0.277000
     71 CL9         0.9850    3.9950    2.8280 cl        1 4D5      0.098000
     72 H63         8.5700    2.7840   -2.4420 h5        1 4D5      0.235000
@<TRIPOS>BOND
     1    1    9 1   
     2    1   21 1   
     3    1   22 1   
     4    2   22 1   
     5    2   23 1   
     6    2   24 1   
     7    3   20 1   
     8    3   21 1   
     9    3   44 1   
    10    3   54 1   
    11    4    5 1   
    12    4   18 1   
    13    4   25 1   
    14    5    6 1   
    15    5   45 1   
    16    6    7 1   
    17    6   46 1   
    18    7   10 1   
    19    7   31 1   
    20    8    9 1   
    21    8   20 1   
    22    8   47 1   
    23    9   48 1   
    24   10   28 1   
    25   10   32 1   
    26   11   32 1   
    27   11   35 1   
    28   11   72 1   
    29   12   13 1   
    30   12   16 1   
    31   12   17 1   
    32   13   14 1   
    33   14   15 1   
    34   14   71 1   
    35   15   16 1   
    36   15   20 1   
    37   16   49 1   
    38   17   18 1   
    39   17   19 1   
    40   17   51 1   
    41   18   50 1   
    42   18   70 1   
    43   19   26 1   
    44   19   52 1   
    45   19   53 1   
    46   22   55 1   
    47   23   27 1   
    48   26   37 1   
    49   26   38 1   
    50   27   56 1   
    51   27   57 1   
    52   27   58 1   
    53   28   29 1   
    54   28   59 1   
    55   28   60 1   
    56   29   30 1   
    57   30   36 1   
    58   31   61 1   
    59   32   33 1   
    60   33   34 1   
    61   34   35 1   
    62   38   39 1   
    63   38   43 1   
    64   39   40 1   
    65   39   62 1   
    66   39   63 1   
    67   40   41 1   
    68   40   64 1   
    69   40   65 1   
    70   41   42 1   
    71   42   43 1   
    72   42   66 1   
    73   42   67 1   
    74   43   68 1   
    75   43   69 1   
@<TRIPOS>SUBSTRUCTURE
     1 4D5         1 TEMP              0 ****  ****    0 ROOT
