@<TRIPOS>MOLECULE
4D5
   72    75     1     0     0
SMALL
bcc


@<TRIPOS>ATOM
      1 C13        -0.1000   -1.5700    0.3530 c2        1 4D5      0.128000
      2 C17        -2.0210   -2.4260   -0.7640 c2        1 4D5      0.385000
      3 C15        -0.3280    0.4520    1.7940 c3        1 4D5      0.018000
      4 C20         5.9240    2.4800    3.7880 c2        1 4D5      0.314000
      5 C21         6.6200    3.5440    3.0770 c2        1 4D5     -0.274000
      6 C23         7.3220    3.2740    1.9550 c2        1 4D5      0.082000
      7 C24         7.9890    4.3300    1.2010 c2        1 4D5     -0.196000
      8 C11         1.8310   -0.7900    1.5400 c2        1 4D5      0.038000
      9 C12         1.2830   -1.6820    0.6220 c2        1 4D5     -0.368000
     10 C27         9.2330    4.1540    0.6000 c2        1 4D5      0.159000
     11 C33        11.4970    3.0220    0.5330 c2        1 4D5     -0.058000
     12 C1          3.0910    1.8140    4.7450 c2        1 4D5     -0.240000
     13 N2          2.0870    2.7380    4.7070 n2        1 4D5     -0.089000
     14 C3          1.2060    2.2950    3.7430 c2        1 4D5     -0.180000
     15 C4          1.6670    1.0540    3.1550 c2        1 4D5      0.116000
     16 N5          2.8650    0.7810    3.8150 na        1 4D5     -0.183000
     17 C6          4.2850    1.8930    5.6280 c3        1 4D5      0.070000
     18 N7          5.2410    2.9230    5.0570 ny        1 4D5     -0.120000
     19 C8          3.8510    2.2470    7.0560 c3        1 4D5     -0.201000
     20 C10         1.1000    0.2130    2.1540 c2        1 4D5     -0.273000
     21 C14        -0.8960   -0.5960    0.9080 c2        1 4D5     -0.341000
     22 N16        -0.7130   -2.5230   -0.5270 n7        1 4D5     -0.180000
     23 O18        -2.8690   -1.5200   -0.2610 os        1 4D5     -0.223000
     24 O19        -2.6500   -3.2880   -1.5890 oh        1 4D5     -0.209000
     25 O22         5.8450    1.2900    3.4910 o         1 4D5     -0.234000
     26 C25         5.0070    2.1870    8.0360 c2        1 4D5      0.301000
     27 C26        -2.3470   -0.5020    0.6640 c3        1 4D5      0.077000
     28 C28         9.7350    5.1590   -0.4160 c3        1 4D5     -0.032000
     29 C29        10.6970    6.0640    0.1270 c1        1 4D5     -0.225000
     30 C30        11.4920    6.8520    0.5540 c1        1 4D5     -0.122000
     31 C31         7.3590    5.5780    1.2430 c1        1 4D5     -0.071000
     32 N32        10.1340    3.1420    0.9530 na        1 4D5     -0.185000
     33 N34         9.9080    2.0950    1.8140 n2        1 4D5     -0.008000
     34 N35        10.9780    1.4240    1.8980 n2        1 4D5     -0.002000
     35 N36        11.9820    1.9280    1.1470 n2        1 4D5     -0.077000
     36 Cl3        12.5520    7.8910    1.1210 cl        1 4D5      0.216000
     37 O38         6.1560    2.5270    7.6520 o         1 4D5     -0.427000
     38 N39         4.8100    1.7480    9.3280 n         1 4D5     -0.261000
     39 C40         5.9520    1.5740   10.2140 c3        1 4D5     -0.076000
     40 C41         6.0530    2.6040   11.3480 c3        1 4D5     -0.039000
     41 O42         5.0880    2.3740   12.3510 oh        1 4D5     -0.316000
     42 C43         2.3950    2.1110    9.6690 c2        1 4D5     -0.249000
     43 C44         3.5450    1.4540    9.8770 c2        1 4D5     -0.061000
     44 H53        -0.9510    0.5120    2.7320 hc        1 4D5      0.065000
     45 H55         6.5560    4.5800    3.4570 ha        1 4D5      0.186000
     46 H56         7.3700    2.2470    1.5450 ha        1 4D5      0.167000
     47 H50         2.9050   -0.9170    1.7600 ha        1 4D5      0.103000
     48 H51         1.9040   -2.4430    0.1400 ha        1 4D5      0.132000
     49 H45         3.4790    0.0290    3.6330 hn        1 4D5      0.265000
     50 H46         4.7210    3.7870    4.8640 hn        1 4D5      0.271000
     51 H47         4.8530    0.9120    5.6410 hx        1 4D5      0.158000
     52 H48         3.3990    3.2750    7.0990 hc        1 4D5      0.157000
     53 H49         3.0390    1.5140    7.3280 hc        1 4D5      0.157000
     54 H52        -0.4270    1.4490    1.2750 hc        1 4D5      0.065000
     55 H54        -0.1610   -3.2430   -0.9510 hn        1 4D5      0.296000
     56 H58        -3.6030   -3.0550   -1.6350 ho        1 4D5      0.301000
     57 H59        -2.9510   -0.6680    1.5990 h1        1 4D5      0.122500
     58 H57        -2.6380    0.4670    0.1720 h1        1 4D5      0.122500
     59 H60         8.8560    5.7370   -0.8250 hc        1 4D5      0.139500
     60 H61        10.1830    4.6060   -1.2960 hc        1 4D5      0.139500
     61 H62         7.4110    6.3380    0.4630 ha        1 4D5      0.107000
     62 H64         6.8980    1.6310    9.6020 h1        1 4D5      0.123500
     63 H65         5.8800    0.5460   10.6730 h1        1 4D5      0.123500
     64 H66         7.0410    2.4610   11.8670 h1        1 4D5      0.103500
     65 H67         5.9850    3.6520   10.9560 h1        1 4D5      0.103500
     66 H69         4.2310    2.6470   12.0020 ho        1 4D5      0.200000
     67 H68         1.4730    1.7740   10.1640 ha        1 4D5      0.137500
     68 H71         2.2810    2.9900    9.0240 ha        1 4D5      0.137500
     69 H70         3.5880    0.5970   10.5840 h4        1 4D5      0.162000
     70 H72         5.9740    3.1230    5.7630 hn        1 4D5      0.271000
     71 Cl9        -0.1780    3.1590    3.3470 cl        1 4D5      0.056000
     72 H63        12.0050    3.7170   -0.1480 h5        1 4D5      0.243000
@<TRIPOS>BOND
     1    1    9 1   
     2    1   21 1   
     3    1   22 1   
     4    2   22 1   
     5    2   23 1   
     6    2   24 1   
     7    3   20 1   
     8    3   21 1   
     9    3   44 1   
    10    3   54 1   
    11    4    5 1   
    12    4   18 1   
    13    4   25 1   
    14    5    6 1   
    15    5   45 1   
    16    6    7 1   
    17    6   46 1   
    18    7   10 1   
    19    7   31 1   
    20    8    9 1   
    21    8   20 1   
    22    8   47 1   
    23    9   48 1   
    24   10   28 1   
    25   10   32 1   
    26   11   32 1   
    27   11   35 1   
    28   11   72 1   
    29   12   13 1   
    30   12   16 1   
    31   12   17 1   
    32   13   14 1   
    33   14   15 1   
    34   14   71 1   
    35   15   16 1   
    36   15   20 1   
    37   16   49 1   
    38   17   18 1   
    39   17   19 1   
    40   17   51 1   
    41   18   50 1   
    42   18   70 1   
    43   19   26 1   
    44   19   52 1   
    45   19   53 1   
    46   21   27 1   
    47   22   55 1   
    48   23   27 1   
    49   24   56 1   
    50   26   37 1   
    51   26   38 1   
    52   27   57 1   
    53   27   58 1   
    54   28   29 1   
    55   28   59 1   
    56   28   60 1   
    57   29   30 1   
    58   30   36 1   
    59   31   61 1   
    60   32   33 1   
    61   33   34 1   
    62   34   35 1   
    63   38   39 1   
    64   38   43 1   
    65   39   40 1   
    66   39   62 1   
    67   39   63 1   
    68   40   41 1   
    69   40   64 1   
    70   40   65 1   
    71   41   66 1   
    72   42   43 1   
    73   42   67 1   
    74   42   68 1   
    75   43   69 1   
@<TRIPOS>SUBSTRUCTURE
     1 4D5         1 TEMP              0 ****  ****    0 ROOT
