@<TRIPOS>MOLECULE
4D7
   38    40     1     0     0
SMALL
bcc


@<TRIPOS>ATOM
      1 C1          0.3300   -0.6980    0.0410 ca        1 4D7     -0.113000
      2 C2          1.7330   -0.7600    0.1270 ca        1 4D7     -0.146000
      3 C3          2.3990   -0.6330    1.3360 ca        1 4D7     -0.079000
      4 C4         -0.4630   -0.5030    1.1630 ca        1 4D7     -0.127000
      5 N5         -0.2760   -0.1620    3.6960 na        1 4D7     -0.266300
      6 C6          0.1890   -0.3710    2.3950 ca        1 4D7     -0.073200
      7 C7          1.6380   -0.4380    2.4970 ca        1 4D7      0.077400
      8 N8          2.0140   -0.2760    3.8420 nc        1 4D7     -0.637100
      9 C9          0.8590   -0.1150    4.5300 cd        1 4D7      0.417800
     10 C10         0.7580    0.1220    6.0010 c3        1 4D7     -0.105700
     11 C11         1.5850   -0.8530    6.8220 c3        1 4D7     -0.061500
     12 C12         1.3100   -0.5450    8.3800 c         1 4D7      0.936600
     13 O13         0.1090   -0.4770    8.6930 o         1 4D7     -0.759800
     14 O14         2.3430   -0.4170    9.0860 o         1 4D7     -0.759800
     15 N15         3.0520   -0.7720    6.5580 ny        1 4D7     -0.639800
     16 C16         3.6530   -1.8940    5.7790 c         1 4D7      0.614700
     17 C17         5.0620   -1.7360    5.4860 cc        1 4D7     -0.344900
     18 O18         2.9500   -2.8520    5.4640 o         1 4D7     -0.466100
     19 C19         5.8130   -2.5600    4.6450 cd        1 4D7      0.398000
     20 O20         7.1220   -2.1020    4.6000 os        1 4D7     -0.348800
     21 C21         7.1960   -0.9750    5.4310 cd        1 4D7      0.260600
     22 C22         5.9660   -0.7150    5.9890 cc        1 4D7     -0.239300
     23 C23         5.4960   -3.7490    3.8520 c3        1 4D7     -0.166400
     24 H1         -0.1490   -0.8060   -0.9440 ha        1 4D7      0.136000
     25 H2          2.3120   -0.9140   -0.7960 ha        1 4D7      0.134000
     26 H3          3.4960   -0.6800    1.3900 ha        1 4D7      0.141000
     27 H4         -1.5570   -0.4540    1.0880 ha        1 4D7      0.140000
     28 H10        -0.3030    0.0070    6.3660 hc        1 4D7      0.100700
     29 H10A        1.0650    1.1830    6.2140 hc        1 4D7      0.100700
     30 H11         1.2440   -1.9090    6.6360 hx        1 4D7      0.117700
     31 HN15        3.2750    0.1050    6.0790 hn        1 4D7      0.471800
     32 H21         8.1840   -0.5250    5.4820 h4        1 4D7      0.072100
     33 H22         5.7180    0.0860    6.6820 ha        1 4D7      0.173000
     34 H23         4.3860   -3.9040    3.8330 hc        1 4D7      0.085700
     35 H23A        5.8750   -3.6330    2.8050 hc        1 4D7      0.085700
     36 H23B        5.9820   -4.6510    4.3060 hc        1 4D7      0.085700
     37 HN5        -1.2170   -0.1030    3.9840 hn        1 4D7      0.314700
     38 H152        3.5020   -0.7500    7.5090 hn        1 4D7      0.471800
@<TRIPOS>BOND
     1    1    2 ar  
     2    1    4 ar  
     3    1   24 1   
     4    2    3 ar  
     5    2   25 1   
     6    3    7 ar  
     7    3   26 1   
     8    4    6 ar  
     9    4   27 1   
    10    5    6 1   
    11    5    9 1   
    12    5   37 1   
    13    6    7 ar  
    14    7    8 1   
    15    8    9 2   
    16    9   10 1   
    17   10   11 1   
    18   10   28 1   
    19   10   29 1   
    20   11   12 1   
    21   11   15 1   
    22   11   30 1   
    23   12   13 1   
    24   12   14 1   
    25   15   16 1   
    26   15   31 1   
    27   15   38 1   
    28   16   17 1   
    29   16   18 2   
    30   17   19 2   
    31   17   22 1   
    32   19   20 1   
    33   19   23 1   
    34   20   21 1   
    35   21   22 2   
    36   21   32 1   
    37   22   33 1   
    38   23   34 1   
    39   23   35 1   
    40   23   36 1   
@<TRIPOS>SUBSTRUCTURE
     1 4D7         1 TEMP              0 ****  ****    0 ROOT
