@<TRIPOS>MOLECULE
4D7
   38    40     1     0     0
SMALL
bcc


@<TRIPOS>ATOM
      1 C1          0.3220   -0.6990    0.0450 ca        1 4D7     -0.113000
      2 C2          1.7250   -0.7600    0.1280 ca        1 4D7     -0.146000
      3 C3          2.3940   -0.6330    1.3360 ca        1 4D7     -0.079000
      4 C4         -0.4690   -0.5040    1.1680 ca        1 4D7     -0.127000
      5 N5         -0.2780   -0.1640    3.7010 na        1 4D7     -0.266300
      6 C6          0.1850   -0.3730    2.3990 ca        1 4D7     -0.073200
      7 C7          1.6340   -0.4380    2.4980 ca        1 4D7      0.077400
      8 N8          2.0120   -0.2760    3.8430 nc        1 4D7     -0.637100
      9 C9          0.8590   -0.1170    4.5330 cd        1 4D7      0.417800
     10 C10         0.7600    0.1200    6.0050 c3        1 4D7     -0.105700
     11 C11         1.5880   -0.8540    6.8240 c3        1 4D7     -0.061500
     12 C12         1.3160   -0.5470    8.3820 c         1 4D7      0.936600
     13 O13         0.1160   -0.4800    8.6970 o         1 4D7     -0.759800
     14 O14         2.3510   -0.4180    9.0860 o         1 4D7     -0.759800
     15 N15         3.0550   -0.7720    6.5570 n4        1 4D7     -0.639800
     16 C16         3.6560   -1.8940    5.7770 c         1 4D7      0.614700
     17 C17         5.0650   -1.7340    5.4820 cc        1 4D7     -0.344900
     18 O18         2.9530   -2.8520    5.4630 o         1 4D7     -0.466100
     19 C19         5.8150   -2.5580    4.6400 cd        1 4D7      0.398000
     20 O20         7.1240   -2.0990    4.5940 os        1 4D7     -0.348800
     21 C21         7.1980   -0.9730    5.4250 cd        1 4D7      0.260600
     22 C22         5.9690   -0.7140    5.9850 cc        1 4D7     -0.239300
     23 C23         5.4970   -3.7460    3.8460 c3        1 4D7     -0.166400
     24 H1         -0.1580   -0.8070   -0.9400 ha        1 4D7      0.136000
     25 H2          2.3030   -0.9130   -0.7960 ha        1 4D7      0.134000
     26 H3          3.4900   -0.6780    1.3890 ha        1 4D7      0.141000
     27 H4         -1.5630   -0.4560    1.0950 ha        1 4D7      0.140000
     28 H10         1.0660    1.1810    6.2170 hc        1 4D7      0.100700
     29 H10A       -0.3010    0.0040    6.3710 hc        1 4D7      0.100700
     30 H11         1.2480   -1.9110    6.6380 hx        1 4D7      0.117700
     31 HN15        3.2770    0.1050    6.0780 hn        1 4D7      0.471800
     32 H21         8.1870   -0.5230    5.4760 h4        1 4D7      0.072100
     33 H22         5.7220    0.0860    6.6790 ha        1 4D7      0.173000
     34 H23         4.3870   -3.9010    3.8280 hc        1 4D7      0.085700
     35 H23A        5.8760   -3.6300    2.7990 hc        1 4D7      0.085700
     36 H23B        5.9840   -4.6480    4.2990 hc        1 4D7      0.085700
     37 HN5        -1.2180   -0.1060    3.9910 hn        1 4D7      0.314700
     38 H152        3.5070   -0.7500    7.5080 hn        1 4D7      0.471800
@<TRIPOS>BOND
     1    1    2 ar  
     2    1    4 ar  
     3    1   24 1   
     4    2    3 ar  
     5    2   25 1   
     6    3    7 ar  
     7    3   26 1   
     8    4    6 ar  
     9    4   27 1   
    10    5    6 1   
    11    5    9 1   
    12    5   37 1   
    13    6    7 ar  
    14    7    8 1   
    15    8    9 2   
    16    9   10 1   
    17   10   11 1   
    18   10   28 1   
    19   10   29 1   
    20   11   12 1   
    21   11   15 1   
    22   11   30 1   
    23   12   13 1   
    24   12   14 1   
    25   15   16 1   
    26   15   31 1   
    27   15   38 1   
    28   16   17 1   
    29   16   18 2   
    30   17   19 2   
    31   17   22 1   
    32   19   20 1   
    33   19   23 1   
    34   20   21 1   
    35   21   22 2   
    36   21   32 1   
    37   22   33 1   
    38   23   34 1   
    39   23   35 1   
    40   23   36 1   
@<TRIPOS>SUBSTRUCTURE
     1 4D7         1 TEMP              0 ****  ****    0 ROOT
