@<TRIPOS>MOLECULE
4D7
   37    30     1     0     0
SMALL
bcc


@<TRIPOS>ATOM
      1 C1         -1.2650   -5.9010   -1.6820 c1        1 4D7     -0.131000
      2 C2         -2.4320   -5.2100   -1.3980 c1        1 4D7     -0.131000
      3 C3         -2.3790   -3.8610   -1.0830 c1        1 4D7     -0.131000
      4 C4         -0.0450   -5.2440   -1.6520 c1        1 4D7     -0.131000
      5 N5          1.0420   -3.0010   -1.2490 n2        1 4D7     -0.212000
      6 C6          0.0090   -3.8740   -1.3320 c1        1 4D7     -0.036000
      7 C7         -1.1400   -3.1930   -1.0520 c1        1 4D7     -0.072000
      8 N8         -0.8100   -1.9030   -0.7980 n1        1 4D7     -0.188000
      9 C9          0.5380   -1.7820   -0.9190 c1        1 4D7      0.043000
     10 C10         0.9150   -0.7780    0.1470 c2        1 4D7     -0.100000
     11 C11         1.1570    0.5700   -0.4940 c3        1 4D7     -0.074000
     12 C12         2.5520    0.6080   -1.0750 c2        1 4D7      0.327000
     13 O13         3.5200    0.1390   -0.4210 o         1 4D7     -0.559500
     14 O14         2.7450    1.0970   -2.2200 o         1 4D7     -0.559500
     15 N15         1.0240    1.5910    0.4850 n         1 4D7     -0.327000
     16 C16         0.5200    2.8650    0.1170 c2        1 4D7      0.361000
     17 C17         0.2410    3.9040    1.1810 c2        1 4D7     -0.184000
     18 O18         0.3110    3.1210   -1.0520 o         1 4D7     -0.405000
     19 C19        -0.8240    4.3070    1.9610 c1        1 4D7      0.026000
     20 O20        -0.3890    5.3100    2.7880 os        1 4D7     -0.122000
     21 C21         0.9380    5.5300    2.5250 c1        1 4D7     -0.122000
     22 C22         1.3270    4.6570    1.5290 c1        1 4D7     -0.161000
     23 C23        -2.2350    3.7670    1.8860 c2        1 4D7     -0.170000
     24 H1         -1.3020   -6.8510   -1.9040 ha        1 4D7      0.121750
     25 H2         -3.2900   -5.6730   -1.4190 ha        1 4D7      0.121750
     26 H3         -3.1990   -3.3790   -0.8650 ha        1 4D7      0.121750
     27 H4          0.7770   -5.7310   -1.8520 ha        1 4D7      0.121750
     28 H10         1.7290   -1.0740    0.6010 ha        1 4D7      0.110500
     29 H10A        0.1880   -0.7040    0.7960 ha        1 4D7      0.110500
     30 H11         0.5040    0.7150   -1.2070 h1        1 4D7      0.118000
     31 HN15        1.2470    1.4220    1.3520 hn        1 4D7      0.239000
     32 H21         1.5080    6.1890    2.9660 DU        1 4D7      0.225333
     33 H22         2.2120    4.6100    1.1220 DU        1 4D7      0.225333
     34 H23        -2.7220    4.2240    1.1690 ha        1 4D7      0.106333
     35 H23A       -2.6890    3.9220    2.7400 ha        1 4D7      0.106333
     36 H23B       -2.2070    2.8050    1.7010 ha        1 4D7      0.106333
     37 HN5         1.9220   -3.1970   -1.3900 DU        1 4D7      0.225333
@<TRIPOS>BOND
     1    1    4 1   
     2    1   24 1   
     3    2    3 1   
     4    2   25 1   
     5    3   26 1   
     6    4   27 1   
     7    5    6 1   
     8    5    9 1   
     9    6    7 1   
    10    8    9 1   
    11   10   11 1   
    12   10   28 1   
    13   10   29 1   
    14   11   12 1   
    15   11   15 1   
    16   11   30 1   
    17   12   13 1   
    18   12   14 1   
    19   15   16 1   
    20   15   31 1   
    21   16   17 1   
    22   16   18 1   
    23   17   19 1   
    24   17   22 1   
    25   19   20 1   
    26   20   21 1   
    27   21   22 1   
    28   23   34 1   
    29   23   35 1   
    30   23   36 1   
@<TRIPOS>SUBSTRUCTURE
     1 4D7         1 TEMP              0 ****  ****    0 ROOT
