@<TRIPOS>MOLECULE
4D7
   37    39     1     0     0
SMALL
bcc


@<TRIPOS>ATOM
      1 C1          4.4890    1.9710    1.5870 ca        1 4D7     -0.141000
      2 C2          5.2450    1.9770    0.4030 ca        1 4D7     -0.166000
      3 C3          4.8670    1.2420   -0.7110 ca        1 4D7     -0.088000
      4 C4          3.3240    1.2270    1.7040 ca        1 4D7     -0.129000
      5 N5          1.8440   -0.3780    0.3680 na        1 4D7     -0.266300
      6 C6          2.9210    0.4770    0.5950 ca        1 4D7     -0.083200
      7 C7          3.6950    0.4770   -0.6410 ca        1 4D7      0.074400
      8 N8          3.0660   -0.3530   -1.5830 nc        1 4D7     -0.614100
      9 C9          1.9600   -0.8400   -0.9600 cd        1 4D7      0.456800
     10 C10         0.9890   -1.7950   -1.5730 c3        1 4D7     -0.097700
     11 C11        -0.3490   -1.9400   -0.8460 c3        1 4D7     -0.079300
     12 C12        -1.1150   -3.1240   -1.5740 c         1 4D7      0.914600
     13 O13        -0.6190   -4.2670   -1.4210 o         1 4D7     -0.817800
     14 O14        -2.1430   -2.8370   -2.2440 o         1 4D7     -0.817800
     15 N15        -1.1330   -0.7190   -0.8450 n         1 4D7     -0.494900
     16 C16        -1.5510   -0.1170    0.3200 c         1 4D7      0.689700
     17 C17        -2.7310    0.7640    0.2340 cc        1 4D7     -0.272900
     18 O18        -0.9210   -0.2320    1.4030 o         1 4D7     -0.680100
     19 C19        -3.0260    1.8390    1.0590 cd        1 4D7      0.316000
     20 O20        -4.2430    2.4100    0.6720 os        1 4D7     -0.380800
     21 C21        -4.7100    1.6580   -0.4130 cd        1 4D7      0.208600
     22 C22        -3.8230    0.6490   -0.7140 cc        1 4D7     -0.220300
     23 C23        -2.3400    2.4550    2.1960 c3        1 4D7     -0.144400
     24 H1          4.8320    2.5720    2.4410 ha        1 4D7      0.114000
     25 H2          6.1620    2.5830    0.3630 ha        1 4D7      0.114000
     26 H3          5.4660    1.2530   -1.6320 ha        1 4D7      0.133000
     27 H4          2.7370    1.2260    2.6320 ha        1 4D7      0.130000
     28 H10         0.8100   -1.4900   -2.6390 hc        1 4D7      0.089700
     29 H10A        1.4590   -2.8200   -1.5850 hc        1 4D7      0.089700
     30 H11        -0.1720   -2.2750    0.2160 h1        1 4D7      0.068700
     31 HN15       -1.7760   -0.6930   -1.6170 hn        1 4D7      0.322500
     32 H21        -5.6610    1.9940   -0.8100 h4        1 4D7      0.045100
     33 H22        -3.9120   -0.1130   -1.4890 ha        1 4D7      0.187000
     34 H23        -1.9360    3.4580    1.9080 hc        1 4D7      0.065700
     35 H23A       -3.0460    2.5900    3.0530 hc        1 4D7      0.065700
     36 H23B       -1.4940    1.7900    2.5100 hc        1 4D7      0.065700
     37 HN5         1.0670   -0.5230    0.9700 hn        1 4D7      0.341700
@<TRIPOS>BOND
     1    1    2 ar  
     2    1    4 ar  
     3    1   24 1   
     4    2    3 ar  
     5    2   25 1   
     6    3    7 ar  
     7    3   26 1   
     8    4    6 ar  
     9    4   27 1   
    10    5    6 1   
    11    5    9 1   
    12    5   37 1   
    13    6    7 ar  
    14    7    8 1   
    15    8    9 2   
    16    9   10 1   
    17   10   11 1   
    18   10   28 1   
    19   10   29 1   
    20   11   12 1   
    21   11   15 1   
    22   11   30 1   
    23   12   13 1   
    24   12   14 1   
    25   15   16 1   
    26   15   31 1   
    27   16   17 1   
    28   16   18 2   
    29   17   19 2   
    30   17   22 1   
    31   19   20 1   
    32   19   23 1   
    33   20   21 1   
    34   21   22 2   
    35   21   32 1   
    36   22   33 1   
    37   23   34 1   
    38   23   35 1   
    39   23   36 1   
@<TRIPOS>SUBSTRUCTURE
     1 4D7         1 TEMP              0 ****  ****    0 ROOT
