@<TRIPOS>MOLECULE
4D8
   77    71     1     0     0
SMALL
bcc


@<TRIPOS>ATOM
      1 O3          0.1080   -0.8720    0.0010 oh        1 4D8     -0.377000
      2 OC1         2.1560   -0.6190   -3.6370 o         1 4D8     -0.564500
      3 OC2         0.1080   -0.6480   -2.7610 o         1 4D8     -0.564500
      4 C13         6.1780   -3.4920    4.1550 c3        1 4D8     -0.214000
      5 C14         7.4670   -3.2080   -2.0210 c2        1 4D8     -0.137000
      6 C10         4.1210   -2.2780   -0.3290 c3        1 4D8     -0.124000
      7 C17         7.6890    0.1720    5.1460 c1        1 4D8     -0.217000
      8 C5          3.3580   -1.9660   -1.6260 c3        1 4D8     -0.072000
      9 C8          6.0070   -3.2680   -1.7330 c3        1 4D8     -0.103000
     10 C9          5.5940   -2.3500   -0.6250 c2        1 4D8      0.293000
     11 C12         7.3100   -1.0190    0.7980 c1        1 4D8      0.050000
     12 C15         8.2460   -4.2840   -2.1110 c2        1 4D8     -0.232000
     13 C16         7.6660   -0.0890    3.9780 c1        1 4D8     -0.191000
     14 C11         6.4820   -1.6600    0.0970 c1        1 4D8     -0.557000
     15 C4          1.8400   -1.7920   -1.5070 c3        1 4D8     -0.165000
     16 C6          3.7190   -2.9640   -2.7170 c3        1 4D8     -0.166000
     17 C7          5.2050   -2.9540   -2.9970 c3        1 4D8     -0.142000
     18 C1         10.3860    0.1350    1.1430 c1        1 4D8     -0.229500
     19 C20         7.6990    0.4830    6.5450 c3        1 4D8     -0.045000
     20 C3          1.4920   -1.0040   -0.2390 c3        1 4D8      0.019000
     21 C2         11.5410    0.4480    1.1510 c1        1 4D8     -0.229500
     22 C4B         1.0770   -3.1020   -1.5400 c3        1 4D8     -0.183000
     23 C22        10.8190   -3.6480    3.7840 cu        1 4D8     -0.187500
     24 C4A         1.3360   -0.9490   -2.7390 c2        1 4D8      0.337000
     25 C21         9.0930    0.7360    7.0740 c3        1 4D8     -0.206000
     26 C23        12.3070   -3.6670    3.7560 cx        1 4D8     -0.192000
     27 C24        11.4020   -2.6760    3.1100 cu        1 4D8     -0.187500
     28 C25        15.6950   -2.6460    2.9330 c1        1 4D8     -0.229500
     29 C26        14.4560   -5.9670    1.7700 c3        1 4D8     -0.271000
     30 C27        16.8530   -2.4110    2.7450 c1        1 4D8     -0.229500
     31 H1         -0.3190   -0.6260   -0.8380 ho        1 4D8      0.250000
     32 H3          5.7260   -4.3110   -1.3930 hc        1 4D8      0.119000
     33 H4          7.6450   -0.3150    2.9320 ha        1 4D8      0.256000
     34 H5          3.7420   -0.9550   -1.9700 hc        1 4D8      0.121000
     35 H6          5.5220   -3.4560    5.0580 hc        1 4D8      0.071500
     36 H7          7.3040    1.1060   -0.3950 ha        1 4D8      0.004500
     37 H8          6.6940   -2.5040    4.0570 hc        1 4D8      0.071500
     38 H9          7.8690   -2.1910   -2.1610 ha        1 4D8      0.136000
     39 H10         9.3170   -4.2100   -2.3350 ha        1 4D8      0.106500
     40 H11         7.8720   -5.3060   -1.9670 ha        1 4D8      0.106500
     41 H12         7.9460    1.1190   -0.1750 ha        1 4D8      0.004500
     42 H13         5.5270   -3.6350    3.2570 hc        1 4D8      0.071500
     43 H14         3.3940   -3.9980   -2.4290 hc        1 4D8      0.106500
     44 H15         5.5090   -1.9500   -3.3940 hc        1 4D8      0.090500
     45 H16         3.1630   -2.6640   -3.6490 hc        1 4D8      0.106500
     46 H17         5.4540   -3.7180   -3.7780 hc        1 4D8      0.090500
     47 H18         3.9510   -1.4170    0.3830 hc        1 4D8      0.119000
     48 H19         9.3510   -0.1480    1.1340 ha        1 4D8      0.228250
     49 H20         7.0600    1.3930    6.7260 hc        1 4D8      0.088000
     50 H23         6.6610   -5.5920    4.3750 hc        1 4D8      0.071500
     51 H24         1.8730   -1.5260    0.6820 h1        1 4D8      0.054000
     52 H25        12.5620    0.7300    1.1560 ha        1 4D8      0.228250
     53 H26         1.9590    0.0170   -0.3040 h1        1 4D8      0.054000
     54 H27         2.6960   -3.4290    0.8290 hc        1 4D8      0.080667
     55 H28         4.4300   -3.7920    1.2030 hc        1 4D8      0.080667
     56 H29         3.6810   -4.4180   -0.3290 hc        1 4D8      0.080667
     57 H30         1.4350   -3.8130   -0.7590 hc        1 4D8      0.065333
     58 H31        -0.0080   -2.8920   -1.3660 hc        1 4D8      0.065333
     59 H32         1.1810   -3.5860   -2.5410 hc        1 4D8      0.065333
     60 H33         9.9460   -4.1490    4.1480 ha        1 4D8      0.197500
     61 H34         7.2310   -0.3670    7.1170 hc        1 4D8      0.088000
     62 H35         9.7380   -0.1640    6.9310 hc        1 4D8      0.073667
     63 H36         9.5670    1.5950    6.5410 hc        1 4D8      0.073667
     64 H37         9.0480    0.9740    8.1640 hc        1 4D8      0.073667
     65 H38        12.8860   -3.3930    4.6580 hc        1 4D8      0.083500
     66 H39        12.8460   -4.4180    3.1450 hc        1 4D8      0.083500
     67 H40        11.3600   -1.7870    2.5090 ha        1 4D8      0.197500
     68 H41        14.6640   -2.8510    3.1000 ha        1 4D8      0.228250
     69 H42        14.1440   -6.5160    2.6850 hc        1 4D8      0.068000
     70 H43        13.5620   -5.7550    1.1430 hc        1 4D8      0.068000
     71 H44        15.1770   -6.5850    1.1930 hc        1 4D8      0.068000
     72 H45        14.9390   -5.0070    2.0620 hc        1 4D8      0.068000
     73 H46        17.8780   -2.2030    2.5770 ha        1 4D8      0.228250
     74 C18         7.1760   -4.6060    4.2680 c3        1 4D8     -0.214000
     75 H21         7.8340   -4.4580    5.1590 hc        1 4D8      0.071500
     76 C19         3.7110   -3.5560    0.3800 c3        1 4D8     -0.205000
     77 H22         7.8250   -4.6470    3.3590 hc        1 4D8      0.071500
@<TRIPOS>BOND
     1    1   20 1   
     2    1   31 1   
     3    2   24 1   
     4    3   24 1   
     5    4   35 1   
     6    4   37 1   
     7    4   42 1   
     8    4   74 1   
     9    5    9 1   
    10    5   12 1   
    11    5   38 1   
    12    6    8 1   
    13    6   10 1   
    14    6   47 1   
    15    6   76 1   
    16    7   13 1   
    17    7   19 1   
    18    8   15 1   
    19    8   16 1   
    20    8   34 1   
    21    9   10 1   
    22    9   17 1   
    23    9   32 1   
    24   10   14 1   
    25   11   14 1   
    26   12   39 1   
    27   12   40 1   
    28   13   33 1   
    29   15   20 1   
    30   15   22 1   
    31   15   24 1   
    32   16   17 1   
    33   16   43 1   
    34   16   45 1   
    35   17   44 1   
    36   17   46 1   
    37   18   21 1   
    38   18   48 1   
    39   19   25 1   
    40   19   49 1   
    41   19   61 1   
    42   20   51 1   
    43   20   53 1   
    44   21   52 1   
    45   22   57 1   
    46   22   58 1   
    47   22   59 1   
    48   23   26 1   
    49   23   27 1   
    50   23   60 1   
    51   25   62 1   
    52   25   63 1   
    53   25   64 1   
    54   26   27 1   
    55   26   65 1   
    56   26   66 1   
    57   27   67 1   
    58   28   30 1   
    59   28   68 1   
    60   29   69 1   
    61   29   70 1   
    62   29   71 1   
    63   29   72 1   
    64   30   73 1   
    65   36   41 1   
    66   50   74 1   
    67   54   76 1   
    68   55   76 1   
    69   56   76 1   
    70   74   75 1   
    71   74   77 1   
@<TRIPOS>SUBSTRUCTURE
     1 4D8         1 TEMP              0 ****  ****    0 ROOT
