@<TRIPOS>MOLECULE
4D9
   41    44     1     0     0
SMALL
bcc


@<TRIPOS>ATOM
      1 C1          0.2400   -0.2960    0.2830 ca        1 4D9     -0.127000
      2 C2          1.6050   -0.4970    0.4160 ca        1 4D9     -0.113000
      3 C3          2.2140   -0.6430    1.6760 ca        1 4D9     -0.146000
      4 C4          1.4830   -0.5960    2.8530 ca        1 4D9     -0.078000
      5 N5         -1.8830   -0.0540    1.6980 na        1 4D9     -0.266300
      6 C6         -0.5200   -0.2450    1.4580 ca        1 4D9     -0.073200
      7 C7          0.0970   -0.3960    2.7660 ca        1 4D9      0.078400
      8 N8         -0.8950   -0.3020    3.7580 nc        1 4D9     -0.638100
      9 C9         -2.0590   -0.1020    3.0960 cd        1 4D9      0.415800
     10 C10        -3.3940    0.0870    3.7390 c3        1 4D9     -0.106700
     11 C11        -3.6860   -0.9380    4.8210 c3        1 4D9     -0.060500
     12 C12        -5.1850   -0.6840    5.3550 c         1 4D9      0.936600
     13 N13        -2.7380   -0.8850    5.9760 n4        1 4D9     -0.644800
     14 O14        -6.0440   -0.5770    4.4650 o         1 4D9     -0.758300
     15 O15        -5.2980   -0.6320    6.6070 o         1 4D9     -0.758300
     16 C16        -1.7290   -1.9830    6.0550 c         1 4D9      0.611300
     17 C17        -0.6950   -1.8030    7.0630 cc        1 4D9     -0.227600
     18 O18        -1.8400   -2.9540    5.3130 o         1 4D9     -0.449100
     19 C19         0.3330   -2.7120    7.2230 cd        1 4D9     -0.000200
     20 S20        -0.5790   -0.5050    8.1520 ss        1 4D9      0.065500
     21 C21         0.8220   -1.0940    8.8710 ca        1 4D9     -0.044100
     22 C22         1.2290   -2.3200    8.2710 ca        1 4D9     -0.113800
     23 C23         2.3810   -2.9820    8.7280 ca        1 4D9     -0.068000
     24 C24         3.1080   -2.4260    9.7640 ca        1 4D9     -0.134000
     25 C25         2.7040   -1.2130   10.3570 ca        1 4D9     -0.090000
     26 C26         1.5720   -0.5460    9.9210 ca        1 4D9     -0.105000
     27 H1         -0.2280   -0.1830   -0.7040 ha        1 4D9      0.140000
     28 H2          2.2330   -0.5450   -0.4870 ha        1 4D9      0.135000
     29 H3          3.3020   -0.8000    1.7230 ha        1 4D9      0.134000
     30 H4          1.9680   -0.7090    3.8320 ha        1 4D9      0.143000
     31 H10        -4.2310   -0.0130    2.9890 hc        1 4D9      0.101200
     32 H10A       -3.4470    1.1310    4.1530 hc        1 4D9      0.101200
     33 H11        -3.6690   -1.9780    4.3910 hx        1 4D9      0.118700
     34 HN13       -2.2470    0.0140    5.9780 hn        1 4D9      0.471800
     35 H19         0.4580   -3.6240    6.6270 ha        1 4D9      0.182000
     36 H23         2.6870   -3.9290    8.2590 ha        1 4D9      0.147000
     37 H24         4.0130   -2.9300   10.1360 ha        1 4D9      0.144000
     38 H25         3.3030   -0.7940   11.1810 ha        1 4D9      0.144000
     39 H26         1.2610    0.4000   10.3880 ha        1 4D9      0.148000
     40 HN5        -2.5930    0.0430    1.0220 hn        1 4D9      0.314700
     41 H132       -3.3540   -0.9300    6.8300 hn        1 4D9      0.471800
@<TRIPOS>BOND
     1    1    2 ar  
     2    1    6 ar  
     3    1   27 1   
     4    2    3 ar  
     5    2   28 1   
     6    3    4 ar  
     7    3   29 1   
     8    4    7 ar  
     9    4   30 1   
    10    5    6 1   
    11    5    9 1   
    12    5   40 1   
    13    6    7 ar  
    14    7    8 1   
    15    8    9 2   
    16    9   10 1   
    17   10   11 1   
    18   10   31 1   
    19   10   32 1   
    20   11   12 1   
    21   11   13 1   
    22   11   33 1   
    23   12   14 1   
    24   12   15 1   
    25   13   16 1   
    26   13   34 1   
    27   13   41 1   
    28   16   17 1   
    29   16   18 2   
    30   17   19 2   
    31   17   20 1   
    32   19   22 1   
    33   19   35 1   
    34   20   21 1   
    35   21   22 ar  
    36   21   26 ar  
    37   22   23 ar  
    38   23   24 ar  
    39   23   36 1   
    40   24   25 ar  
    41   24   37 1   
    42   25   26 ar  
    43   25   38 1   
    44   26   39 1   
@<TRIPOS>SUBSTRUCTURE
     1 4D9         1 TEMP              0 ****  ****    0 ROOT
