@<TRIPOS>MOLECULE
4D9
   40    43     1     0     0
SMALL
bcc


@<TRIPOS>ATOM
      1 C1         -3.4330    2.5480   -1.5810 ca        1 4D9     -0.128000
      2 C2         -4.1520    3.7150   -1.3630 ca        1 4D9     -0.140000
      3 C3         -4.7870    3.9740   -0.1370 ca        1 4D9     -0.166000
      4 C4         -4.7280    3.0780    0.9210 ca        1 4D9     -0.087000
      5 N5         -2.7570    0.3780   -0.4030 na        1 4D9     -0.267300
      6 C6         -3.3600    1.6280   -0.5290 ca        1 4D9     -0.082200
      7 C7         -4.0120    1.8860    0.7490 ca        1 4D9      0.073400
      8 N8         -3.7740    0.8070    1.6160 nc        1 4D9     -0.612100
      9 C9         -3.0160   -0.0700    0.9100 cd        1 4D9      0.454800
     10 C10        -2.5400   -1.3900    1.4220 c3        1 4D9     -0.097700
     11 C11        -1.4100   -2.0460    0.6260 c3        1 4D9     -0.080300
     12 C12        -1.2170   -3.4890    1.2580 c         1 4D9      0.914600
     13 N13        -0.1770   -1.2820    0.6520 n         1 4D9     -0.497900
     14 O14        -0.1630   -3.7080    1.9130 o         1 4D9     -0.814800
     15 O15        -2.1510   -4.3010    1.0480 o         1 4D9     -0.814800
     16 C16         0.4150   -0.8110   -0.4960 c         1 4D9      0.684300
     17 C17         1.8470   -0.4340   -0.4180 cc        1 4D9     -0.154600
     18 O18        -0.2220   -0.6100   -1.5600 o         1 4D9     -0.658100
     19 C19         2.4380    0.4560   -1.2820 cd        1 4D9     -0.084200
     20 S20         2.9410   -1.0610    0.7130 ss        1 4D9      0.108500
     21 C21         4.2340   -0.1720    0.1160 ca        1 4D9     -0.093100
     22 C22         3.8340    0.6320   -0.9920 ca        1 4D9     -0.091800
     23 C23         4.7690    1.4540   -1.6410 ca        1 4D9     -0.086000
     24 C24         6.0770    1.4710   -1.1940 ca        1 4D9     -0.147000
     25 C25         6.4740    0.6750   -0.1010 ca        1 4D9     -0.128000
     26 C26         5.5670   -0.1400    0.5510 ca        1 4D9     -0.096000
     27 H1         -2.9380    2.3510   -2.5400 ha        1 4D9      0.131000
     28 H2         -4.2270    4.4590   -2.1690 ha        1 4D9      0.115000
     29 H3         -5.3440    4.9140   -0.0170 ha        1 4D9      0.114000
     30 H4         -5.2290    3.2890    1.8760 ha        1 4D9      0.133000
     31 H10        -2.2260   -1.2660    2.4940 hc        1 4D9      0.090200
     32 H10A       -3.4060   -2.1120    1.4010 hc        1 4D9      0.090200
     33 H11        -1.7350   -2.2010   -0.4420 h1        1 4D9      0.069700
     34 HN13        0.4330   -1.5830    1.3920 hn        1 4D9      0.323500
     35 H19         1.9170    0.9680   -2.0960 ha        1 4D9      0.170000
     36 H23         4.4500    2.0700   -2.4940 ha        1 4D9      0.132000
     37 H24         6.8230    2.1080   -1.6910 ha        1 4D9      0.123000
     38 H25         7.5210    0.7080    0.2330 ha        1 4D9      0.124000
     39 H26         5.8790   -0.7600    1.4040 ha        1 4D9      0.134000
     40 HN5        -2.1460   -0.0510   -1.0580 hn        1 4D9      0.339700
@<TRIPOS>BOND
     1    1    2 ar  
     2    1    6 ar  
     3    1   27 1   
     4    2    3 ar  
     5    2   28 1   
     6    3    4 ar  
     7    3   29 1   
     8    4    7 ar  
     9    4   30 1   
    10    5    6 1   
    11    5    9 1   
    12    5   40 1   
    13    6    7 ar  
    14    7    8 1   
    15    8    9 2   
    16    9   10 1   
    17   10   11 1   
    18   10   31 1   
    19   10   32 1   
    20   11   12 1   
    21   11   13 1   
    22   11   33 1   
    23   12   14 1   
    24   12   15 1   
    25   13   16 1   
    26   13   34 1   
    27   16   17 1   
    28   16   18 2   
    29   17   19 2   
    30   17   20 1   
    31   19   22 1   
    32   19   35 1   
    33   20   21 1   
    34   21   22 ar  
    35   21   26 ar  
    36   22   23 ar  
    37   23   24 ar  
    38   23   36 1   
    39   24   25 ar  
    40   24   37 1   
    41   25   26 ar  
    42   25   38 1   
    43   26   39 1   
@<TRIPOS>SUBSTRUCTURE
     1 4D9         1 TEMP              0 ****  ****    0 ROOT
