@<TRIPOS>MOLECULE
4D9
   41    44     1     0     0
SMALL
bcc


@<TRIPOS>ATOM
      1 C1          0.2400   -0.2170    0.2930 ca        1 4D9     -0.127000
      2 C2          1.6080   -0.3990    0.4270 ca        1 4D9     -0.113000
      3 C3          2.2160   -0.5520    1.6870 ca        1 4D9     -0.146000
      4 C4          1.4820   -0.5300    2.8620 ca        1 4D9     -0.078000
      5 N5         -1.8890   -0.0240    1.7070 na        1 4D9     -0.266300
      6 C6         -0.5220   -0.1910    1.4670 ca        1 4D9     -0.073200
      7 C7          0.0940   -0.3500    2.7750 ca        1 4D9      0.078400
      8 N8         -0.9020   -0.2830    3.7650 nc        1 4D9     -0.638100
      9 C9         -2.0670   -0.0920    3.1030 cd        1 4D9      0.415800
     10 C10        -3.4060    0.0680    3.7460 c3        1 4D9     -0.106700
     11 C11        -3.6850   -0.9750    4.8130 c3        1 4D9     -0.060500
     12 C12        -5.1890   -0.7510    5.3480 c         1 4D9      0.936600
     13 N13        -2.7410   -0.9230    5.9710 n4        1 4D9     -0.644800
     14 O14        -6.0470   -0.6450    4.4570 o         1 4D9     -0.758300
     15 O15        -5.3050   -0.7170    6.6000 o         1 4D9     -0.758300
     16 C16        -1.7160   -2.0070    6.0390 c         1 4D9      0.611300
     17 C17        -0.6870   -1.8250    7.0520 cc        1 4D9     -0.227600
     18 O18        -1.8100   -2.9700    5.2830 o         1 4D9     -0.449100
     19 C19         0.3540   -2.7200    7.2020 cd        1 4D9     -0.000200
     20 S20        -0.5960   -0.5420    8.1610 ss        1 4D9      0.065500
     21 C21         0.8130   -1.1190    8.8760 ca        1 4D9     -0.044100
     22 C22         1.2410   -2.3300    8.2590 ca        1 4D9     -0.113800
     23 C23         2.4010   -2.9800    8.7090 ca        1 4D9     -0.068000
     24 C24         3.1170   -2.4280    9.7560 ca        1 4D9     -0.134000
     25 C25         2.6920   -1.2300   10.3660 ca        1 4D9     -0.090000
     26 C26         1.5510   -0.5750    9.9350 ca        1 4D9     -0.105000
     27 H1         -0.2280   -0.0980   -0.6930 ha        1 4D9      0.140000
     28 H2          2.2390   -0.4250   -0.4750 ha        1 4D9      0.135000
     29 H3          3.3070   -0.6920    1.7340 ha        1 4D9      0.134000
     30 H4          1.9670   -0.6490    3.8410 ha        1 4D9      0.143000
     31 H10        -3.4750    1.1060    4.1740 hc        1 4D9      0.101200
     32 H10A       -4.2400   -0.0340    2.9930 hc        1 4D9      0.101200
     33 H11        -3.6510   -2.0090    4.3700 hx        1 4D9      0.118700
     34 HN13       -2.2630   -0.0170    5.9870 hn        1 4D9      0.472300
     35 H19         0.4950   -3.6210    6.5930 ha        1 4D9      0.182000
     36 H23         2.7250   -3.9150    8.2280 ha        1 4D9      0.147000
     37 H24         4.0290   -2.9220   10.1240 ha        1 4D9      0.144000
     38 H25         3.2820   -0.8140   11.1980 ha        1 4D9      0.144000
     39 H26         1.2240    0.3590   10.4160 ha        1 4D9      0.148000
     40 HN5        -2.5990    0.0710    1.0310 hn        1 4D9      0.314700
     41 H132       -3.3580   -0.9890    6.8230 hn        1 4D9      0.472300
@<TRIPOS>BOND
     1    1    2 ar  
     2    1    6 ar  
     3    1   27 1   
     4    2    3 ar  
     5    2   28 1   
     6    3    4 ar  
     7    3   29 1   
     8    4    7 ar  
     9    4   30 1   
    10    5    6 1   
    11    5    9 1   
    12    5   40 1   
    13    6    7 ar  
    14    7    8 1   
    15    8    9 2   
    16    9   10 1   
    17   10   11 1   
    18   10   31 1   
    19   10   32 1   
    20   11   12 1   
    21   11   13 1   
    22   11   33 1   
    23   12   14 1   
    24   12   15 1   
    25   13   16 1   
    26   13   34 1   
    27   13   41 1   
    28   16   17 1   
    29   16   18 2   
    30   17   19 2   
    31   17   20 1   
    32   19   22 1   
    33   19   35 1   
    34   20   21 1   
    35   21   22 ar  
    36   21   26 ar  
    37   22   23 ar  
    38   23   24 ar  
    39   23   36 1   
    40   24   25 ar  
    41   24   37 1   
    42   25   26 ar  
    43   25   38 1   
    44   26   39 1   
@<TRIPOS>SUBSTRUCTURE
     1 4D9         1 TEMP              0 ****  ****    0 ROOT
