@<TRIPOS>MOLECULE
4D9
   41    44     1     0     0
SMALL
bcc


@<TRIPOS>ATOM
      1 C1          0.2410   -0.2680    0.2860 ca        1 4D9     -0.127000
      2 C2          1.6080   -0.4570    0.4210 ca        1 4D9     -0.113000
      3 C3          2.2160   -0.6030    1.6810 ca        1 4D9     -0.146000
      4 C4          1.4830   -0.5680    2.8570 ca        1 4D9     -0.078000
      5 N5         -1.8860   -0.0520    1.6990 na        1 4D9     -0.266300
      6 C6         -0.5210   -0.2290    1.4600 ca        1 4D9     -0.073200
      7 C7          0.0950   -0.3800    2.7680 ca        1 4D9      0.078400
      8 N8         -0.8990   -0.3000    3.7590 nc        1 4D9     -0.638100
      9 C9         -2.0640   -0.1070    3.0970 cd        1 4D9      0.415800
     10 C10        -3.4010    0.0660    3.7380 c3        1 4D9     -0.106700
     11 C11        -3.6850   -0.9660    4.8160 c3        1 4D9     -0.060500
     12 C12        -5.1870   -0.7280    5.3490 c         1 4D9      0.936600
     13 N13        -2.7400   -0.9090    5.9720 ny        1 4D9     -0.644800
     14 O14        -6.0460   -0.6260    4.4570 o         1 4D9     -0.758300
     15 O15        -5.3030   -0.6820    6.6010 o         1 4D9     -0.758300
     16 C16        -1.7210   -1.9980    6.0490 c         1 4D9      0.611300
     17 C17        -0.6910   -1.8130    7.0590 cc        1 4D9     -0.227600
     18 O18        -1.8220   -2.9670    5.3020 o         1 4D9     -0.449100
     19 C19         0.3460   -2.7130    7.2170 cd        1 4D9     -0.000200
     20 S20        -0.5900   -0.5190    8.1560 ss        1 4D9      0.065500
     21 C21         0.8160   -1.0980    8.8750 ca        1 4D9     -0.044100
     22 C22         1.2360   -2.3170    8.2690 ca        1 4D9     -0.113800
     23 C23         2.3930   -2.9700    8.7250 ca        1 4D9     -0.068000
     24 C24         3.1130   -2.4120    9.7650 ca        1 4D9     -0.134000
     25 C25         2.6960   -1.2060   10.3640 ca        1 4D9     -0.090000
     26 C26         1.5580   -0.5480    9.9280 ca        1 4D9     -0.105000
     27 H1         -0.2270   -0.1540   -0.7010 ha        1 4D9      0.140000
     28 H2          2.2380   -0.4940   -0.4810 ha        1 4D9      0.135000
     29 H3          3.3060   -0.7500    1.7290 ha        1 4D9      0.134000
     30 H4          1.9680   -0.6810    3.8360 ha        1 4D9      0.143000
     31 H10        -4.2360   -0.0380    2.9870 hc        1 4D9      0.101200
     32 H10A       -3.4640    1.1080    4.1570 hc        1 4D9      0.101200
     33 H11        -3.6580   -2.0040    4.3810 hx        1 4D9      0.118700
     34 HN13       -3.3570   -0.9630    6.8250 hn        1 4D9      0.471800
     35 H19         0.4810   -3.6200    6.6170 ha        1 4D9      0.182000
     36 H23         2.7100   -3.9120    8.2520 ha        1 4D9      0.147000
     37 H24         4.0220   -2.9090   10.1370 ha        1 4D9      0.144000
     38 H25         3.2880   -0.7860   11.1920 ha        1 4D9      0.144000
     39 H26         1.2370    0.3930   10.4000 ha        1 4D9      0.148000
     40 HN5        -2.5960    0.0420    1.0230 hn        1 4D9      0.314700
     41 H132       -2.2570   -0.0060    5.9790 hn        1 4D9      0.471800
@<TRIPOS>BOND
     1    1    2 ar  
     2    1    6 ar  
     3    1   27 1   
     4    2    3 ar  
     5    2   28 1   
     6    3    4 ar  
     7    3   29 1   
     8    4    7 ar  
     9    4   30 1   
    10    5    6 1   
    11    5    9 1   
    12    5   40 1   
    13    6    7 ar  
    14    7    8 1   
    15    8    9 2   
    16    9   10 1   
    17   10   11 1   
    18   10   31 1   
    19   10   32 1   
    20   11   12 1   
    21   11   13 1   
    22   11   33 1   
    23   12   14 1   
    24   12   15 1   
    25   13   16 1   
    26   13   34 1   
    27   13   41 1   
    28   16   17 1   
    29   16   18 2   
    30   17   19 2   
    31   17   20 1   
    32   19   22 1   
    33   19   35 1   
    34   20   21 1   
    35   21   22 ar  
    36   21   26 ar  
    37   22   23 ar  
    38   23   24 ar  
    39   23   36 1   
    40   24   25 ar  
    41   24   37 1   
    42   25   26 ar  
    43   25   38 1   
    44   26   39 1   
@<TRIPOS>SUBSTRUCTURE
     1 4D9         1 TEMP              0 ****  ****    0 ROOT
