@<TRIPOS>MOLECULE
4D9
   40    33     1     0     0
SMALL
bcc


@<TRIPOS>ATOM
      1 C1         -2.8900    0.1480   -5.5330 c1        1 4D9     -0.125000
      2 C2         -2.6990   -0.1220   -6.8790 c1        1 4D9     -0.146500
      3 C3         -1.4160   -0.2640   -7.3820 c1        1 4D9     -0.146500
      4 C4         -0.3230   -0.1370   -6.5390 c1        1 4D9     -0.087000
      5 N5         -1.6830    0.5220   -3.3460 n2        1 4D9     -0.212000
      6 C6         -1.7800    0.2780   -4.6770 c1        1 4D9     -0.036000
      7 C7         -0.5170    0.1370   -5.1720 c1        1 4D9     -0.072000
      8 N8          0.3550    0.2960   -4.1450 n1        1 4D9     -0.187000
      9 C9         -0.3650    0.5330   -3.0160 c1        1 4D9      0.042000
     10 C10         0.4860    0.8610   -1.8090 c2        1 4D9     -0.100000
     11 C11         0.3460   -0.2390   -0.7810 c3        1 4D9     -0.075000
     12 C12        -1.1090   -0.3860   -0.3960 c2        1 4D9      0.327000
     13 N13         1.1100    0.0900    0.3710 n         1 4D9     -0.331000
     14 O14        -1.7430   -1.4250   -0.7190 o         1 4D9     -0.557000
     15 O15        -1.6790    0.5190    0.2680 o         1 4D9     -0.557000
     16 C16         1.2640   -0.8590    1.4150 c2        1 4D9      0.358000
     17 C17         1.3220   -0.3970    2.8570 c2        1 4D9     -0.370000
     18 O18         1.3570   -2.0410    1.1520 o         1 4D9     -0.379000
     19 C19         0.6090   -1.1720    3.8480 c1        1 4D9     -0.097000
     20 S20         2.1030    0.7150    3.5960 ss        1 4D9      0.548000
     21 C21         1.8110    0.5590    5.1290 c1        1 4D9     -0.315000
     22 C22         0.9270   -0.5530    5.2970 c1        1 4D9     -0.079000
     23 C23         0.5040   -0.9150    6.5660 c1        1 4D9     -0.086000
     24 C24         0.9410   -0.1920    7.6820 c1        1 4D9     -0.146500
     25 C25         1.8140    0.9070    7.5160 c1        1 4D9     -0.146500
     26 C26         2.2420    1.2740    6.2360 c1        1 4D9     -0.097000
     27 H1         -3.7940    0.2600   -5.1810 ha        1 4D9      0.133000
     28 H2         -3.4690   -0.2120   -7.4730 ha        1 4D9      0.117750
     29 H3         -1.2820   -0.4550   -8.3300 ha        1 4D9      0.117750
     30 H4          0.5810   -0.2380   -6.8940 ha        1 4D9      0.130000
     31 H10         1.4230    0.9350   -2.0810 ha        1 4D9      0.111000
     32 H10A        0.1900    1.7090   -1.4220 ha        1 4D9      0.111000
     33 H11         0.6710   -1.0810   -1.1570 h1        1 4D9      0.119000
     34 HN13        1.5180    0.9030    0.4310 hn        1 4D9      0.239000
     35 H19         0.0350   -1.9400    3.6680 DU        1 4D9      0.245500
     36 H23        -0.0860   -1.6840    6.6830 ha        1 4D9      0.133000
     37 H24         0.6430   -0.4470    8.5760 ha        1 4D9      0.117750
     38 H25         2.1180    1.4100    8.2950 ha        1 4D9      0.117750
     39 H26         2.8450    2.0330    6.1220 ha        1 4D9      0.134000
     40 HN5        -2.3800    0.6680   -2.7760 DU        1 4D9      0.245500
@<TRIPOS>BOND
     1    1    6 1   
     2    1   27 1   
     3    2    3 1   
     4    2   28 1   
     5    3   29 1   
     6    4    7 1   
     7    4   30 1   
     8    5    6 1   
     9    5    9 1   
    10    8    9 1   
    11   10   11 1   
    12   10   31 1   
    13   10   32 1   
    14   11   12 1   
    15   11   13 1   
    16   11   33 1   
    17   12   14 1   
    18   12   15 1   
    19   13   16 1   
    20   13   34 1   
    21   16   17 1   
    22   16   18 1   
    23   17   19 1   
    24   17   20 1   
    25   19   22 1   
    26   20   21 1   
    27   21   26 1   
    28   22   23 1   
    29   23   36 1   
    30   24   25 1   
    31   24   37 1   
    32   25   38 1   
    33   26   39 1   
@<TRIPOS>SUBSTRUCTURE
     1 4D9         1 TEMP              0 ****  ****    0 ROOT
