@<TRIPOS>MOLECULE
4DB
   37    38     1     0     0
SMALL
bcc


@<TRIPOS>ATOM
      1 C           4.9420    0.2830   -1.2420 c         1 4DB      0.890600
      2 N           4.7430    1.0950    1.1600 n3        1 4DB     -0.896800
      3 O           5.9210    1.0760   -1.3480 o         1 4DB     -0.840300
      4 CA          4.2560    0.1520    0.1620 c3        1 4DB      0.019500
      5 CB          2.7420    0.2140   -0.0440 c3        1 4DB     -0.087400
      6 CAD        -6.1940   -0.1760   -1.0650 c3        1 4DB      0.182600
      7 CAE        -5.2070    2.0380   -0.7520 c3        1 4DB      0.182600
      8 CAF        -3.8160   -1.3620   -0.0970 ca        1 4DB     -0.197000
      9 CAG        -2.6030   -1.9740    0.2480 ca        1 4DB     -0.034000
     10 CAH        -2.8220    0.8580    0.1690 ca        1 4DB     -0.125000
     11 CAI        -3.9570    0.0430   -0.1370 ca        1 4DB      0.165600
     12 CAJ        -0.1080   -1.5060    0.9220 c         1 4DB      0.725100
     13 CAK        -0.2990    0.8220    0.8530 c         1 4DB      0.716100
     14 CAL        -1.5210   -1.1760    0.5430 ca        1 4DB     -0.181600
     15 CAM        -1.6430    0.2380    0.5000 ca        1 4DB     -0.104600
     16 NAN        -5.2050    0.6390   -0.4060 nh        1 4DB     -0.655000
     17 NAO         0.5690   -0.2690    1.1110 n         1 4DB     -0.500400
     18 CAR         2.0030   -0.1450    1.2430 c3        1 4DB      0.097000
     19 OXT         4.4920   -0.4300   -2.1800 o         1 4DB     -0.840300
     20 HN          5.7440    1.1490    1.0540 hn        1 4DB      0.334300
     21 HNA         4.3870    2.0080    0.9380 hn        1 4DB      0.334300
     22 HA          4.5200   -0.8780    0.5430 h1        1 4DB      0.042700
     23 HB          2.4380    1.2370   -0.3840 hc        1 4DB      0.060700
     24 HBA         2.4950   -0.5090   -0.8670 hc        1 4DB      0.060700
     25 HAD        -6.5300   -0.9810   -0.3580 h1        1 4DB      0.038700
     26 HADA       -7.0870    0.4470   -1.3340 h1        1 4DB      0.038700
     27 HADB       -5.8000   -0.6610   -2.0000 h1        1 4DB      0.038700
     28 HAE        -4.5170    2.2720   -1.6090 h1        1 4DB      0.038700
     29 HAEA       -6.2450    2.3610   -1.0300 h1        1 4DB      0.038700
     30 HAEB       -4.8840    2.6350    0.1430 h1        1 4DB      0.038700
     31 HAF        -4.6660   -2.0180   -0.3360 ha        1 4DB      0.133000
     32 HAG        -2.5230   -3.0710    0.2720 ha        1 4DB      0.150000
     33 HAH        -2.8700    1.9560    0.1440 ha        1 4DB      0.155000
     34 HAR         2.3860   -1.1320    1.6320 h1        1 4DB      0.068700
     35 HARA        2.1930    0.6510    2.0180 h1        1 4DB      0.068700
     36 OAP         0.3790   -2.6270    1.0890 o         1 4DB     -0.578500
     37 OAQ        -0.0160    2.0190    0.9440 o         1 4DB     -0.574500
@<TRIPOS>BOND
     1    1    3 1   
     2    1    4 1   
     3    1   19 1   
     4    2    4 1   
     5    2   20 1   
     6    2   21 1   
     7    4    5 1   
     8    4   22 1   
     9    5   18 1   
    10    5   23 1   
    11    5   24 1   
    12    6   16 1   
    13    6   25 1   
    14    6   26 1   
    15    6   27 1   
    16    7   16 1   
    17    7   28 1   
    18    7   29 1   
    19    7   30 1   
    20    8    9 ar  
    21    8   11 ar  
    22    8   31 1   
    23    9   14 ar  
    24    9   32 1   
    25   10   11 ar  
    26   10   15 ar  
    27   10   33 1   
    28   11   16 1   
    29   12   14 1   
    30   12   17 1   
    31   12   36 2   
    32   13   15 1   
    33   13   17 1   
    34   13   37 2   
    35   14   15 ar  
    36   17   18 1   
    37   18   34 1   
    38   18   35 1   
@<TRIPOS>SUBSTRUCTURE
     1 4DB         1 TEMP              0 ****  ****    0 ROOT
