@<TRIPOS>MOLECULE
4DC
   47    49     1     0     0
SMALL
bcc


@<TRIPOS>ATOM
      1 C1          0.4330    0.3190    0.1890 ca        1 4DC     -0.026300
      2 C2          0.9110   -0.6230   -0.7320 ca        1 4DC     -0.148500
      3 C3          2.1460   -1.2310   -0.5290 ca        1 4DC     -0.015500
      4 C4          2.9330   -0.9120    0.5850 ca        1 4DC     -0.381500
      5 C5          2.4420    0.0250    1.5020 ca        1 4DC     -0.015500
      6 C6          1.2080    0.6380    1.3110 ca        1 4DC     -0.148500
      7 C8         -1.9400   -0.0520   -0.4020 c         1 4DC      0.660100
      8 O9         -2.3180   -0.2270   -1.5760 o         1 4DC     -0.585100
      9 C10        -0.8850    0.9920   -0.0270 c3        1 4DC     -0.091400
     10 C11        -0.8050    2.0420   -1.1330 c3        1 4DC     -0.061400
     11 C12        -0.0420    3.2730   -0.6870 c3        1 4DC     -0.071700
     12 C13         0.2340    4.2130   -1.8610 c3        1 4DC     -0.077400
     13 C14         0.1560    5.6330   -1.3210 c3        1 4DC     -0.078400
     14 C15        -0.5040    5.5680    0.0510 c3        1 4DC     -0.078400
     15 C16        -0.7960    4.1040    0.3520 c3        1 4DC     -0.077400
     16 C17        -3.4310   -1.7920    0.4780 cc        1 4DC      0.479300
     17 S18        -4.1270   -2.2070   -1.0570 ss        1 4DC      0.018700
     18 C19        -5.0810   -3.3610   -0.3340 cc        1 4DC     -0.313400
     19 C20        -4.8560   -3.4080    1.0350 cd        1 4DC      0.355200
     20 N21        -3.9180   -2.5200    1.5150 nd        1 4DC     -0.686000
     21 S22         4.4120   -1.6650    0.8350 sy        1 4DC      1.397300
     22 C23         5.4210   -0.6020   -0.0130 c3        1 4DC     -0.358300
     23 O24         4.7470   -1.6190    2.1960 o         1 4DC     -0.654800
     24 O25         4.4320   -2.9130    0.1990 o         1 4DC     -0.654800
     25 H2          0.3010   -0.8800   -1.6140 ha        1 4DC      0.151000
     26 H3          2.5070   -1.9890   -1.2470 ha        1 4DC      0.159000
     27 H5          3.0420    0.2660    2.3990 ha        1 4DC      0.159000
     28 H6          0.8440    1.3770    2.0410 ha        1 4DC      0.151000
     29 HN7        -2.1080   -0.6600    1.5640 hn        1 4DC      0.341500
     30 H10        -1.2040    1.5140    0.9230 hc        1 4DC      0.081700
     31 H11        -0.3070    1.5900   -2.0310 hc        1 4DC      0.065700
     32 H11A       -1.8470    2.3250   -1.4400 hc        1 4DC      0.065700
     33 H12         0.9390    2.9450   -0.2430 hc        1 4DC      0.051700
     34 H13         1.2370    4.0030   -2.3060 hc        1 4DC      0.042700
     35 H13A       -0.5290    4.0620   -2.6670 hc        1 4DC      0.042700
     36 H14         1.1810    6.0750   -1.2370 hc        1 4DC      0.043200
     37 H14A       -0.4310    6.2860   -2.0140 hc        1 4DC      0.043200
     38 H15         0.1740    5.9990    0.8300 hc        1 4DC      0.043200
     39 H15A       -1.4480    6.1670    0.0660 hc        1 4DC      0.043200
     40 H16        -1.8970    3.9080    0.2860 hc        1 4DC      0.042700
     41 H16A       -0.4700    3.8340    1.3870 hc        1 4DC      0.042700
     42 H19        -5.7860   -3.9930   -0.8700 h4        1 4DC      0.182000
     43 H20        -5.3480   -4.0770    1.7510 h4        1 4DC      0.044100
     44 H23         5.4200    0.4340    0.4070 h1        1 4DC      0.114700
     45 H23A        6.4860   -0.9490    0.0170 h1        1 4DC      0.114700
     46 H23B        5.1540   -0.5100   -1.0930 h1        1 4DC      0.114700
     47 N7         -2.4650   -0.7980    0.6430 n         1 4DC     -0.521400
@<TRIPOS>BOND
     1    1    2 ar  
     2    1    6 ar  
     3    1    9 1   
     4    2    3 ar  
     5    2   25 1   
     6    3    4 ar  
     7    3   26 1   
     8    4    5 ar  
     9    4   21 1   
    10    5    6 ar  
    11    5   27 1   
    12    6   28 1   
    13    7    8 2   
    14    7    9 1   
    15    7   47 1   
    16    9   10 1   
    17    9   30 1   
    18   10   11 1   
    19   10   31 1   
    20   10   32 1   
    21   11   12 1   
    22   11   15 1   
    23   11   33 1   
    24   12   13 1   
    25   12   34 1   
    26   12   35 1   
    27   13   14 1   
    28   13   36 1   
    29   13   37 1   
    30   14   15 1   
    31   14   38 1   
    32   14   39 1   
    33   15   40 1   
    34   15   41 1   
    35   16   17 1   
    36   16   20 2   
    37   16   47 1   
    38   17   18 1   
    39   18   19 2   
    40   18   42 1   
    41   19   20 1   
    42   19   43 1   
    43   21   22 1   
    44   21   23 2   
    45   21   24 2   
    46   22   44 1   
    47   22   45 1   
    48   22   46 1   
    49   29   47 1   
@<TRIPOS>SUBSTRUCTURE
     1 4DC         1 TEMP              0 ****  ****    0 ROOT
