@<TRIPOS>MOLECULE
4DC
   47    43     1     0     0
SMALL
bcc


@<TRIPOS>ATOM
      1 C1          0.1800    0.0280    0.8530 c1        1 4DC     -0.026000
      2 C2          1.5690    0.0670    0.8490 c1        1 4DC     -0.080000
      3 C3          2.2920    0.0640    2.0900 c1        1 4DC     -0.080000
      4 C4          1.6160    0.0230    3.2680 c1        1 4DC     -0.823000
      5 C5          0.2020   -0.0160    3.2740 c1        1 4DC     -0.016000
      6 C6         -0.5060   -0.0130    2.0520 c1        1 4DC     -0.152000
      7 N7         -1.1850   -2.3130   -1.3510 n         1 4DC     -0.292000
      8 C8         -0.2230   -1.2720   -1.2070 c2        1 4DC      0.303000
      9 O9          0.9250   -1.4230   -1.6510 o         1 4DC     -0.342000
     10 C10        -0.5800   -0.0110   -0.4480 c3        1 4DC     -0.089000
     11 C11        -0.2150    1.2180   -1.2930 c3        1 4DC     -0.143000
     12 C12        -1.1410    2.2280   -1.0560 c3        1 4DC     -0.111000
     13 C13        -0.4550    3.6340   -1.1750 c3        1 4DC     -0.156000
     14 C14        -0.9250    4.1590   -2.3330 c3        1 4DC     -0.157000
     15 C15        -2.3990    3.4710   -2.5850 c3        1 4DC     -0.157000
     16 C16        -2.2930    2.2100   -2.1730 c3        1 4DC     -0.156000
     17 C17        -0.8090   -3.5630   -2.0270 c2        1 4DC     -0.178000
     18 S18        -0.3820   -3.6990   -3.4930 ss        1 4DC      0.606000
     19 C19        -0.1200   -5.1870   -3.7630 c1        1 4DC     -0.519000
     20 C20        -0.3700   -5.9060   -2.5500 c1        1 4DC     -0.111000
     21 N21        -0.8090   -4.8750   -1.4450 n2        1 4DC     -0.164000
     22 S22         2.5120   -0.0430    4.7990 s4        1 4DC      2.077800
     23 C23         2.7590   -1.7690    5.3370 c2        1 4DC     -0.939000
     24 O24         3.7350    0.6300    4.6970 o         1 4DC     -0.542900
     25 O25         1.8670    0.7080    5.7950 o         1 4DC     -0.542900
     26 H2          2.0900    0.0990   -0.0630 ha        1 4DC      0.156000
     27 H3          3.2500    0.0920    2.0890 ha        1 4DC      0.156000
     28 H5         -0.3160   -0.0470    4.1760 ha        1 4DC      0.160000
     29 H6         -1.4430   -0.0400    2.0550 ha        1 4DC      0.145000
     30 HN7        -2.0910   -2.1490   -1.1350 hn        1 4DC      0.255000
     31 H10        -1.6000   -0.0070   -0.2530 hc        1 4DC      0.129000
     32 H11         0.7240    1.5490   -1.0330 hc        1 4DC      0.107000
     33 H11A       -0.2260    0.9910   -2.1950 hc        1 4DC      0.107000
     34 H12        -1.5610    2.1140   -0.1150 hc        1 4DC      0.092000
     35 H13         0.5450    3.5310   -1.2190 hc        1 4DC      0.082250
     36 H13A       -0.7070    4.2000   -0.4190 hc        1 4DC      0.082250
     37 H14        -0.2790    3.9260   -3.1210 hc        1 4DC      0.082250
     38 H14A       -1.0130    5.0850   -2.2500 hc        1 4DC      0.082250
     39 H15        -2.6300    3.4950   -3.5590 hc        1 4DC      0.082250
     40 H15A       -3.1210    3.9640   -2.0370 hc        1 4DC      0.082250
     41 H16        -2.0300    1.6210   -2.9340 hc        1 4DC      0.082250
     42 H16A       -3.1550    1.9000   -1.7720 hc        1 4DC      0.082250
     43 H19         0.1620   -5.5700   -4.6020 DU        1 4DC      0.181000
     44 H20        -0.2800   -6.9090   -2.4270 DU        1 4DC      0.181000
     45 H23         1.9200   -2.1840    5.4640 ha        1 4DC      0.155333
     46 H23A        3.2710   -1.7760    6.2050 ha        1 4DC      0.155333
     47 H23B        3.2440   -2.2360    4.6800 ha        1 4DC      0.155333
@<TRIPOS>BOND
     1    1    6 1   
     2    1   10 1   
     3    2    3 1   
     4    2   26 1   
     5    3   27 1   
     6    4    5 1   
     7    4   22 1   
     8    5   28 1   
     9    6   29 1   
    10    7    8 1   
    11    7   17 1   
    12    7   30 1   
    13    8    9 1   
    14    8   10 1   
    15   10   11 1   
    16   10   31 1   
    17   11   12 1   
    18   11   32 1   
    19   11   33 1   
    20   12   13 1   
    21   12   16 1   
    22   12   34 1   
    23   13   14 1   
    24   13   35 1   
    25   13   36 1   
    26   14   15 1   
    27   14   37 1   
    28   14   38 1   
    29   15   16 1   
    30   15   39 1   
    31   15   40 1   
    32   16   41 1   
    33   16   42 1   
    34   17   18 1   
    35   17   21 1   
    36   18   19 1   
    37   19   20 1   
    38   20   21 1   
    39   22   24 1   
    40   22   25 1   
    41   23   45 1   
    42   23   46 1   
    43   23   47 1   
@<TRIPOS>SUBSTRUCTURE
     1 4DC         1 TEMP              0 ****  ****    0 ROOT
