@<TRIPOS>MOLECULE
4DC
   47    49     1     0     0
SMALL
bcc


@<TRIPOS>ATOM
      1 C1         -0.0250    0.1120   -0.2960 ca        1 4DC     -0.026300
      2 C2          1.3070   -0.2510   -0.0620 ca        1 4DC     -0.148500
      3 C3          1.7520   -0.4690    1.2380 ca        1 4DC     -0.015500
      4 C4          0.8870   -0.3240    2.3300 ca        1 4DC     -0.381500
      5 C5         -0.4440    0.0320    2.0840 ca        1 4DC     -0.015500
      6 C6         -0.9000    0.2510    0.7880 ca        1 4DC     -0.148500
      7 C8         -0.0370   -0.7610   -2.6110 c         1 4DC      0.660100
      8 O9          0.9370   -0.6300   -3.3760 o         1 4DC     -0.585100
      9 C10        -0.5110    0.3650   -1.6890 c3        1 4DC     -0.091400
     10 C11        -0.0010    1.7010   -2.2260 c3        1 4DC     -0.062400
     11 C12        -0.7000    2.8760   -1.5720 c3        1 4DC     -0.071700
     12 C13        -0.0280    4.1990   -1.9400 c3        1 4DC     -0.077400
     13 C14        -1.1300    5.2430   -2.0420 c3        1 4DC     -0.078400
     14 C15        -2.4610    4.5040   -2.0930 c3        1 4DC     -0.078400
     15 C16        -2.1640    3.0140   -1.9910 c3        1 4DC     -0.077400
     16 C17        -0.4600   -3.0690   -3.3270 cc        1 4DC      0.479300
     17 S18         0.8380   -3.1280   -4.4780 ss        1 4DC      0.018700
     18 C19         0.4470   -4.6970   -4.8670 cc        1 4DC     -0.313400
     19 C20        -0.6420   -5.1380   -4.1270 cd        1 4DC      0.355200
     20 N21        -1.1720   -4.2230   -3.2450 nd        1 4DC     -0.686000
     21 S22         1.4240   -0.6090    3.8950 sy        1 4DC      1.397300
     22 C23         1.9720    0.9420    4.2960 c3        1 4DC     -0.358300
     23 O24         0.3380   -0.9330    4.7210 o         1 4DC     -0.654800
     24 O25         2.5160   -1.4860    3.8770 o         1 4DC     -0.654800
     25 H2          1.9980   -0.3660   -0.9140 ha        1 4DC      0.151500
     26 H3          2.7990   -0.7770    1.4150 ha        1 4DC      0.159000
     27 H5         -1.1440    0.1240    2.9350 ha        1 4DC      0.159000
     28 H6         -1.9500    0.5360    0.6170 ha        1 4DC      0.151500
     29 HN7        -1.5060   -2.0260   -1.9020 hn        1 4DC      0.341500
     30 H10        -1.6390    0.3980   -1.6950 hc        1 4DC      0.081700
     31 H11        -0.1600    1.7280   -3.3370 hc        1 4DC      0.065700
     32 H11A        1.1050    1.7690   -2.0490 hc        1 4DC      0.065700
     33 H12        -0.6550    2.7410   -0.4550 hc        1 4DC      0.051700
     34 H13         0.7310    4.4840   -1.1710 hc        1 4DC      0.042700
     35 H13A        0.5070    4.1030   -2.9200 hc        1 4DC      0.042700
     36 H14        -0.9910    5.8740   -2.9550 hc        1 4DC      0.043200
     37 H14A       -1.1010    5.9280   -1.1580 hc        1 4DC      0.043200
     38 H15        -3.1190    4.8300   -1.2490 hc        1 4DC      0.043200
     39 H15A       -3.0050    4.7300   -3.0440 hc        1 4DC      0.043200
     40 H16        -2.3370    2.5160   -2.9790 hc        1 4DC      0.042700
     41 H16A       -2.8360    2.5210   -1.2460 hc        1 4DC      0.042700
     42 H19         0.9810   -5.2920   -5.6050 h4        1 4DC      0.182000
     43 H20        -1.1050   -6.1300   -4.1840 h4        1 4DC      0.044100
     44 H23         2.4030    0.9610    5.3300 h1        1 4DC      0.114700
     45 H23A        2.7780    1.3130    3.6160 h1        1 4DC      0.114700
     46 H23B        1.1630    1.7120    4.2820 h1        1 4DC      0.114700
     47 N7         -0.7580   -1.9440   -2.5570 n         1 4DC     -0.521400
@<TRIPOS>BOND
     1    1    2 ar  
     2    1    6 ar  
     3    1    9 1   
     4    2    3 ar  
     5    2   25 1   
     6    3    4 ar  
     7    3   26 1   
     8    4    5 ar  
     9    4   21 1   
    10    5    6 ar  
    11    5   27 1   
    12    6   28 1   
    13    7    8 2   
    14    7    9 1   
    15    7   47 1   
    16    9   10 1   
    17    9   30 1   
    18   10   11 1   
    19   10   31 1   
    20   10   32 1   
    21   11   12 1   
    22   11   15 1   
    23   11   33 1   
    24   12   13 1   
    25   12   34 1   
    26   12   35 1   
    27   13   14 1   
    28   13   36 1   
    29   13   37 1   
    30   14   15 1   
    31   14   38 1   
    32   14   39 1   
    33   15   40 1   
    34   15   41 1   
    35   16   17 1   
    36   16   20 2   
    37   16   47 1   
    38   17   18 1   
    39   18   19 2   
    40   18   42 1   
    41   19   20 1   
    42   19   43 1   
    43   21   22 1   
    44   21   23 2   
    45   21   24 2   
    46   22   44 1   
    47   22   45 1   
    48   22   46 1   
    49   29   47 1   
@<TRIPOS>SUBSTRUCTURE
     1 4DC         1 TEMP              0 ****  ****    0 ROOT
