@<TRIPOS>MOLECULE
4DE
   38    39     1     0     0
SMALL
bcc


@<TRIPOS>ATOM
      1 O3          0.8490   -0.0390    4.4440 o         1 4DE     -0.558000
      2 C2          0.1690    0.0810    3.4180 c         1 4DE      0.690700
      3 O4         -1.1590    0.4060    3.5750 os        1 4DE     -0.452900
      4 C5         -1.6460    0.5710    4.9140 c3        1 4DE      0.141400
      5 C6         -1.9620   -0.7640    5.5440 c3        1 4DE     -0.125100
      6 C1          0.5820   -0.0670    2.0440 cc        1 4DE     -0.329900
      7 C7          1.9090   -0.4600    1.5910 cc        1 4DE      0.383600
      8 C8          3.0570   -0.7940    2.4570 c3        1 4DE     -0.141400
      9 N9          1.9350   -0.4900    0.2320 nd        1 4DE     -0.514800
     10 N10         0.7010   -0.1460   -0.1980 na        1 4DE      0.165300
     11 C12        -0.1720    0.1320    0.8640 cd        1 4DE      0.004400
     12 C13        -1.5760    0.5540    0.7330 c3        1 4DE     -0.050800
     13 C11         0.3720   -0.0630   -1.5850 ca        1 4DE     -0.026200
     14 C14        -0.8360   -0.6050   -2.0610 ca        1 4DE     -0.087500
     15 C15        -1.1590   -0.5190   -3.4130 ca        1 4DE     -0.174000
     16 C16        -0.2690    0.0950   -4.3010 ca        1 4DE      0.131100
     17 C19         0.9500    0.6250   -3.8380 ca        1 4DE     -0.174000
     18 C20         1.2680    0.5460   -2.4900 ca        1 4DE     -0.087500
     19 O17        -0.4870    0.2360   -5.6550 os        1 4DE     -0.321900
     20 C18        -1.6940   -0.3240   -6.1620 c3        1 4DE      0.111700
     21 H51        -2.5730    1.1880    4.7660 h1        1 4DE      0.060200
     22 H52        -0.8970    1.1380    5.5270 h1        1 4DE      0.060200
     23 H61        -2.4260   -0.6030    6.5460 hc        1 4DE      0.048367
     24 H62        -2.6700   -1.3430    4.9050 hc        1 4DE      0.048367
     25 H63        -1.0250   -1.3590    5.6680 hc        1 4DE      0.048367
     26 H81         3.1470   -1.9060    2.5510 hc        1 4DE      0.065033
     27 H82         4.0130   -0.3960    2.0350 hc        1 4DE      0.065033
     28 H83         2.8980   -0.3610    3.4770 hc        1 4DE      0.065033
     29 H131       -2.2480   -0.3360    0.8350 hc        1 4DE      0.068700
     30 H132       -1.8230    1.2710    1.5590 hc        1 4DE      0.068700
     31 H133       -1.7770    1.0480   -0.2500 hc        1 4DE      0.068700
     32 H14        -1.5360   -1.1040   -1.3720 ha        1 4DE      0.153000
     33 H15        -2.1100   -0.9430   -3.7650 ha        1 4DE      0.151000
     34 H19         1.6400    1.0970   -4.5530 ha        1 4DE      0.151000
     35 H20         2.2280    0.9560   -2.1370 ha        1 4DE      0.153000
     36 H181       -1.6400   -0.1040   -7.2580 h1        1 4DE      0.047367
     37 H182       -1.7240   -1.4250   -5.9810 h1        1 4DE      0.047367
     38 H183       -2.5820    0.1750   -5.7030 h1        1 4DE      0.047367
@<TRIPOS>BOND
     1    1    2 2   
     2    2    3 1   
     3    2    6 1   
     4    3    4 1   
     5    4    5 1   
     6    4   21 1   
     7    4   22 1   
     8    5   23 1   
     9    5   24 1   
    10    5   25 1   
    11    6    7 1   
    12    6   11 2   
    13    7    8 1   
    14    7    9 2   
    15    8   26 1   
    16    8   27 1   
    17    8   28 1   
    18    9   10 1   
    19   10   11 1   
    20   10   13 1   
    21   11   12 1   
    22   12   29 1   
    23   12   30 1   
    24   12   31 1   
    25   13   14 ar  
    26   13   18 ar  
    27   14   15 ar  
    28   14   32 1   
    29   15   16 ar  
    30   15   33 1   
    31   16   17 ar  
    32   16   19 1   
    33   17   18 ar  
    34   17   34 1   
    35   18   35 1   
    36   19   20 1   
    37   20   36 1   
    38   20   37 1   
    39   20   38 1   
@<TRIPOS>SUBSTRUCTURE
     1 4DE         1 TEMP              0 ****  ****    0 ROOT
