@<TRIPOS>MOLECULE
4DE
   38    39     1     0     0
SMALL
bcc


@<TRIPOS>ATOM
      1 O3          1.0970    1.4690    0.7250 o         1 4DE     -0.558000
      2 C2          1.5010    0.4240    0.2010 c         1 4DE      0.690700
      3 O4          1.3520   -0.7400    0.9190 os        1 4DE     -0.452900
      4 C5          0.7480   -0.6450    2.2160 c3        1 4DE      0.141400
      5 C6          1.7550   -0.2090    3.2520 c3        1 4DE     -0.125100
      6 C1          2.1150    0.2460   -1.0920 cc        1 4DE     -0.329900
      7 C7          2.4420    1.3090   -2.0330 cc        1 4DE      0.383600
      8 C8          2.2220    2.7530   -1.8210 c3        1 4DE     -0.141400
      9 N9          3.0040    0.7710   -3.1480 nd        1 4DE     -0.514800
     10 N10         3.0560   -0.5670   -2.9630 na        1 4DE      0.165300
     11 C12         2.5200   -0.9520   -1.7260 cd        1 4DE      0.004400
     12 C13         2.4090   -2.3330   -1.2300 c3        1 4DE     -0.050800
     13 C11         3.5820   -1.4540   -3.9500 ca        1 4DE     -0.026200
     14 C14         4.4490   -2.4970   -3.5770 ca        1 4DE     -0.087500
     15 C15         4.9570   -3.3650   -4.5400 ca        1 4DE     -0.174000
     16 C16         4.6150   -3.1870   -5.8840 ca        1 4DE      0.131100
     17 C19         3.7610   -2.1360   -6.2710 ca        1 4DE     -0.174000
     18 C20         3.2490   -1.2760   -5.3120 ca        1 4DE     -0.087500
     19 O17         5.0570   -3.9860   -6.9180 os        1 4DE     -0.321900
     20 C18         5.9540   -5.0340   -6.5660 c3        1 4DE      0.111700
     21 H51         0.3940   -1.6950    2.4010 h1        1 4DE      0.060200
     22 H52        -0.1240    0.0590    2.1820 h1        1 4DE      0.060200
     23 H61         1.2860   -0.2340    4.2640 hc        1 4DE      0.048367
     24 H62         2.6430   -0.8850    3.2480 hc        1 4DE      0.048367
     25 H63         2.0990    0.8320    3.0360 hc        1 4DE      0.048367
     26 H81         1.8790    3.2530   -2.7600 hc        1 4DE      0.065033
     27 H82         1.4520    2.9040   -1.0220 hc        1 4DE      0.065033
     28 H83         3.1770    3.2360   -1.4910 hc        1 4DE      0.065033
     29 H131        2.3840   -3.0780   -2.0640 hc        1 4DE      0.068700
     30 H132        3.2790   -2.5660   -0.5640 hc        1 4DE      0.068700
     31 H133        1.4720   -2.4320   -0.6230 hc        1 4DE      0.068700
     32 H14         4.7370   -2.6360   -2.5230 ha        1 4DE      0.153000
     33 H15         5.6300   -4.1770   -4.2280 ha        1 4DE      0.151000
     34 H19         3.5100   -2.0080   -7.3340 ha        1 4DE      0.151000
     35 H20         2.5880   -0.4510   -5.6230 ha        1 4DE      0.153000
     36 H181        6.8840   -4.6200   -6.1050 h1        1 4DE      0.047367
     37 H182        6.1810   -5.5210   -7.5480 h1        1 4DE      0.047367
     38 H183        5.4600   -5.7570   -5.8720 h1        1 4DE      0.047367
@<TRIPOS>BOND
     1    1    2 2   
     2    2    3 1   
     3    2    6 1   
     4    3    4 1   
     5    4    5 1   
     6    4   21 1   
     7    4   22 1   
     8    5   23 1   
     9    5   24 1   
    10    5   25 1   
    11    6    7 1   
    12    6   11 2   
    13    7    8 1   
    14    7    9 2   
    15    8   26 1   
    16    8   27 1   
    17    8   28 1   
    18    9   10 1   
    19   10   11 1   
    20   10   13 1   
    21   11   12 1   
    22   12   29 1   
    23   12   30 1   
    24   12   31 1   
    25   13   14 ar  
    26   13   18 ar  
    27   14   15 ar  
    28   14   32 1   
    29   15   16 ar  
    30   15   33 1   
    31   16   17 ar  
    32   16   19 1   
    33   17   18 ar  
    34   17   34 1   
    35   18   35 1   
    36   19   20 1   
    37   20   36 1   
    38   20   37 1   
    39   20   38 1   
@<TRIPOS>SUBSTRUCTURE
     1 4DE         1 TEMP              0 ****  ****    0 ROOT
