@<TRIPOS>MOLECULE
4DE
   38    39     1     0     0
SMALL
bcc


@<TRIPOS>ATOM
      1 O3          1.0930    1.4680    0.7230 o         1 4DE     -0.558000
      2 C2          1.5070    0.4240    0.2050 c         1 4DE      0.690700
      3 O4          1.3860   -0.7350    0.9360 os        1 4DE     -0.452900
      4 C5          0.7980   -0.6360    2.2400 c3        1 4DE      0.141400
      5 C6          1.8120   -0.1740    3.2580 c3        1 4DE     -0.125100
      6 C1          2.1060    0.2430   -1.0950 cc        1 4DE     -0.329900
      7 C7          2.4040    1.3010   -2.0500 cc        1 4DE      0.383600
      8 C8          2.1640    2.7430   -1.8500 c3        1 4DE     -0.141400
      9 N9          2.9590    0.7600   -3.1670 nd        1 4DE     -0.514800
     10 N10         3.0340   -0.5750   -2.9700 na        1 4DE      0.165300
     11 C12         2.5220   -0.9550   -1.7220 cd        1 4DE      0.004400
     12 C13         2.4390   -2.3330   -1.2110 c3        1 4DE     -0.050800
     13 C11         3.5610   -1.4630   -3.9560 ca        1 4DE     -0.026200
     14 C14         4.4490   -2.4880   -3.5840 ca        1 4DE     -0.087500
     15 C15         4.9590   -3.3580   -4.5440 ca        1 4DE     -0.174000
     16 C16         4.5960   -3.1990   -5.8860 ca        1 4DE      0.131100
     17 C19         3.7210   -2.1660   -6.2720 ca        1 4DE     -0.174000
     18 C20         3.2070   -1.3040   -5.3140 ca        1 4DE     -0.087500
     19 O17         5.0370   -4.0010   -6.9180 os        1 4DE     -0.321900
     20 C18         5.9540   -5.0320   -6.5670 c3        1 4DE      0.111700
     21 H51         0.4630   -1.6900    2.4410 h1        1 4DE      0.060200
     22 H52        -0.0860    0.0530    2.2110 h1        1 4DE      0.060200
     23 H61         1.3560   -0.1960    4.2760 hc        1 4DE      0.048367
     24 H62         2.7100   -0.8360    3.2480 hc        1 4DE      0.048367
     25 H63         2.1360    0.8700    3.0270 hc        1 4DE      0.048367
     26 H81         1.8010    3.2290   -2.7890 hc        1 4DE      0.065033
     27 H82         1.4010    2.8900   -1.0430 hc        1 4DE      0.065033
     28 H83         3.1150    3.2440   -1.5370 hc        1 4DE      0.065033
     29 H131        2.4140   -3.0870   -2.0370 hc        1 4DE      0.068700
     30 H132        3.3220   -2.5450   -0.5550 hc        1 4DE      0.068700
     31 H133        1.5120   -2.4400   -0.5900 hc        1 4DE      0.068700
     32 H14         4.7540   -2.6120   -2.5320 ha        1 4DE      0.153000
     33 H15         5.6480   -4.1570   -4.2340 ha        1 4DE      0.151000
     34 H19         3.4530   -2.0520   -7.3320 ha        1 4DE      0.151000
     35 H20         2.5290   -0.4920   -5.6240 ha        1 4DE      0.153000
     36 H181        6.8830   -4.6000   -6.1240 h1        1 4DE      0.047367
     37 H182        6.1750   -5.5260   -7.5480 h1        1 4DE      0.047367
     38 H183        5.4800   -5.7560   -5.8600 h1        1 4DE      0.047367
@<TRIPOS>BOND
     1    1    2 2   
     2    2    3 1   
     3    2    6 1   
     4    3    4 1   
     5    4    5 1   
     6    4   21 1   
     7    4   22 1   
     8    5   23 1   
     9    5   24 1   
    10    5   25 1   
    11    6    7 1   
    12    6   11 2   
    13    7    8 1   
    14    7    9 2   
    15    8   26 1   
    16    8   27 1   
    17    8   28 1   
    18    9   10 1   
    19   10   11 1   
    20   10   13 1   
    21   11   12 1   
    22   12   29 1   
    23   12   30 1   
    24   12   31 1   
    25   13   14 ar  
    26   13   18 ar  
    27   14   15 ar  
    28   14   32 1   
    29   15   16 ar  
    30   15   33 1   
    31   16   17 ar  
    32   16   19 1   
    33   17   18 ar  
    34   17   34 1   
    35   18   35 1   
    36   19   20 1   
    37   20   36 1   
    38   20   37 1   
    39   20   38 1   
@<TRIPOS>SUBSTRUCTURE
     1 4DE         1 TEMP              0 ****  ****    0 ROOT
