@<TRIPOS>MOLECULE
4DE
   38    33     1     0     0
SMALL
bcc


@<TRIPOS>ATOM
      1 O3         -2.8370    1.0990    2.3410 o         1 4DE     -0.382000
      2 C2         -1.6570    1.1540    2.2870 c1        1 4DE      0.390000
      3 O4         -0.8910    1.3460    3.4950 o         1 4DE     -0.276000
      4 C5         -1.7150    1.4770    4.7140 c3        1 4DE     -0.010000
      5 C6         -0.8340    1.6890    5.8810 c3        1 4DE     -0.244000
      6 C1         -0.9510    1.1800    0.9180 c2        1 4DE     -0.247000
      7 C7         -0.5080    2.2930    0.2670 c1        1 4DE     -0.039000
      8 C8         -0.8180    3.7790    0.6690 c2        1 4DE     -0.167500
      9 N9          0.1440    1.8930   -0.8350 n2        1 4DE     -0.081000
     10 N10         0.1070    0.5100   -0.8730 n3        1 4DE     -0.074000
     11 C12        -0.5610    0.0850    0.1980 c1        1 4DE      0.037000
     12 C13        -0.8430   -1.3360    0.5480 c2        1 4DE     -0.167500
     13 C11         0.6430   -0.2860   -1.8510 c1        1 4DE      0.020000
     14 C14        -0.1170   -0.6300   -2.9620 c1        1 4DE     -0.113500
     15 C15         0.4300   -1.4270   -3.9510 c1        1 4DE     -0.113500
     16 C16         1.7650   -1.8930   -3.8320 c1        1 4DE      0.086000
     17 C19         2.5180   -1.5510   -2.7300 c1        1 4DE     -0.198000
     18 C20         1.9700   -0.7500   -1.7330 c1        1 4DE     -0.099000
     19 O17         2.3270   -2.6540   -4.8450 os        1 4DE     -0.205000
     20 C18         2.2330   -4.0400   -4.6350 c3        1 4DE     -0.078000
     21 H51        -2.3200    2.2390    4.6190 h1        1 4DE      0.100000
     22 H52        -2.2330    0.6680    4.8430 h1        1 4DE      0.100000
     23 H61        -0.2640    2.4840    5.7240 hc        1 4DE      0.087667
     24 H62        -1.3850    1.8330    6.6890 hc        1 4DE      0.087667
     25 H63        -0.2830    0.9240    6.0050 hc        1 4DE      0.087667
     26 H81        -0.4890    4.3890   -0.0400 ha        1 4DE      0.105167
     27 H82        -1.8130    3.8960    0.7780 ha        1 4DE      0.105167
     28 H83        -0.3530    3.9960    1.5500 ha        1 4DE      0.105167
     29 H131       -1.6300   -1.3800    1.0930 ha        1 4DE      0.105167
     30 H132       -0.0940   -1.7010    1.0350 ha        1 4DE      0.105167
     31 H133       -0.9830   -1.8550   -0.2730 ha        1 4DE      0.105167
     32 H14        -1.0930   -0.2910   -3.0490 ha        1 4DE      0.159500
     33 H15        -0.0970   -1.6670   -4.7230 ha        1 4DE      0.159500
     34 H19         3.4400   -1.8720   -2.6470 ha        1 4DE      0.144000
     35 H20         2.5050   -0.5090   -0.9510 ha        1 4DE      0.146000
     36 H181        2.9490   -4.3330   -3.9530 h1        1 4DE      0.086667
     37 H182        2.3760   -4.5040   -5.4740 h1        1 4DE      0.086667
     38 H183        1.3600   -4.2540   -4.2960 h1        1 4DE      0.086667
@<TRIPOS>BOND
     1    1    2 1   
     2    2    6 1   
     3    3    4 1   
     4    4    5 1   
     5    4   21 1   
     6    4   22 1   
     7    5   23 1   
     8    5   24 1   
     9    5   25 1   
    10    6    7 1   
    11    6   11 1   
    12    7    9 1   
    13    8   26 1   
    14    8   27 1   
    15    8   28 1   
    16    9   10 1   
    17   10   11 1   
    18   10   13 1   
    19   12   29 1   
    20   12   30 1   
    21   12   31 1   
    22   13   18 1   
    23   14   15 1   
    24   14   32 1   
    25   15   33 1   
    26   16   17 1   
    27   16   19 1   
    28   17   34 1   
    29   18   35 1   
    30   19   20 1   
    31   20   36 1   
    32   20   37 1   
    33   20   38 1   
@<TRIPOS>SUBSTRUCTURE
     1 4DE         1 TEMP              0 ****  ****    0 ROOT
