@<TRIPOS>MOLECULE
4DF
   49    53     1     0     0
SMALL
bcc


@<TRIPOS>ATOM
      1 C01         1.3120   -0.1540   -0.4600 c3        1 4DF     -0.124100
      2 C05         2.7920   -0.0660   -0.1340 c3        1 4DF      0.202800
      3 N08         3.1720   -0.0270    1.2720 nh        1 4DF     -0.626700
      4 C09         2.6530    1.0770    2.0110 ca        1 4DF      0.190600
      5 C10         1.7030    0.9380    3.0350 ca        1 4DF     -0.187000
      6 C12         1.2260    2.0450    3.7550 ca        1 4DF     -0.082000
      7 C14         1.6470    3.3390    3.4910 ca        1 4DF     -0.152000
      8 C16         2.5960    3.5020    2.4730 ca        1 4DF     -0.040200
      9 N17         3.2110    4.6430    1.9250 na        1 4DF     -0.022100
     10 N19         4.1070    4.3110    0.9820 nc        1 4DF     -0.513100
     11 C20         4.0670    2.9780    0.8030 cd        1 4DF      0.359800
     12 C22         3.1120    2.3780    1.7280 ca        1 4DF     -0.212900
     13 C23         3.2720   -1.2590    1.9790 ca        1 4DF      0.694200
     14 N24         2.5820   -2.3560    1.5520 nb        1 4DF     -0.784000
     15 C25         2.8110   -3.5540    2.2020 ca        1 4DF      0.876900
     16 N26         2.1750   -4.6900    1.6450 nh        1 4DF     -0.703300
     17 C28         1.9490   -5.8530    2.4190 ca        1 4DF      0.107600
     18 C29         0.6360   -6.3310    2.6030 ca        1 4DF     -0.112000
     19 C31         0.3960   -7.5270    3.2860 ca        1 4DF     -0.116000
     20 C33         1.4690   -8.2350    3.7930 ca        1 4DF     -0.043300
     21 C34         1.4020   -9.5340    4.5570 c3        1 4DF      0.260100
     22 N37         2.7630   -9.8940    4.8720 n3        1 4DF     -0.920100
     23 S39         3.9080   -8.8520    4.3470 sy        1 4DF      1.524200
     24 O40         4.7370   -9.4370    3.3850 o         1 4DF     -0.651800
     25 O41         4.5820   -8.2500    5.4140 o         1 4DF     -0.651800
     26 C42         2.7940   -7.7750    3.6240 ca        1 4DF     -0.336500
     27 C43         3.0390   -6.5990    2.9380 ca        1 4DF      0.044000
     28 N45         3.6410   -3.7130    3.3020 nb        1 4DF     -0.732000
     29 C46         4.2900   -2.6170    3.7110 ca        1 4DF      0.475200
     30 C48         4.1670   -1.3570    3.0940 ca        1 4DF     -0.272200
     31 CL          5.0720   -0.0570    3.6640 cl        1 4DF     -0.040400
     32 H1          0.8760   -1.1280   -0.1330 hc        1 4DF      0.046700
     33 H2          0.7430    0.6720    0.0310 hc        1 4DF      0.046700
     34 H3          1.1850   -0.0650   -1.5670 hc        1 4DF      0.046700
     35 H4          3.2020    0.8880   -0.5800 h1        1 4DF      0.062700
     36 H5          3.3320   -0.9320   -0.6110 h1        1 4DF      0.062700
     37 H6          1.3190   -0.0610    3.2950 ha        1 4DF      0.140000
     38 H7          0.4860    1.8720    4.5520 ha        1 4DF      0.137000
     39 H8          1.2580    4.1960    4.0540 ha        1 4DF      0.142000
     40 H9          3.2530    5.5380    2.3520 hn        1 4DF      0.320700
     41 H10         4.6890    2.4620    0.0700 h4        1 4DF      0.059800
     42 H11         1.4310   -4.4740    1.0080 hn        1 4DF      0.437800
     43 H12        -0.2240   -5.7690    2.2030 ha        1 4DF      0.139000
     44 H13        -0.6350   -7.8880    3.4170 ha        1 4DF      0.145000
     45 H14         0.9080  -10.3290    3.9290 h1        1 4DF      0.062700
     46 H15         0.7910   -9.4030    5.4950 h1        1 4DF      0.062700
     47 H16         2.8940  -10.7290    5.3760 hn        1 4DF      0.462800
     48 H17         4.0750   -6.2480    2.7930 ha        1 4DF      0.171000
     49 H18         4.9570   -2.7560    4.5860 h4        1 4DF      0.047100
@<TRIPOS>BOND
     1    1    2 1   
     2    1   32 1   
     3    1   33 1   
     4    1   34 1   
     5    2    3 1   
     6    2   35 1   
     7    2   36 1   
     8    3    4 1   
     9    3   13 1   
    10    4    5 ar  
    11    4   12 ar  
    12    5    6 ar  
    13    5   37 1   
    14    6    7 ar  
    15    6   38 1   
    16    7    8 ar  
    17    7   39 1   
    18    8    9 1   
    19    8   12 ar  
    20    9   10 1   
    21    9   40 1   
    22   10   11 2   
    23   11   12 1   
    24   11   41 1   
    25   13   14 ar  
    26   13   30 ar  
    27   14   15 ar  
    28   15   16 1   
    29   15   28 ar  
    30   16   17 1   
    31   16   42 1   
    32   17   18 ar  
    33   17   27 ar  
    34   18   19 ar  
    35   18   43 1   
    36   19   20 ar  
    37   19   44 1   
    38   20   21 1   
    39   20   26 ar  
    40   21   22 1   
    41   21   45 1   
    42   21   46 1   
    43   22   23 1   
    44   22   47 1   
    45   23   24 2   
    46   23   25 2   
    47   23   26 1   
    48   26   27 ar  
    49   27   48 1   
    50   28   29 ar  
    51   29   30 ar  
    52   29   49 1   
    53   30   31 1   
@<TRIPOS>SUBSTRUCTURE
     1 4DF         1 TEMP              0 ****  ****    0 ROOT
