@<TRIPOS>MOLECULE
4DF
   49    53     1     0     0
SMALL
bcc


@<TRIPOS>ATOM
      1 C01         1.3950   -0.1600   -0.4960 c3        1 4DF     -0.124100
      2 C05         2.8650   -0.0660   -0.1240 c3        1 4DF      0.202800
      3 N08         3.2010   -0.0250    1.2930 nh        1 4DF     -0.626700
      4 C09         2.6550    1.0780    2.0150 ca        1 4DF      0.190600
      5 C10         1.6750    0.9360    3.0100 ca        1 4DF     -0.188000
      6 C12         1.1720    2.0420    3.7130 ca        1 4DF     -0.082000
      7 C14         1.5960    3.3370    3.4610 ca        1 4DF     -0.152000
      8 C16         2.5750    3.5030    2.4730 ca        1 4DF     -0.040200
      9 N17         3.2010    4.6460    1.9420 na        1 4DF     -0.022100
     10 N19         4.1280    4.3170    1.0280 nc        1 4DF     -0.513100
     11 C20         4.0980    2.9840    0.8490 cd        1 4DF      0.359800
     12 C22         3.1180    2.3800    1.7450 ca        1 4DF     -0.212900
     13 C23         3.2830   -1.2560    2.0040 ca        1 4DF      0.694200
     14 N24         2.6100   -2.3550    1.5560 nb        1 4DF     -0.784000
     15 C25         2.8240   -3.5520    2.2140 ca        1 4DF      0.876900
     16 N26         2.2080   -4.6900    1.6390 nu        1 4DF     -0.703300
     17 C28         1.9620   -5.8540    2.4070 ca        1 4DF      0.107600
     18 C29         0.6460   -6.3350    2.5510 ca        1 4DF     -0.112000
     19 C31         0.3880   -7.5320    3.2280 ca        1 4DF     -0.116000
     20 C33         1.4480   -8.2360    3.7680 ca        1 4DF     -0.043300
     21 C34         1.3620   -9.5350    4.5310 c3        1 4DF      0.260100
     22 N37         2.7130   -9.8900    4.8870 n7        1 4DF     -0.920100
     23 S39         3.8710   -8.8450    4.3970 sy        1 4DF      1.524200
     24 O40         4.7310   -9.4280    3.4610 o         1 4DF     -0.651800
     25 O41         4.5100   -8.2400    5.4830 o         1 4DF     -0.651800
     26 C42         2.7760   -7.7720    3.6390 ca        1 4DF     -0.336500
     27 C43         3.0380   -6.5960    2.9600 ca        1 4DF      0.044000
     28 N45         3.6200   -3.7080    3.3390 nb        1 4DF     -0.732000
     29 C46         4.2530   -2.6090    3.7670 ca        1 4DF      0.475200
     30 C48         4.1440   -1.3500    3.1450 ca        1 4DF     -0.272200
     31 Cl          5.0270   -0.0460    3.7410 cl        1 4DF     -0.040400
     32 H1          0.9530   -1.1350   -0.1810 hc        1 4DF      0.046700
     33 H2          0.8090    0.6650   -0.0230 hc        1 4DF      0.046700
     34 H3          1.3020   -0.0710   -1.6050 hc        1 4DF      0.046700
     35 H4          3.2840    0.8890   -0.5580 h1        1 4DF      0.062700
     36 H5          3.4220   -0.9310   -0.5840 h1        1 4DF      0.062700
     37 H6          1.2860   -0.0640    3.2580 ha        1 4DF      0.140000
     38 H7          0.4090    1.8660    4.4880 ha        1 4DF      0.137000
     39 H8          1.1870    4.1940    4.0110 ha        1 4DF      0.142000
     40 H9          3.2280    5.5410    2.3700 hn        1 4DF      0.320700
     41 H10         4.7440    2.4700    0.1360 h4        1 4DF      0.059800
     42 H11         1.4840   -4.4770    0.9800 hn        1 4DF      0.437800
     43 H12        -0.2030   -5.7760    2.1250 ha        1 4DF      0.139000
     44 H13        -0.6450   -7.8960    3.3280 ha        1 4DF      0.145000
     45 H14         0.7220   -9.4040    5.4490 h1        1 4DF      0.062700
     46 H15         0.8890  -10.3320    3.8880 h1        1 4DF      0.062700
     47 H16         2.8320  -10.7250    5.3960 hn        1 4DF      0.462800
     48 H17         4.0770   -6.2420    2.8460 ha        1 4DF      0.171000
     49 H18         4.8930   -2.7460    4.6610 h4        1 4DF      0.047100
@<TRIPOS>BOND
     1    1    2 1   
     2    1   32 1   
     3    1   33 1   
     4    1   34 1   
     5    2    3 1   
     6    2   35 1   
     7    2   36 1   
     8    3    4 1   
     9    3   13 1   
    10    4    5 ar  
    11    4   12 ar  
    12    5    6 ar  
    13    5   37 1   
    14    6    7 ar  
    15    6   38 1   
    16    7    8 ar  
    17    7   39 1   
    18    8    9 1   
    19    8   12 ar  
    20    9   10 1   
    21    9   40 1   
    22   10   11 2   
    23   11   12 1   
    24   11   41 1   
    25   13   14 ar  
    26   13   30 ar  
    27   14   15 ar  
    28   15   16 1   
    29   15   28 ar  
    30   16   17 1   
    31   16   42 1   
    32   17   18 ar  
    33   17   27 ar  
    34   18   19 ar  
    35   18   43 1   
    36   19   20 ar  
    37   19   44 1   
    38   20   21 1   
    39   20   26 ar  
    40   21   22 1   
    41   21   45 1   
    42   21   46 1   
    43   22   23 1   
    44   22   47 1   
    45   23   24 2   
    46   23   25 2   
    47   23   26 1   
    48   26   27 ar  
    49   27   48 1   
    50   28   29 ar  
    51   29   30 ar  
    52   29   49 1   
    53   30   31 1   
@<TRIPOS>SUBSTRUCTURE
     1 4DF         1 TEMP              0 ****  ****    0 ROOT
