@<TRIPOS>MOLECULE
4DG
   30    31     1     0     0
SMALL
bcc


@<TRIPOS>ATOM
      1 P           3.4400    0.0800   -0.9920 p5        1 4DG      1.313900
      2 N1         -4.9250   -0.2910   -0.0680 n         1 4DG     -0.491400
      3 C2         -4.4240    1.0160   -0.2440 cc        1 4DG      0.555800
      4 N2         -5.4290    2.0540   -0.3560 nh        1 4DG     -0.862800
      5 N3         -3.1250    1.3360   -0.2960 nd        1 4DG     -0.595100
      6 C4         -2.2490    0.2740   -0.1290 cd        1 4DG      0.027800
      7 C5         -2.6660   -1.1010    0.0620 cc        1 4DG      0.199800
      8 C6         -4.0760   -1.4110    0.1090 c         1 4DG      0.640000
      9 O6         -4.6340   -2.5140    0.2770 o         1 4DG     -0.670500
     10 N7         -1.5480   -1.9230    0.1790 nc        1 4DG     -0.669000
     11 C8         -0.4860   -1.0870    0.0580 cd        1 4DG      0.474400
     12 N9         -0.8520    0.2560   -0.1480 na        1 4DG     -0.140900
     13 C1'         0.0330    1.4080   -0.2230 c3        1 4DG      0.172100
     14 C4'         1.7120    1.9260    1.4070 c3        1 4DG      0.095400
     15 O4'         0.3200    1.8720    1.0910 os        1 4DG     -0.462600
     16 C5'         2.4620    0.5830    1.4250 c3        1 4DG      0.187400
     17 O5'         2.2960   -0.1860    0.3030 os        1 4DG     -0.587200
     18 OP1         2.6470    1.1820   -1.6630 o         1 4DG     -0.912500
     19 OP2         4.6840    0.5150   -0.2750 o         1 4DG     -0.912500
     20 HN1        -5.9060   -0.4330    0.0070 hn        1 4DG      0.316500
     21 HN2        -5.7240    2.1190   -1.3130 hn        1 4DG      0.370300
     22 HN2A       -5.0460    2.9360   -0.0680 hn        1 4DG      0.370300
     23 H8          0.5920   -1.3660    0.0960 h5        1 4DG      0.153100
     24 H1'         1.0040    1.1330   -0.8130 h2        1 4DG      0.138200
     25 H1'A       -0.5470    2.2390   -0.7180 h2        1 4DG      0.138200
     26 H4'         2.2040    2.6380    0.6930 h1        1 4DG      0.027200
     27 H4'A        1.7100    2.3670    2.4410 h1        1 4DG      0.027200
     28 H5'         3.5580    0.8230    1.5690 h1        1 4DG      0.005200
     29 H5'A        2.0870    0.0000    2.3180 h1        1 4DG      0.005200
     30 O61         3.4510   -1.2530   -1.6720 o         1 4DG     -0.912500
@<TRIPOS>BOND
     1    1   17 1   
     2    1   18 1   
     3    1   19 1   
     4    1   30 1   
     5    2    3 1   
     6    2    8 1   
     7    2   20 1   
     8    3    4 1   
     9    3    5 2   
    10    4   21 1   
    11    4   22 1   
    12    5    6 1   
    13    6    7 2   
    14    6   12 1   
    15    7    8 1   
    16    7   10 1   
    17    8    9 2   
    18   10   11 2   
    19   11   12 1   
    20   11   23 1   
    21   12   13 1   
    22   13   15 1   
    23   13   24 1   
    24   13   25 1   
    25   14   15 1   
    26   14   16 1   
    27   14   26 1   
    28   14   27 1   
    29   16   17 1   
    30   16   28 1   
    31   16   29 1   
@<TRIPOS>SUBSTRUCTURE
     1 4DG         1 TEMP              0 ****  ****    0 ROOT
