@<TRIPOS>MOLECULE
4DG
   30    26     1     0     0
SMALL
bcc


@<TRIPOS>ATOM
      1 P          -5.2010   -2.6650    2.2740 p3        1 4DG      2.536000
      2 N1          4.4260    2.2490   -0.7500 n3        1 4DG     -0.316000
      3 C2          4.2200    0.8800   -0.4300 c2        1 4DG      0.036000
      4 N2          5.3470    0.0360   -0.1520 n3        1 4DG     -0.293000
      5 N3          2.8860    0.3190   -0.4690 n1        1 4DG     -0.151000
      6 C4          1.7540    1.1530   -0.8370 c1        1 4DG     -0.132000
      7 C5          1.9460    2.4680   -1.1460 c1        1 4DG     -0.132000
      8 C6          3.3420    3.0560   -1.1020 c1        1 4DG      0.364000
      9 O6          3.5040    4.2510   -1.2580 o         1 4DG     -0.430000
     10 N7          0.7340    3.0080   -1.4500 n2        1 4DG     -0.227500
     11 C8         -0.2040    2.0260   -1.3280 c1        1 4DG     -0.186000
     12 N9          0.4290    0.8830   -0.9500 n2        1 4DG     -0.227500
     13 C1'        -0.2750   -0.3970   -0.9130 c2        1 4DG      0.130000
     14 C4'        -2.0280   -1.5880    0.2950 c3        1 4DG     -0.042000
     15 O4'        -1.3630   -0.3260    0.0650 os        1 4DG     -0.296000
     16 C5'        -3.2790   -1.3640    1.1320 c3        1 4DG      0.036000
     17 O5'        -3.8320   -2.6370    1.5090 o         1 4DG     -0.741000
     18 OP1        -5.5730   -4.1140    2.6040 o         1 4DG     -1.048000
     19 OP2        -5.0800   -1.8740    3.5540 o         1 4DG     -1.048000
     20 HN1         5.2700    2.6050   -0.7110 hn        1 4DG      0.221000
     21 HN2         5.2210   -0.8620    0.0200 hn        1 4DG      0.152000
     22 HN2A        6.1900    0.3780   -0.1900 hn        1 4DG      0.152000
     23 H8         -1.1600    2.1270   -1.4760 DU        1 4DG      0.219000
     24 H1'         0.3430   -1.0970   -0.6580 h4        1 4DG      0.088000
     25 H1'A       -0.6390   -0.5920   -1.7900 h4        1 4DG      0.088000
     26 H4'        -2.2740   -1.9790   -0.5500 h1        1 4DG      0.077000
     27 H4'A       -1.4190   -2.1960    0.7720 h1        1 4DG      0.077000
     28 H5'        -3.0430   -0.8500    1.9460 h1        1 4DG      0.072500
     29 H5'A       -3.9540   -0.8510    0.5950 h1        1 4DG      0.072500
     30 O61        -6.2900   -2.0490    1.3910 o         1 4DG     -1.048000
@<TRIPOS>BOND
     1    1   18 1   
     2    1   19 1   
     3    1   30 1   
     4    2    3 1   
     5    2    8 1   
     6    2   20 1   
     7    3    4 1   
     8    3    5 1   
     9    4   21 1   
    10    4   22 1   
    11    6    7 1   
    12    6   12 1   
    13    7   10 1   
    14    8    9 1   
    15   10   11 1   
    16   11   12 1   
    17   13   15 1   
    18   13   24 1   
    19   13   25 1   
    20   14   15 1   
    21   14   16 1   
    22   14   26 1   
    23   14   27 1   
    24   16   17 1   
    25   16   28 1   
    26   16   29 1   
@<TRIPOS>SUBSTRUCTURE
     1 4DG         1 TEMP              0 ****  ****    0 ROOT
