@<TRIPOS>MOLECULE
4DH
   48    51     1     0     0
SMALL
bcc


@<TRIPOS>ATOM
      1 C1         -0.2130   -0.9410    0.1560 ca        1 4DH     -0.112000
      2 C2          1.1880   -1.0620    0.1050 ca        1 4DH     -0.145000
      3 C3          1.9780   -0.9110    1.2340 ca        1 4DH     -0.080000
      4 C4         -0.8800   -0.6600    1.3390 ca        1 4DH     -0.126000
      5 N5         -0.4250   -0.2140    3.8220 na        1 4DH     -0.265300
      6 C6         -0.1020   -0.5030    2.4930 ca        1 4DH     -0.073200
      7 C7          1.3450   -0.6300    2.4540 ca        1 4DH      0.076400
      8 N8          1.8610   -0.4250    3.7460 nc        1 4DH     -0.642100
      9 C9          0.7890   -0.1810    4.5360 cd        1 4DH      0.416800
     10 C10         0.8460    0.1310    5.9960 c3        1 4DH     -0.106700
     11 C11         1.7940   -0.7700    6.7660 c3        1 4DH     -0.062500
     12 C12         1.6850   -0.3890    8.3300 c         1 4DH      0.937600
     13 O13         0.5250   -0.3220    8.7680 o         1 4DH     -0.756300
     14 O14         2.7890   -0.2150    8.9080 o         1 4DH     -0.756300
     15 N15         3.2210   -0.6560    6.3360 n4        1 4DH     -0.635800
     16 C16         3.7550   -1.7830    5.5240 c         1 4DH      0.610700
     17 C17         5.0730   -1.5350    4.9530 cc        1 4DH     -0.230900
     18 O18         3.1040   -2.8180    5.4060 o         1 4DH     -0.462100
     19 N19         5.7060   -2.4140    4.0470 na        1 4DH      0.166400
     20 N20         6.8940   -1.9600    3.6810 nc        1 4DH     -0.458800
     21 C21         7.1040   -0.7610    4.3320 cd        1 4DH      0.365800
     22 C22         5.9610   -0.4550    5.1530 cd        1 4DH     -0.216300
     23 C23         5.1140   -3.6490    3.5740 c3        1 4DH      0.021600
     24 C24         8.3000    0.0520    4.1970 ca        1 4DH     -0.129500
     25 C25         9.5240   -0.5210    3.8220 ca        1 4DH     -0.104500
     26 C26        10.6620    0.2770    3.7100 ca        1 4DH     -0.131000
     27 C27        10.5910    1.6450    3.9670 ca        1 4DH     -0.115000
     28 C28         9.3740    2.2200    4.3380 ca        1 4DH     -0.131000
     29 C29         8.2330    1.4300    4.4520 ca        1 4DH     -0.104500
     30 H1         -0.7920   -1.0710   -0.7710 ha        1 4DH      0.136000
     31 H2          1.6650   -1.2810   -0.8620 ha        1 4DH      0.136000
     32 H3          3.0720   -1.0010    1.1820 ha        1 4DH      0.143000
     33 H4         -1.9730   -0.5650    1.3710 ha        1 4DH      0.140000
     34 H10        -0.1630    0.0020    6.4840 hc        1 4DH      0.101700
     35 H10A        1.1340    1.2120    6.1190 hc        1 4DH      0.101700
     36 H11         1.4760   -1.8460    6.6730 hx        1 4DH      0.118700
     37 HN15        3.7710   -0.5960    7.2340 hn        1 4DH      0.474800
     38 H22         5.8390    0.4110    5.7940 ha        1 4DH      0.174000
     39 H23         4.1110   -3.4170    3.1240 h1        1 4DH      0.081367
     40 H23A        4.9710   -4.3370    4.4510 h1        1 4DH      0.081367
     41 H23B        5.7760   -4.1350    2.8100 h1        1 4DH      0.081367
     42 H25         9.5930   -1.6000    3.6180 ha        1 4DH      0.138500
     43 H26        11.6200   -0.1790    3.4160 ha        1 4DH      0.137500
     44 H27        11.4910    2.2710    3.8780 ha        1 4DH      0.137000
     45 H28         9.3140    3.3000    4.5390 ha        1 4DH      0.137500
     46 H29         7.2750    1.8900    4.7370 ha        1 4DH      0.138500
     47 HN5        -1.3290   -0.0960    4.1970 hn        1 4DH      0.314700
     48 H152        3.3600    0.2150    5.8150 hn        1 4DH      0.474800
@<TRIPOS>BOND
     1    1    2 ar  
     2    1    4 ar  
     3    1   30 1   
     4    2    3 ar  
     5    2   31 1   
     6    3    7 ar  
     7    3   32 1   
     8    4    6 ar  
     9    4   33 1   
    10    5    6 1   
    11    5    9 1   
    12    5   47 1   
    13    6    7 ar  
    14    7    8 1   
    15    8    9 2   
    16    9   10 1   
    17   10   11 1   
    18   10   34 1   
    19   10   35 1   
    20   11   12 1   
    21   11   15 1   
    22   11   36 1   
    23   12   13 1   
    24   12   14 1   
    25   15   16 1   
    26   15   37 1   
    27   15   48 1   
    28   16   17 1   
    29   16   18 2   
    30   17   19 1   
    31   17   22 2   
    32   19   20 1   
    33   19   23 1   
    34   20   21 2   
    35   21   22 1   
    36   21   24 1   
    37   22   38 1   
    38   23   39 1   
    39   23   40 1   
    40   23   41 1   
    41   24   25 ar  
    42   24   29 ar  
    43   25   26 ar  
    44   25   42 1   
    45   26   27 ar  
    46   26   43 1   
    47   27   28 ar  
    48   27   44 1   
    49   28   29 ar  
    50   28   45 1   
    51   29   46 1   
@<TRIPOS>SUBSTRUCTURE
     1 4DH         1 TEMP              0 ****  ****    0 ROOT
