@<TRIPOS>MOLECULE
4DH
   48    51     1     0     0
SMALL
bcc


@<TRIPOS>ATOM
      1 C1         -0.2080   -0.9790    0.1460 ca        1 4DH     -0.112000
      2 C2          1.1930   -1.0970    0.0990 ca        1 4DH     -0.145000
      3 C3          1.9810   -0.9350    1.2270 ca        1 4DH     -0.080000
      4 C4         -0.8780   -0.6920    1.3260 ca        1 4DH     -0.126000
      5 N5         -0.4280   -0.2250    3.8060 na        1 4DH     -0.265300
      6 C6         -0.1020   -0.5230    2.4800 ca        1 4DH     -0.073200
      7 C7          1.3460   -0.6460    2.4440 ca        1 4DH      0.076400
      8 N8          1.8600   -0.4300    3.7350 nc        1 4DH     -0.642100
      9 C9          0.7860   -0.1820    4.5220 cd        1 4DH      0.416800
     10 C10         0.8400    0.1410    5.9790 c3        1 4DH     -0.106700
     11 C11         1.7880   -0.7520    6.7580 c3        1 4DH     -0.062500
     12 C12         1.6760   -0.3600    8.3190 c         1 4DH      0.937600
     13 O13         0.5150   -0.2920    8.7540 o         1 4DH     -0.756300
     14 O14         2.7790   -0.1780    8.8960 o         1 4DH     -0.756300
     15 N15         3.2150   -0.6390    6.3290 ny        1 4DH     -0.635800
     16 C16         3.7530   -1.7710    5.5260 c         1 4DH      0.610700
     17 C17         5.0730   -1.5260    4.9590 cc        1 4DH     -0.230900
     18 O18         3.1030   -2.8080    5.4140 o         1 4DH     -0.462100
     19 N19         5.7090   -2.4100    4.0590 na        1 4DH      0.166400
     20 N20         6.8990   -1.9580    3.6950 nc        1 4DH     -0.458800
     21 C21         7.1060   -0.7550    4.3400 cd        1 4DH      0.365800
     22 C22         5.9600   -0.4460    5.1550 cd        1 4DH     -0.216300
     23 C23         5.1180   -3.6480    3.5910 c3        1 4DH      0.021600
     24 C24         8.3030    0.0560    4.2050 ca        1 4DH     -0.129500
     25 C25         9.5280   -0.5190    3.8370 ca        1 4DH     -0.104500
     26 C26        10.6660    0.2780    3.7240 ca        1 4DH     -0.131000
     27 C27        10.5940    1.6480    3.9750 ca        1 4DH     -0.115000
     28 C28         9.3770    2.2250    4.3390 ca        1 4DH     -0.131000
     29 C29         8.2350    1.4360    4.4530 ca        1 4DH     -0.104500
     30 H1         -0.7860   -1.1190   -0.7810 ha        1 4DH      0.136000
     31 H2          1.6720   -1.3230   -0.8670 ha        1 4DH      0.136000
     32 H3          3.0750   -1.0230    1.1770 ha        1 4DH      0.143000
     33 H4         -1.9710   -0.5990    1.3560 ha        1 4DH      0.140000
     34 H10         1.1250    1.2230    6.0940 hc        1 4DH      0.101700
     35 H10A       -0.1700    0.0130    6.4660 hc        1 4DH      0.101700
     36 H11         1.4720   -1.8300    6.6730 hx        1 4DH      0.118700
     37 HN15        3.3540    0.2280    5.8010 hn        1 4DH      0.474800
     38 H22         5.8360    0.4240    5.7920 ha        1 4DH      0.174000
     39 H23         4.9720   -4.3310    4.4710 h1        1 4DH      0.081367
     40 H23A        4.1170   -3.4180    3.1350 h1        1 4DH      0.081367
     41 H23B        5.7830   -4.1380    2.8320 h1        1 4DH      0.081367
     42 H25         9.5970   -1.5990    3.6380 ha        1 4DH      0.138500
     43 H26        11.6250   -0.1790    3.4370 ha        1 4DH      0.137500
     44 H27        11.4950    2.2730    3.8860 ha        1 4DH      0.137000
     45 H28         9.3160    3.3050    4.5350 ha        1 4DH      0.137500
     46 H29         7.2760    1.8970    4.7330 ha        1 4DH      0.138500
     47 HN5        -1.3320   -0.1060    4.1790 hn        1 4DH      0.314700
     48 H152        3.7640   -0.5710    7.2270 hn        1 4DH      0.474800
@<TRIPOS>BOND
     1    1    2 ar  
     2    1    4 ar  
     3    1   30 1   
     4    2    3 ar  
     5    2   31 1   
     6    3    7 ar  
     7    3   32 1   
     8    4    6 ar  
     9    4   33 1   
    10    5    6 1   
    11    5    9 1   
    12    5   47 1   
    13    6    7 ar  
    14    7    8 1   
    15    8    9 2   
    16    9   10 1   
    17   10   11 1   
    18   10   34 1   
    19   10   35 1   
    20   11   12 1   
    21   11   15 1   
    22   11   36 1   
    23   12   13 1   
    24   12   14 1   
    25   15   16 1   
    26   15   37 1   
    27   15   48 1   
    28   16   17 1   
    29   16   18 2   
    30   17   19 1   
    31   17   22 2   
    32   19   20 1   
    33   19   23 1   
    34   20   21 2   
    35   21   22 1   
    36   21   24 1   
    37   22   38 1   
    38   23   39 1   
    39   23   40 1   
    40   23   41 1   
    41   24   25 ar  
    42   24   29 ar  
    43   25   26 ar  
    44   25   42 1   
    45   26   27 ar  
    46   26   43 1   
    47   27   28 ar  
    48   27   44 1   
    49   28   29 ar  
    50   28   45 1   
    51   29   46 1   
@<TRIPOS>SUBSTRUCTURE
     1 4DH         1 TEMP              0 ****  ****    0 ROOT
