@<TRIPOS>MOLECULE
4DH
   47    39     1     0     0
SMALL
bcc


@<TRIPOS>ATOM
      1 C1          5.8850   -0.6810   -0.0140 c1        1 4DH     -0.130125
      2 C2          5.1540   -0.0290    0.9600 c1        1 4DH     -0.130125
      3 C3          3.8810    0.4970    0.6550 c1        1 4DH     -0.130125
      4 C4          5.3670   -0.8200   -1.2970 c1        1 4DH     -0.130125
      5 N5          3.3370   -0.2810   -2.7710 n2        1 4DH     -0.225000
      6 C6          4.0760   -0.2870   -1.6090 c1        1 4DH     -0.036000
      7 C7          3.3540    0.3570   -0.6470 c1        1 4DH     -0.068000
      8 N8          2.1660    0.7620   -1.2090 n1        1 4DH     -0.184000
      9 C9          2.1610    0.3670   -2.5200 c1        1 4DH      0.048000
     10 C10         1.1180    0.9800   -3.4370 c2        1 4DH     -0.102000
     11 C11        -0.1070    0.1270   -3.4370 c3        1 4DH     -0.110000
     12 C12        -0.6900    0.0950   -4.8090 c2        1 4DH      0.336000
     13 O13        -0.1460   -0.6320   -5.7200 o         1 4DH     -0.547000
     14 O14        -1.8250    0.6930   -5.0470 o         1 4DH     -0.547000
     15 N15        -1.0880    0.6810   -2.5020 n         1 4DH     -0.314000
     16 C16        -1.1810    0.1610   -1.1900 c2        1 4DH      0.359000
     17 C17        -1.8540    0.9560   -0.1090 c2        1 4DH     -0.109000
     18 O18        -0.7410   -0.9470   -0.9450 o         1 4DH     -0.411000
     19 N19        -1.5970    1.8760    0.8520 n2        1 4DH     -0.089000
     20 N20        -1.9930    1.3430    2.0720 n2        1 4DH     -0.070000
     21 C21        -2.4890    0.1020    1.8500 c2        1 4DH     -0.108000
     22 C22        -2.4110   -0.1540    0.5060 c1        1 4DH     -0.163000
     23 C23        -1.0620    3.1740    0.6510 c2        1 4DH     -0.074000
     24 C24        -3.0180   -0.7590    2.8210 c1        1 4DH      0.016000
     25 C25        -4.2860   -0.5270    3.3360 c1        1 4DH     -0.130125
     26 C26        -4.8080   -1.3700    4.3090 c1        1 4DH     -0.130125
     27 C27        -4.0590   -2.4510    4.7710 c1        1 4DH     -0.130125
     28 C28        -2.7920   -2.6860    4.2590 c1        1 4DH     -0.130125
     29 C29        -2.2680   -1.8360    3.2790 c1        1 4DH     -0.119000
     30 H1          6.8030   -1.0590    0.2080 ha        1 4DH      0.126875
     31 H2          5.5080    0.0660    1.8360 ha        1 4DH      0.126875
     32 H3          3.3830    1.0090    1.3350 ha        1 4DH      0.126875
     33 H4          5.9210   -1.2930   -2.0280 ha        1 4DH      0.126875
     34 H10         0.8920    1.8750   -3.1190 ha        1 4DH      0.128500
     35 H10A        1.4920    1.0390   -4.3890 ha        1 4DH      0.128500
     36 H11         0.1230   -0.7570   -3.1700 h1        1 4DH      0.109000
     37 HN15       -1.6090    1.4550   -2.7530 hn        1 4DH      0.243000
     38 H22        -2.7050   -0.9960    0.0510 DU        1 4DH      0.232000
     39 H23        -1.1460    3.6730    1.4560 ha        1 4DH      0.109667
     40 H23A       -1.5680    3.6360   -0.0870 ha        1 4DH      0.109667
     41 H23B       -0.0850    3.1040    0.3980 ha        1 4DH      0.109667
     42 H25        -4.7980    0.2470    3.0400 ha        1 4DH      0.126875
     43 H26        -5.7350   -1.2170    4.6590 ha        1 4DH      0.126875
     44 H27        -4.4500   -3.0740    5.3630 ha        1 4DH      0.126875
     45 H28        -2.3080   -3.5120    4.5040 ha        1 4DH      0.126875
     46 H29        -1.3820   -2.2750    3.1740 ha        1 4DH      0.138000
     47 HN5         3.5790   -0.6330   -3.5380 DU        1 4DH      0.232000
@<TRIPOS>BOND
     1    1    4 1   
     2    1   30 1   
     3    2    3 1   
     4    2   31 1   
     5    3   32 1   
     6    4   33 1   
     7    5    6 1   
     8    5    9 1   
     9    6    7 1   
    10    8    9 1   
    11   10   11 1   
    12   10   34 1   
    13   10   35 1   
    14   11   12 1   
    15   11   15 1   
    16   11   36 1   
    17   12   13 1   
    18   12   14 1   
    19   15   16 1   
    20   15   37 1   
    21   16   17 1   
    22   16   18 1   
    23   17   19 1   
    24   17   22 1   
    25   19   20 1   
    26   20   21 1   
    27   21   22 1   
    28   21   24 1   
    29   23   39 1   
    30   23   40 1   
    31   23   41 1   
    32   24   29 1   
    33   25   26 1   
    34   25   42 1   
    35   26   43 1   
    36   27   28 1   
    37   27   44 1   
    38   28   45 1   
    39   29   46 1   
@<TRIPOS>SUBSTRUCTURE
     1 4DH         1 TEMP              0 ****  ****    0 ROOT
