@<TRIPOS>MOLECULE
4DH
   48    51     1     0     0
SMALL
bcc


@<TRIPOS>ATOM
      1 C1         -0.2060   -1.0010    0.1430 ca        1 4DH     -0.112000
      2 C2          1.1950   -1.1160    0.0960 ca        1 4DH     -0.145000
      3 C3          1.9820   -0.9480    1.2250 ca        1 4DH     -0.080000
      4 C4         -0.8770   -0.7100    1.3210 ca        1 4DH     -0.126000
      5 N5         -0.4290   -0.2330    3.8000 na        1 4DH     -0.265300
      6 C6         -0.1020   -0.5350    2.4750 ca        1 4DH     -0.073200
      7 C7          1.3460   -0.6560    2.4400 ca        1 4DH      0.076400
      8 N8          1.8590   -0.4330    3.7310 nc        1 4DH     -0.642100
      9 C9          0.7840   -0.1850    4.5160 cd        1 4DH      0.416800
     10 C10         0.8360    0.1440    5.9720 c3        1 4DH     -0.106700
     11 C11         1.7850   -0.7450    6.7550 c3        1 4DH     -0.062500
     12 C12         1.6720   -0.3460    8.3140 c         1 4DH      0.937600
     13 O13         0.5110   -0.2790    8.7480 o         1 4DH     -0.756300
     14 O14         2.7740   -0.1620    8.8910 o         1 4DH     -0.756300
     15 N15         3.2130   -0.6310    6.3260 n4        1 4DH     -0.635800
     16 C16         3.7530   -1.7660    5.5280 c         1 4DH      0.610700
     17 C17         5.0730   -1.5210    4.9610 cc        1 4DH     -0.230900
     18 O18         3.1040   -2.8030    5.4180 o         1 4DH     -0.462100
     19 N19         5.7110   -2.4060    4.0640 na        1 4DH      0.166400
     20 N20         6.9010   -1.9540    3.7000 nc        1 4DH     -0.458800
     21 C21         7.1070   -0.7510    4.3440 cd        1 4DH      0.365800
     22 C22         5.9600   -0.4400    5.1570 cd        1 4DH     -0.216300
     23 C23         5.1210   -3.6450    3.5970 c3        1 4DH      0.021600
     24 C24         8.3040    0.0610    4.2100 ca        1 4DH     -0.129500
     25 C25         9.5290   -0.5140    3.8440 ca        1 4DH     -0.104500
     26 C26        10.6680    0.2820    3.7320 ca        1 4DH     -0.131000
     27 C27        10.5950    1.6520    3.9810 ca        1 4DH     -0.115000
     28 C28         9.3780    2.2290    4.3430 ca        1 4DH     -0.131000
     29 C29         8.2360    1.4400    4.4570 ca        1 4DH     -0.104500
     30 H1         -0.7830   -1.1450   -0.7830 ha        1 4DH      0.136000
     31 H2          1.6750   -1.3450   -0.8680 ha        1 4DH      0.136000
     32 H3          3.0760   -1.0350    1.1760 ha        1 4DH      0.143000
     33 H4         -1.9710   -0.6200    1.3500 ha        1 4DH      0.140000
     34 H10         1.1200    1.2270    6.0830 hc        1 4DH      0.101700
     35 H10A       -0.1730    0.0170    6.4590 hc        1 4DH      0.101700
     36 H11         1.4710   -1.8230    6.6730 hx        1 4DH      0.117700
     37 HN15        3.3510    0.2340    5.7950 hn        1 4DH      0.474800
     38 H22         5.8350    0.4310    5.7930 ha        1 4DH      0.174000
     39 H23         4.1200   -3.4160    3.1400 h1        1 4DH      0.081367
     40 H23A        5.7860   -4.1360    2.8390 h1        1 4DH      0.081367
     41 H23B        4.9730   -4.3270    4.4780 h1        1 4DH      0.081367
     42 H25         9.5980   -1.5950    3.6460 ha        1 4DH      0.138500
     43 H26        11.6270   -0.1750    3.4450 ha        1 4DH      0.137500
     44 H27        11.4960    2.2780    3.8920 ha        1 4DH      0.137000
     45 H28         9.3170    3.3100    4.5380 ha        1 4DH      0.137500
     46 H29         7.2770    1.9020    4.7350 ha        1 4DH      0.138500
     47 HN5        -1.3340   -0.1140    4.1720 hn        1 4DH      0.314700
     48 H152        3.7610   -0.5590    7.2240 hn        1 4DH      0.474800
@<TRIPOS>BOND
     1    1    2 ar  
     2    1    4 ar  
     3    1   30 1   
     4    2    3 ar  
     5    2   31 1   
     6    3    7 ar  
     7    3   32 1   
     8    4    6 ar  
     9    4   33 1   
    10    5    6 1   
    11    5    9 1   
    12    5   47 1   
    13    6    7 ar  
    14    7    8 1   
    15    8    9 2   
    16    9   10 1   
    17   10   11 1   
    18   10   34 1   
    19   10   35 1   
    20   11   12 1   
    21   11   15 1   
    22   11   36 1   
    23   12   13 1   
    24   12   14 1   
    25   15   16 1   
    26   15   37 1   
    27   15   48 1   
    28   16   17 1   
    29   16   18 2   
    30   17   19 1   
    31   17   22 2   
    32   19   20 1   
    33   19   23 1   
    34   20   21 2   
    35   21   22 1   
    36   21   24 1   
    37   22   38 1   
    38   23   39 1   
    39   23   40 1   
    40   23   41 1   
    41   24   25 ar  
    42   24   29 ar  
    43   25   26 ar  
    44   25   42 1   
    45   26   27 ar  
    46   26   43 1   
    47   27   28 ar  
    48   27   44 1   
    49   28   29 ar  
    50   28   45 1   
    51   29   46 1   
@<TRIPOS>SUBSTRUCTURE
     1 4DH         1 TEMP              0 ****  ****    0 ROOT
