@<TRIPOS>MOLECULE
4DH
   47    50     1     0     0
SMALL
bcc


@<TRIPOS>ATOM
      1 C1          4.7380    3.3970    2.4450 ca        1 4DH     -0.139000
      2 C2          5.2090    4.1500    1.3570 ca        1 4DH     -0.165000
      3 C3          5.0360    3.7310    0.0460 ca        1 4DH     -0.086000
      4 C4          4.0750    2.1910    2.2650 ca        1 4DH     -0.130000
      5 N5          3.2980    0.6040    0.4110 na        1 4DH     -0.269300
      6 C6          3.8870    1.7460    0.9510 ca        1 4DH     -0.083200
      7 C7          4.3700    2.5200   -0.1860 ca        1 4DH      0.074400
      8 N8          4.0470    1.8470   -1.3760 nc        1 4DH     -0.610100
      9 C9          3.4000    0.7170   -0.9920 cd        1 4DH      0.454800
     10 C10         2.8900   -0.3330   -1.9250 c3        1 4DH     -0.098700
     11 C11         1.8700   -1.3080   -1.3350 c3        1 4DH     -0.081300
     12 C12         1.6330   -2.4160   -2.4500 c         1 4DH      0.916600
     13 O13         0.5160   -2.4320   -3.0330 o         1 4DH     -0.812800
     14 O14         2.6000   -3.1880   -2.6560 o         1 4DH     -0.812800
     15 N15         0.6250   -0.6690   -0.9500 n         1 4DH     -0.484900
     16 C16         0.1560   -0.6980    0.3370 c         1 4DH      0.686700
     17 C17        -1.2980   -0.4540    0.5170 cc        1 4DH     -0.161900
     18 O18         0.9010   -0.8400    1.3420 o         1 4DH     -0.681100
     19 N19        -1.8820   -0.0350    1.7290 na        1 4DH      0.135400
     20 N20        -3.2040    0.0800    1.6270 nc        1 4DH     -0.505800
     21 C21        -3.5430   -0.2600    0.3380 cd        1 4DH      0.328800
     22 C22        -2.3500   -0.6090   -0.4010 cd        1 4DH     -0.236300
     23 C23        -1.1350    0.1950    2.9450 c3        1 4DH      0.038600
     24 C24        -4.8980   -0.2660   -0.1850 ca        1 4DH     -0.095500
     25 C25        -5.9180    0.4740    0.4300 ca        1 4DH     -0.114000
     26 C26        -7.2100    0.4590   -0.0950 ca        1 4DH     -0.137500
     27 C27        -7.4970   -0.2910   -1.2350 ca        1 4DH     -0.138000
     28 C28        -6.4870   -1.0310   -1.8490 ca        1 4DH     -0.137500
     29 C29        -5.1950   -1.0220   -1.3300 ca        1 4DH     -0.114000
     30 H1          4.9000    3.7740    3.4650 ha        1 4DH      0.115000
     31 H2          5.7290    5.0990    1.5560 ha        1 4DH      0.115000
     32 H3          5.4090    4.3270   -0.7970 ha        1 4DH      0.135000
     33 H4          3.7090    1.6050    3.1180 ha        1 4DH      0.130000
     34 H10         2.4540    0.1720   -2.8290 hc        1 4DH      0.091200
     35 H10A        3.7650   -0.9550   -2.2700 hc        1 4DH      0.091200
     36 H11         2.3150   -1.8360   -0.4440 h1        1 4DH      0.068700
     37 HN15       -0.0590   -0.7070   -1.6860 hn        1 4DH      0.330500
     38 H22        -2.2890   -0.9270   -1.4380 ha        1 4DH      0.185000
     39 H23        -0.2950    0.9050    2.7180 h1        1 4DH      0.066367
     40 H23A       -1.7960    0.6210    3.7430 h1        1 4DH      0.066367
     41 H23B       -0.6930   -0.7800    3.2870 h1        1 4DH      0.066367
     42 H25        -5.7020    1.0710    1.3280 ha        1 4DH      0.144500
     43 H26        -8.0030    1.0430    0.3930 ha        1 4DH      0.125000
     44 H27        -8.5160   -0.3000   -1.6470 ha        1 4DH      0.122000
     45 H28        -6.7090   -1.6250   -2.7480 ha        1 4DH      0.125000
     46 H29        -4.4020   -1.6120   -1.8170 ha        1 4DH      0.144500
     47 HN5         2.7760   -0.0810    0.9050 hn        1 4DH      0.338700
@<TRIPOS>BOND
     1    1    2 ar  
     2    1    4 ar  
     3    1   30 1   
     4    2    3 ar  
     5    2   31 1   
     6    3    7 ar  
     7    3   32 1   
     8    4    6 ar  
     9    4   33 1   
    10    5    6 1   
    11    5    9 1   
    12    5   47 1   
    13    6    7 ar  
    14    7    8 1   
    15    8    9 2   
    16    9   10 1   
    17   10   11 1   
    18   10   34 1   
    19   10   35 1   
    20   11   12 1   
    21   11   15 1   
    22   11   36 1   
    23   12   13 1   
    24   12   14 1   
    25   15   16 1   
    26   15   37 1   
    27   16   17 1   
    28   16   18 2   
    29   17   19 1   
    30   17   22 2   
    31   19   20 1   
    32   19   23 1   
    33   20   21 2   
    34   21   22 1   
    35   21   24 1   
    36   22   38 1   
    37   23   39 1   
    38   23   40 1   
    39   23   41 1   
    40   24   25 ar  
    41   24   29 ar  
    42   25   26 ar  
    43   25   42 1   
    44   26   27 ar  
    45   26   43 1   
    46   27   28 ar  
    47   27   44 1   
    48   28   29 ar  
    49   28   45 1   
    50   29   46 1   
@<TRIPOS>SUBSTRUCTURE
     1 4DH         1 TEMP              0 ****  ****    0 ROOT
