@<TRIPOS>MOLECULE
4DI
   30    29     1     0     0
SMALL
bcc


@<TRIPOS>ATOM
      1 C1         -0.0740   -0.0950    0.0500 c2        1 4DI      0.527100
      2 S           1.6490    0.0050    0.2170 ss        1 4DI     -0.165300
      3 C2          1.9030   -0.0050    1.9760 c3        1 4DI     -0.027300
      4 C3          3.4020    0.0770    2.1550 c3        1 4DI     -0.077400
      5 C4          3.7650    0.0710    3.6310 c3        1 4DI     -0.101400
      6 C5          5.2820    0.1580    3.7720 c3        1 4DI      0.102800
      7 N1          5.7630    0.0890    5.1920 n4        1 4DI     -0.679400
      8 C6          7.2060   -0.2810    5.2360 c3        1 4DI      0.080100
      9 C7          5.5370    1.3710    5.9120 c3        1 4DI      0.080100
     10 N2         -0.4570   -0.0960   -1.4020 n4        1 4DI     -0.814600
     11 N3         -1.0460   -0.1640    0.8740 n2        1 4DI     -0.712100
     12 H21         1.5000   -0.9430    2.4310 h1        1 4DI      0.093700
     13 H22         1.3980    0.8680    2.4570 h1        1 4DI      0.093700
     14 H31         3.8940   -0.7950    1.6430 hc        1 4DI      0.082700
     15 H32         3.7920    1.0170    1.6760 hc        1 4DI      0.082700
     16 H41         3.3800   -0.8700    4.1070 hc        1 4DI      0.073700
     17 H42         3.2710    0.9410    4.1410 hc        1 4DI      0.073700
     18 H51         5.6580    1.1250    3.3290 hx        1 4DI      0.110700
     19 H52         5.7580   -0.6980    3.2100 hx        1 4DI      0.110700
     20 H61         7.5490   -0.3030    6.3060 hx        1 4DI      0.112200
     21 H62         7.8060    0.4780    4.6660 hx        1 4DI      0.112200
     22 H63         7.3470   -1.2970    4.7770 hx        1 4DI      0.112200
     23 H71         5.8540    1.2550    6.9850 hx        1 4DI      0.112200
     24 H72         6.1440    2.1860    5.4330 hx        1 4DI      0.112200
     25 H73         4.4470    1.6370    5.8700 hx        1 4DI      0.112200
     26 HN21       -0.0200   -0.9060   -1.8610 hn        1 4DI      0.483800
     27 HN22       -1.4810   -0.1540   -1.5250 hn        1 4DI      0.483800
     28 HN3        -0.8870   -0.1690    1.8580 hn        1 4DI      0.488400
     29 H11         5.2290   -0.6470    5.6750 hn        1 4DI      0.452800
     30 H23        -0.1180    0.7710   -1.8370 hn        1 4DI      0.483800
@<TRIPOS>BOND
     1    1    2 1   
     2    1   10 1   
     3    1   11 2   
     4    2    3 1   
     5    3    4 1   
     6    3   12 1   
     7    3   13 1   
     8    4    5 1   
     9    4   14 1   
    10    4   15 1   
    11    5    6 1   
    12    5   16 1   
    13    5   17 1   
    14    6    7 1   
    15    6   18 1   
    16    6   19 1   
    17    7    8 1   
    18    7    9 1   
    19    7   29 1   
    20    8   20 1   
    21    8   21 1   
    22    8   22 1   
    23    9   23 1   
    24    9   24 1   
    25    9   25 1   
    26   10   26 1   
    27   10   27 1   
    28   10   30 1   
    29   11   28 1   
@<TRIPOS>SUBSTRUCTURE
     1 4DI         1 TEMP              0 ****  ****    0 ROOT
