@<TRIPOS>MOLECULE
4DI
   30    29     1     0     0
SMALL
bcc


@<TRIPOS>ATOM
      1 C1         -0.0870   -0.1190    0.0680 c2        1 4DI      0.527100
      2 S           1.6350   -0.0020    0.2260 ss        1 4DI     -0.165300
      3 C2          1.8990   -0.0170    1.9840 c3        1 4DI     -0.027300
      4 C3          3.3990    0.0780    2.1550 c3        1 4DI     -0.077400
      5 C4          3.7690    0.0720    3.6290 c3        1 4DI     -0.101400
      6 C5          5.2870    0.1710    3.7630 c3        1 4DI      0.102800
      7 N1          5.7760    0.1040    5.1800 nx        1 4DI     -0.679400
      8 C6          7.2210   -0.2560    5.2150 c3        1 4DI      0.080100
      9 C7          5.5440    1.3850    5.9010 c3        1 4DI      0.080100
     10 N2         -0.4770   -0.1180   -1.3820 nz        1 4DI     -0.814600
     11 N3         -1.0540   -0.2020    0.8970 n2        1 4DI     -0.712100
     12 H21         1.5070   -0.9600    2.4380 h1        1 4DI      0.093700
     13 H22         1.3890    0.8500    2.4710 h1        1 4DI      0.093700
     14 H31         3.8950   -0.7890    1.6390 hc        1 4DI      0.082700
     15 H32         3.7770    1.0220    1.6760 hc        1 4DI      0.082700
     16 H41         3.3940   -0.8720    4.1060 hc        1 4DI      0.073700
     17 H42         3.2720    0.9380    4.1430 hc        1 4DI      0.073700
     18 H51         5.6530    1.1410    3.3180 hx        1 4DI      0.110700
     19 H52         5.7660   -0.6820    3.1970 hx        1 4DI      0.110700
     20 H61         7.5700   -0.2760    6.2840 hx        1 4DI      0.112200
     21 H62         7.8130    0.5070    4.6430 hx        1 4DI      0.112200
     22 H63         7.3670   -1.2710    4.7560 hx        1 4DI      0.112200
     23 H71         5.8670    1.2700    6.9730 hx        1 4DI      0.112200
     24 H72         6.1430    2.2040    5.4200 hx        1 4DI      0.112200
     25 H73         4.4530    1.6430    5.8650 hx        1 4DI      0.112200
     26 HN21       -0.0350   -0.9200   -1.8470 hn        1 4DI      0.483800
     27 HN22       -1.5020   -0.1870   -1.4990 hn        1 4DI      0.483800
     28 HN3        -0.8890   -0.2090    1.8810 hn        1 4DI      0.488400
     29 H11         5.2490   -0.6360    5.6660 hn        1 4DI      0.452800
     30 H23        -0.1510    0.7550   -1.8140 hn        1 4DI      0.483800
@<TRIPOS>BOND
     1    1    2 1   
     2    1   10 1   
     3    1   11 2   
     4    2    3 1   
     5    3    4 1   
     6    3   12 1   
     7    3   13 1   
     8    4    5 1   
     9    4   14 1   
    10    4   15 1   
    11    5    6 1   
    12    5   16 1   
    13    5   17 1   
    14    6    7 1   
    15    6   18 1   
    16    6   19 1   
    17    7    8 1   
    18    7    9 1   
    19    7   29 1   
    20    8   20 1   
    21    8   21 1   
    22    8   22 1   
    23    9   23 1   
    24    9   24 1   
    25    9   25 1   
    26   10   26 1   
    27   10   27 1   
    28   10   30 1   
    29   11   28 1   
@<TRIPOS>SUBSTRUCTURE
     1 4DI         1 TEMP              0 ****  ****    0 ROOT
