@<TRIPOS>MOLECULE
4DI
   28    27     1     0     0
SMALL
bcc


@<TRIPOS>ATOM
      1 C1         -3.7260    0.3560    0.0720 c2        1 4DI      0.645100
      2 S          -2.3140   -0.6930    0.0090 ss        1 4DI     -0.252300
      3 C2         -0.9180    0.3990    0.0880 c3        1 4DI      0.003700
      4 C3          0.3010   -0.4820   -0.0060 c3        1 4DI     -0.078400
      5 C4          1.5660    0.3500    0.0870 c3        1 4DI     -0.078400
      6 C5          2.7890   -0.5520   -0.0710 c3        1 4DI      0.170800
      7 N1          4.0540    0.1050    0.2280 n3        1 4DI     -0.737600
      8 C6          5.1530   -0.8340    0.2750 c3        1 4DI      0.156600
      9 C7          4.3270    1.2460   -0.6160 c3        1 4DI      0.156600
     10 N2         -4.9180   -0.3650   -0.1130 nh        1 4DI     -0.938800
     11 N3         -3.5670    1.6340    0.2070 n2        1 4DI     -0.860100
     12 H21        -0.9260    0.9750    1.0450 h1        1 4DI      0.081700
     13 H22        -0.9490    1.1360   -0.7500 h1        1 4DI      0.081700
     14 H31         0.2920   -1.0450   -0.9770 hc        1 4DI      0.053700
     15 H32         0.2890   -1.2410    0.8220 hc        1 4DI      0.053700
     16 H41         1.5980    0.8790    1.0750 hc        1 4DI      0.051700
     17 H42         1.5570    1.1320   -0.7160 hc        1 4DI      0.051700
     18 H51         2.7820   -0.9780   -1.1190 h1        1 4DI      0.029700
     19 H52         2.6860   -1.4180    0.6440 h1        1 4DI      0.029700
     20 H61         6.0810   -0.2890    0.5930 h1        1 4DI      0.031033
     21 H62         4.9260   -1.6260    1.0360 h1        1 4DI      0.031033
     22 H63         5.3540   -1.3340   -0.7120 h1        1 4DI      0.031033
     23 H71         3.5330    2.0190   -0.4470 h1        1 4DI      0.031033
     24 H72         5.3180    1.6860   -0.3300 h1        1 4DI      0.031033
     25 H73         4.3540    0.9920   -1.7120 h1        1 4DI      0.031033
     26 HN21       -5.7450    0.0400    0.2640 hn        1 4DI      0.401800
     27 HN22       -4.8490   -1.3470    0.0220 hn        1 4DI      0.401800
     28 HN3        -4.3880    2.2000    0.2390 hn        1 4DI      0.391400
@<TRIPOS>BOND
     1    1    2 1   
     2    1   10 1   
     3    1   11 2   
     4    2    3 1   
     5    3    4 1   
     6    3   12 1   
     7    3   13 1   
     8    4    5 1   
     9    4   14 1   
    10    4   15 1   
    11    5    6 1   
    12    5   16 1   
    13    5   17 1   
    14    6    7 1   
    15    6   18 1   
    16    6   19 1   
    17    7    8 1   
    18    7    9 1   
    19    8   20 1   
    20    8   21 1   
    21    8   22 1   
    22    9   23 1   
    23    9   24 1   
    24    9   25 1   
    25   10   26 1   
    26   10   27 1   
    27   11   28 1   
@<TRIPOS>SUBSTRUCTURE
     1 4DI         1 TEMP              0 ****  ****    0 ROOT
