@<TRIPOS>MOLECULE
4DI
   30    29     1     0     0
SMALL
bcc


@<TRIPOS>ATOM
      1 C1         -0.0880   -0.0310    0.0620 c2        1 4DI      0.527100
      2 S           1.6380   -0.0350    0.2260 ss        1 4DI     -0.165300
      3 C2          1.8950    0.0420    1.9830 c3        1 4DI     -0.027300
      4 C3          3.3970    0.0400    2.1600 c3        1 4DI     -0.077400
      5 C4          3.7610    0.0910    3.6350 c3        1 4DI     -0.101400
      6 C5          5.2810    0.0950    3.7730 c3        1 4DI      0.102800
      7 N1          5.7600    0.0700    5.1960 n4        1 4DI     -0.679400
      8 C6          7.1780   -0.3810    5.2590 c3        1 4DI      0.080100
      9 C7          5.6090    1.3980    5.8480 c3        1 4DI      0.080100
     10 N2         -0.4720   -0.0960   -1.3880 n4        1 4DI     -0.814600
     11 N3         -1.0600    0.0140    0.8870 n2        1 4DI     -0.712100
     12 H21         1.4340   -0.8400    2.4920 h1        1 4DI      0.093700
     13 H22         1.4460    0.9730    2.4110 h1        1 4DI      0.093700
     14 H31         3.8320   -0.8870    1.6960 hc        1 4DI      0.082700
     15 H32         3.8430    0.9270    1.6320 hc        1 4DI      0.082700
     16 H41         3.3210   -0.7980    4.1600 hc        1 4DI      0.073700
     17 H42         3.3210    1.0150    4.0970 hc        1 4DI      0.073700
     18 H51         5.7030   -0.8170    3.2560 hx        1 4DI      0.110700
     19 H52         5.7130    1.0140    3.2810 hx        1 4DI      0.110700
     20 H61         7.2590   -1.4250    4.8530 hx        1 4DI      0.112200
     21 H62         7.5210   -0.3680    6.3300 hx        1 4DI      0.112200
     22 H63         7.8210    0.3120    4.6530 hx        1 4DI      0.112200
     23 H71         5.9210    1.3190    6.9260 hx        1 4DI      0.112200
     24 H72         4.5370    1.7240    5.7920 hx        1 4DI      0.112200
     25 H73         6.2620    2.1510    5.3290 hx        1 4DI      0.112200
     26 HN21       -0.0760    0.7190   -1.8750 hn        1 4DI      0.483800
     27 HN22       -0.0930   -0.9600   -1.7950 hn        1 4DI      0.483800
     28 HN3        -0.9000    0.0580    1.8700 hn        1 4DI      0.488400
     29 H11         5.1840   -0.6080    5.7150 hn        1 4DI      0.452800
     30 H23        -1.4980   -0.0910   -1.5090 hn        1 4DI      0.483800
@<TRIPOS>BOND
     1    1    2 1   
     2    1   10 1   
     3    1   11 2   
     4    2    3 1   
     5    3    4 1   
     6    3   12 1   
     7    3   13 1   
     8    4    5 1   
     9    4   14 1   
    10    4   15 1   
    11    5    6 1   
    12    5   16 1   
    13    5   17 1   
    14    6    7 1   
    15    6   18 1   
    16    6   19 1   
    17    7    8 1   
    18    7    9 1   
    19    7   29 1   
    20    8   20 1   
    21    8   21 1   
    22    8   22 1   
    23    9   23 1   
    24    9   24 1   
    25    9   25 1   
    26   10   26 1   
    27   10   27 1   
    28   10   30 1   
    29   11   28 1   
@<TRIPOS>SUBSTRUCTURE
     1 4DI         1 TEMP              0 ****  ****    0 ROOT
