@<TRIPOS>MOLECULE
4DI
   28    25     1     0     0
SMALL
bcc


@<TRIPOS>ATOM
      1 C1         -4.0750   -0.0160   -2.5330 c1        1 4DI      0.359600
      2 S          -2.2870   -0.0160   -2.5330 s         1 4DI     -0.014300
      3 C2         -1.6910   -0.0160   -0.8500 c3        1 4DI     -0.094100
      4 C3         -0.1760    0.1930   -0.8460 c3        1 4DI     -0.075400
      5 C4          0.3720   -0.0700    0.5630 c3        1 4DI     -0.079400
      6 C5          1.8710    0.2700    0.6020 c3        1 4DI      0.170800
      7 N1          2.4200   -0.1130    1.8860 n3        1 4DI     -0.738600
      8 C6          2.9040    1.0530    2.5660 c3        1 4DI      0.156600
      9 C7          3.5030   -1.0340    1.6860 c3        1 4DI      0.156600
     10 N2         -4.7850   -1.2440   -2.4750 n3        1 4DI     -0.795400
     11 N3         -4.7290    1.1160   -2.5870 n1        1 4DI     -0.604800
     12 H21        -2.1200    0.7070   -0.3530 h1        1 4DI      0.070200
     13 H22        -1.9030   -0.8710   -0.4300 h1        1 4DI      0.070200
     14 H31         0.2400   -0.4250   -1.4770 hc        1 4DI      0.056700
     15 H32         0.0270    1.1110   -1.1080 hc        1 4DI      0.056700
     16 H41         0.2450   -1.0100    0.7920 hc        1 4DI      0.049700
     17 H42        -0.1050    0.4880    1.2070 hc        1 4DI      0.049700
     18 H51         2.3320   -0.2160   -0.1070 h1        1 4DI      0.030700
     19 H52         1.9900    1.2300    0.4700 h1        1 4DI      0.030700
     20 H61         2.1700    1.6850    2.6890 h1        1 4DI      0.031033
     21 H62         3.6070    1.4710    2.0340 h1        1 4DI      0.031033
     22 H63         3.2620    0.7960    3.4360 h1        1 4DI      0.031033
     23 H71         4.1820   -0.6200    1.1200 h1        1 4DI      0.031033
     24 H72         3.1670   -1.8420    1.2530 h1        1 4DI      0.031033
     25 H73         3.8960   -1.2660    2.5490 h1        1 4DI      0.031033
     26 HN21       -4.6240   -1.8930   -3.0950 hn        1 4DI      0.393800
     27 HN22       -5.4200   -1.3740   -1.8340 hn        1 4DI      0.393800
     28 HN3        -4.2740    1.9050   -2.6250 DU        1 4DI      0.169000
@<TRIPOS>BOND
     1    1   10 1   
     2    1   11 3   
     3    2    3 1   
     4    3    4 1   
     5    3   12 1   
     6    3   13 1   
     7    4    5 1   
     8    4   14 1   
     9    4   15 1   
    10    5    6 1   
    11    5   16 1   
    12    5   17 1   
    13    6    7 1   
    14    6   18 1   
    15    6   19 1   
    16    7    8 1   
    17    7    9 1   
    18    8   20 1   
    19    8   21 1   
    20    8   22 1   
    21    9   23 1   
    22    9   24 1   
    23    9   25 1   
    24   10   26 1   
    25   10   27 1   
@<TRIPOS>SUBSTRUCTURE
     1 4DI         1 TEMP              0 ****  ****    0 ROOT
