@<TRIPOS>MOLECULE
4DJ
   53    57     1     0     0
SMALL
bcc


@<TRIPOS>ATOM
      1 C01        -0.1860   -0.3950   -0.7910 c3        1 4DJ      0.049600
      2 N05         1.2030   -0.3620   -0.4130 na        1 4DJ      0.082900
      3 N06         1.6290   -0.2570    0.8650 nc        1 4DJ     -0.505100
      4 C07         2.9540   -0.0280    0.8590 cd        1 4DJ      0.350800
      5 C09         3.4460    0.0640   -0.5100 ca        1 4DJ     -0.209900
      6 C10         4.6840    0.2810   -1.1030 ca        1 4DJ     -0.029000
      7 C12         4.7590    0.2920   -2.5040 ca        1 4DJ      0.082600
      8 N13         5.9830    0.5900   -3.1580 nh        1 4DJ     -0.695300
      9 C15         7.0810   -0.3000   -3.0670 ca        1 4DJ      0.886900
     10 N16         7.2070   -1.1060   -1.9420 nb        1 4DJ     -0.754000
     11 C17         8.3220   -1.8490   -1.8860 ca        1 4DJ      0.477200
     12 C19         9.3230   -1.8490   -2.8640 ca        1 4DJ     -0.462600
     13 C21         9.1260   -0.9930   -3.9930 ca        1 4DJ      0.719200
     14 N22         7.9890   -0.2380   -4.1090 nb        1 4DJ     -0.795000
     15 N23        10.1220   -0.8580   -4.9760 nh        1 4DJ     -0.660700
     16 C24        11.1960   -1.8260   -5.0560 c3        1 4DJ      0.216800
     17 C27        10.7990   -3.2400   -5.4760 c3        1 4DJ     -0.124400
     18 C30        12.0410   -4.1100   -5.5620 c3        1 4DJ      0.136400
     19 O33        11.6000   -5.4260   -5.8520 oh        1 4DJ     -0.596800
     20 C35         9.8280   -0.1520   -6.1810 ca        1 4DJ      0.199600
     21 C36        10.4450    1.0830   -6.4310 ca        1 4DJ     -0.142000
     22 C38        10.2030    1.7980   -7.6150 ca        1 4DJ     -0.099000
     23 C40         9.3480    1.3310   -8.6020 ca        1 4DJ     -0.139000
     24 C42         8.7140    0.1050   -8.3670 ca        1 4DJ     -0.051200
     25 N43         7.8450   -0.6790   -9.1540 na        1 4DJ     -0.020100
     26 N45         7.4570   -1.7820   -8.4940 nc        1 4DJ     -0.512100
     27 C46         8.1100   -1.8350   -7.3200 cd        1 4DJ      0.356800
     28 C48         8.9470   -0.6480   -7.1580 ca        1 4DJ     -0.212900
     29 C49         3.5850    0.0860   -3.2870 ca        1 4DJ     -0.127000
     30 C51         2.3440   -0.1240   -2.7130 ca        1 4DJ     -0.131000
     31 C53         2.2640   -0.1380   -1.3140 ca        1 4DJ     -0.054200
     32 H02        -0.6120    0.6440   -0.8330 h1        1 4DJ      0.053700
     33 H04        -0.2630   -0.8690   -1.8050 h1        1 4DJ      0.053700
     34 H03        -0.7720   -1.0000   -0.0490 h1        1 4DJ      0.053700
     35 H08         3.5380    0.0600    1.7770 h4        1 4DJ      0.055800
     36 H11         5.5770    0.4320   -0.4770 ha        1 4DJ      0.162000
     37 H14         5.8590    0.9860   -4.0710 hn        1 4DJ      0.430800
     38 H18         8.4140   -2.4920   -0.9900 h4        1 4DJ      0.025100
     39 H20        10.2070   -2.4830   -2.7520 ha        1 4DJ      0.153000
     40 H26        11.7010   -1.8650   -4.0480 h1        1 4DJ      0.059700
     41 H25        11.9460   -1.4250   -5.7970 h1        1 4DJ      0.059700
     42 H28        10.2840   -3.2260   -6.4720 hc        1 4DJ      0.069200
     43 H29        10.0830   -3.6850   -4.7370 hc        1 4DJ      0.069200
     44 H32        12.7250   -3.7440   -6.3740 h1        1 4DJ      0.021200
     45 H31        12.6000   -4.1030   -4.5870 h1        1 4DJ      0.021200
     46 H34        12.3930   -5.9660   -5.9560 ho        1 4DJ      0.402000
     47 H37        11.1300    1.5160   -5.6850 ha        1 4DJ      0.146000
     48 H39        10.7110    2.7650   -7.7570 ha        1 4DJ      0.137000
     49 H41         9.1720    1.8990   -9.5240 ha        1 4DJ      0.141000
     50 H44         7.2760   -0.3290   -9.8890 hn        1 4DJ      0.315700
     51 H47         7.9980   -2.6630   -6.6190 h4        1 4DJ      0.059800
     52 H50         3.6610    0.0970   -4.3860 ha        1 4DJ      0.134000
     53 H52         1.4530   -0.2790   -3.3370 ha        1 4DJ      0.138000
@<TRIPOS>BOND
     1    1    2 1   
     2    1   32 1   
     3    1   33 1   
     4    1   34 1   
     5    2    3 1   
     6    2   31 1   
     7    3    4 2   
     8    4    5 1   
     9    4   35 1   
    10    5    6 ar  
    11    5   31 ar  
    12    6    7 ar  
    13    6   36 1   
    14    7    8 1   
    15    7   29 ar  
    16    8    9 1   
    17    8   37 1   
    18    9   10 ar  
    19    9   14 ar  
    20   10   11 ar  
    21   11   12 ar  
    22   11   38 1   
    23   12   13 ar  
    24   12   39 1   
    25   13   14 ar  
    26   13   15 1   
    27   15   16 1   
    28   15   20 1   
    29   16   17 1   
    30   16   40 1   
    31   16   41 1   
    32   17   18 1   
    33   17   42 1   
    34   17   43 1   
    35   18   19 1   
    36   18   44 1   
    37   18   45 1   
    38   19   46 1   
    39   20   21 ar  
    40   20   28 ar  
    41   21   22 ar  
    42   21   47 1   
    43   22   23 ar  
    44   22   48 1   
    45   23   24 ar  
    46   23   49 1   
    47   24   25 1   
    48   24   28 ar  
    49   25   26 1   
    50   25   50 1   
    51   26   27 2   
    52   27   28 1   
    53   27   51 1   
    54   29   30 ar  
    55   29   52 1   
    56   30   31 ar  
    57   30   53 1   
@<TRIPOS>SUBSTRUCTURE
     1 4DJ         1 TEMP              0 ****  ****    0 ROOT
