@<TRIPOS>MOLECULE
4DJ
   53    57     1     0     0
SMALL
bcc


@<TRIPOS>ATOM
      1 C01        -0.1900   -0.3890   -0.8020 c3        1 4DJ      0.049600
      2 N05         1.1980   -0.3610   -0.4210 na        1 4DJ      0.082900
      3 N06         1.6230   -0.2630    0.8580 nc        1 4DJ     -0.505100
      4 C07         2.9490   -0.0380    0.8560 cd        1 4DJ      0.350800
      5 C09         3.4430    0.0590   -0.5120 ca        1 4DJ     -0.209900
      6 C10         4.6830    0.2750   -1.1010 ca        1 4DJ     -0.029000
      7 C12         4.7610    0.2920   -2.5020 ca        1 4DJ      0.082600
      8 N13         5.9870    0.5900   -3.1530 nu        1 4DJ     -0.695300
      9 C15         7.0820   -0.3040   -3.0640 ca        1 4DJ      0.886900
     10 N16         7.2040   -1.1150   -1.9430 nb        1 4DJ     -0.754000
     11 C17         8.3160   -1.8620   -1.8880 ca        1 4DJ      0.477200
     12 C19         9.3190   -1.8610   -2.8650 ca        1 4DJ     -0.462600
     13 C21         9.1260   -1.0000   -3.9900 ca        1 4DJ      0.719200
     14 N22         7.9910   -0.2400   -4.1040 nb        1 4DJ     -0.795000
     15 N23        10.1240   -0.8630   -4.9710 nh        1 4DJ     -0.660700
     16 C24        11.1940   -1.8350   -5.0540 c3        1 4DJ      0.216800
     17 C27        10.7930   -3.2450   -5.4800 c3        1 4DJ     -0.124400
     18 C30        12.0320   -4.1190   -5.5690 c3        1 4DJ      0.136400
     19 O33        11.5870   -5.4330   -5.8660 oh        1 4DJ     -0.596800
     20 C35         9.8340   -0.1510   -6.1730 ca        1 4DJ      0.199600
     21 C36        10.4560    1.0830   -6.4170 ca        1 4DJ     -0.142000
     22 C38        10.2190    1.8040   -7.5980 ca        1 4DJ     -0.099000
     23 C40         9.3620    1.3450   -8.5880 ca        1 4DJ     -0.139000
     24 C42         8.7240    0.1200   -8.3600 ca        1 4DJ     -0.051200
     25 N43         7.8530   -0.6570   -9.1510 na        1 4DJ     -0.020100
     26 N45         7.4600   -1.7620   -8.4960 nc        1 4DJ     -0.512100
     27 C46         8.1120   -1.8220   -7.3220 cd        1 4DJ      0.356800
     28 C48         8.9520   -0.6400   -7.1530 ca        1 4DJ     -0.212900
     29 C49         3.5880    0.0930   -3.2880 ca        1 4DJ     -0.127000
     30 C51         2.3450   -0.1150   -2.7180 ca        1 4DJ     -0.131000
     31 C53         2.2620   -0.1360   -1.3200 ca        1 4DJ     -0.054200
     32 H02        -0.6120    0.6520   -0.8400 h1        1 4DJ      0.053700
     33 H04        -0.7780   -0.9950   -0.0630 h1        1 4DJ      0.053700
     34 H03        -0.2660   -0.8580   -1.8180 h1        1 4DJ      0.053700
     35 H08         3.5300    0.0440    1.7750 h4        1 4DJ      0.055800
     36 H11         5.5750    0.4210   -0.4730 ha        1 4DJ      0.162000
     37 H14         5.8660    0.9900   -4.0640 hn        1 4DJ      0.430800
     38 H18         8.4050   -2.5090   -0.9940 h4        1 4DJ      0.025100
     39 H20        10.2000   -2.4980   -2.7530 ha        1 4DJ      0.153000
     40 H26        11.9470   -1.4330   -5.7920 h1        1 4DJ      0.059700
     41 H25        11.6980   -1.8800   -4.0450 h1        1 4DJ      0.059700
     42 H28        10.2790   -3.2250   -6.4770 hc        1 4DJ      0.069200
     43 H29        10.0740   -3.6920   -4.7440 hc        1 4DJ      0.069200
     44 H32        12.7180   -3.7520   -6.3780 h1        1 4DJ      0.021200
     45 H31        12.5900   -4.1190   -4.5930 h1        1 4DJ      0.021200
     46 H34        12.3770   -5.9750   -5.9710 ho        1 4DJ      0.402000
     47 H37        11.1420    1.5100   -5.6680 ha        1 4DJ      0.146000
     48 H39        10.7300    2.7690   -7.7350 ha        1 4DJ      0.137000
     49 H41         9.1900    1.9180   -9.5080 ha        1 4DJ      0.141000
     50 H44         7.2860   -0.3020   -9.8860 hn        1 4DJ      0.315700
     51 H47         7.9950   -2.6530   -6.6240 h4        1 4DJ      0.059800
     52 H50         3.6650    0.1090   -4.3880 ha        1 4DJ      0.134000
     53 H52         1.4550   -0.2650   -3.3440 ha        1 4DJ      0.138000
@<TRIPOS>BOND
     1    1    2 1   
     2    1   32 1   
     3    1   33 1   
     4    1   34 1   
     5    2    3 1   
     6    2   31 1   
     7    3    4 2   
     8    4    5 1   
     9    4   35 1   
    10    5    6 ar  
    11    5   31 ar  
    12    6    7 ar  
    13    6   36 1   
    14    7    8 1   
    15    7   29 ar  
    16    8    9 1   
    17    8   37 1   
    18    9   10 ar  
    19    9   14 ar  
    20   10   11 ar  
    21   11   12 ar  
    22   11   38 1   
    23   12   13 ar  
    24   12   39 1   
    25   13   14 ar  
    26   13   15 1   
    27   15   16 1   
    28   15   20 1   
    29   16   17 1   
    30   16   40 1   
    31   16   41 1   
    32   17   18 1   
    33   17   42 1   
    34   17   43 1   
    35   18   19 1   
    36   18   44 1   
    37   18   45 1   
    38   19   46 1   
    39   20   21 ar  
    40   20   28 ar  
    41   21   22 ar  
    42   21   47 1   
    43   22   23 ar  
    44   22   48 1   
    45   23   24 ar  
    46   23   49 1   
    47   24   25 1   
    48   24   28 ar  
    49   25   26 1   
    50   25   50 1   
    51   26   27 2   
    52   27   28 1   
    53   27   51 1   
    54   29   30 ar  
    55   29   52 1   
    56   30   31 ar  
    57   30   53 1   
@<TRIPOS>SUBSTRUCTURE
     1 4DJ         1 TEMP              0 ****  ****    0 ROOT
