@<TRIPOS>MOLECULE
4DK
   56    60     1     0     0
SMALL
bcc


@<TRIPOS>ATOM
      1 C01        -0.0500   -1.5630   -0.0670 c3        1 4DK     -0.122400
      2 C05         1.1950   -0.7860    0.0480 cc        1 4DK      0.257300
      3 N06         1.9010   -0.6400    1.2610 nc        1 4DK     -0.670000
      4 C07         2.9500    0.1230    0.9850 cd        1 4DK      0.483300
      5 O09         3.0020    0.5100   -0.3570 os        1 4DK     -0.376800
      6 C10         1.8730   -0.0810   -0.9540 cd        1 4DK      0.211900
      7 C11         1.6710    0.1620   -2.3600 ca        1 4DK     -0.113500
      8 C12         0.8160   -0.6660   -3.1000 ca        1 4DK     -0.123000
      9 C14         0.6080   -0.4120   -4.4530 ca        1 4DK     -0.119000
     10 C16         1.2490    0.6480   -5.0850 ca        1 4DK     -0.156000
     11 C18         2.1210    1.4870   -4.3540 ca        1 4DK      0.127600
     12 N19         2.7000    2.6160   -4.9840 nu        1 4DK     -0.704300
     13 C21         4.1040    2.7560   -5.0920 ca        1 4DK      0.890900
     14 N22         4.9250    2.0930   -4.1900 nb        1 4DK     -0.753000
     15 C23         6.2370    2.3480   -4.3070 ca        1 4DK      0.479200
     16 C25         6.7920    3.2140   -5.2560 ca        1 4DK     -0.461600
     17 C27         5.8840    3.8610   -6.1530 ca        1 4DK      0.720200
     18 N28         4.5390    3.6110   -6.0890 nb        1 4DK     -0.793000
     19 N29         6.3440    4.8170   -7.0750 nh        1 4DK     -0.661700
     20 C30         7.7570    4.9170   -7.3730 c3        1 4DK      0.216800
     21 C33         8.3760    3.7330   -8.1130 c3        1 4DK     -0.123400
     22 C36         9.8410    4.0190   -8.3910 c3        1 4DK      0.136400
     23 O39        10.3830    2.8480   -8.9790 oh        1 4DK     -0.596800
     24 C41         5.4570    5.3040   -8.0830 ca        1 4DK      0.199600
     25 C42         5.0080    6.6320   -8.0300 ca        1 4DK     -0.142000
     26 C44         4.1560    7.1570   -9.0150 ca        1 4DK     -0.099000
     27 C46         3.7100    6.4040  -10.0900 ca        1 4DK     -0.138000
     28 C48         4.1390    5.0720  -10.1550 ca        1 4DK     -0.051200
     29 N49         3.9320    4.0560  -11.1100 na        1 4DK     -0.020100
     30 N51         4.5210    2.9090  -10.7320 nc        1 4DK     -0.511100
     31 C52         5.2090    3.1310   -9.5980 cd        1 4DK      0.354800
     32 C54         5.0150    4.5090   -9.1550 ca        1 4DK     -0.212900
     33 C55         2.3240    1.2360   -2.9840 ca        1 4DK     -0.078000
     34 H02         0.1660   -2.5630   -0.5240 hc        1 4DK      0.054033
     35 H04        -0.5220   -1.7300    0.9340 hc        1 4DK      0.054033
     36 H03        -0.7800   -1.0210   -0.7190 hc        1 4DK      0.054033
     37 H08         3.7580    0.4890    1.6200 h5        1 4DK      0.087100
     38 H13         0.3170   -1.5180   -2.6170 ha        1 4DK      0.140000
     39 H15        -0.0660   -1.0620   -5.0320 ha        1 4DK      0.136000
     40 H17         1.0690    0.8260   -6.1570 ha        1 4DK      0.135000
     41 H20         2.1940    2.9320   -5.7900 hn        1 4DK      0.436800
     42 H24         6.8850    1.8130   -3.5870 h4        1 4DK      0.027100
     43 H26         7.8730    3.3730   -5.2940 ha        1 4DK      0.154000
     44 H32         7.8970    5.8480   -7.9960 h1        1 4DK      0.060200
     45 H31         8.3040    5.0750   -6.3990 h1        1 4DK      0.060200
     46 H34         8.2890    2.7960   -7.5020 hc        1 4DK      0.068700
     47 H35         7.8410    3.5500   -9.0820 hc        1 4DK      0.068700
     48 H38         9.9480    4.8900   -9.0920 h1        1 4DK      0.021700
     49 H37        10.3890    4.2530   -7.4380 h1        1 4DK      0.021700
     50 H40        11.2990    3.0500   -9.2030 ho        1 4DK      0.402000
     51 H43         5.3170    7.2840   -7.1980 ha        1 4DK      0.146000
     52 H45         3.8310    8.2060   -8.9210 ha        1 4DK      0.137000
     53 H47         3.0470    6.8300  -10.8540 ha        1 4DK      0.141000
     54 H50         3.1760    4.0240  -11.7530 hn        1 4DK      0.316700
     55 H53         5.8100    2.3600   -9.1130 h4        1 4DK      0.059800
     56 H56         2.9960    1.8730   -2.3870 ha        1 4DK      0.170000
@<TRIPOS>BOND
     1    1    2 1   
     2    1   34 1   
     3    1   35 1   
     4    1   36 1   
     5    2    3 1   
     6    2    6 2   
     7    3    4 2   
     8    4    5 1   
     9    4   37 1   
    10    5    6 1   
    11    6    7 1   
    12    7    8 ar  
    13    7   33 ar  
    14    8    9 ar  
    15    8   38 1   
    16    9   10 ar  
    17    9   39 1   
    18   10   11 ar  
    19   10   40 1   
    20   11   12 1   
    21   11   33 ar  
    22   12   13 1   
    23   12   41 1   
    24   13   14 ar  
    25   13   18 ar  
    26   14   15 ar  
    27   15   16 ar  
    28   15   42 1   
    29   16   17 ar  
    30   16   43 1   
    31   17   18 ar  
    32   17   19 1   
    33   19   20 1   
    34   19   24 1   
    35   20   21 1   
    36   20   44 1   
    37   20   45 1   
    38   21   22 1   
    39   21   46 1   
    40   21   47 1   
    41   22   23 1   
    42   22   48 1   
    43   22   49 1   
    44   23   50 1   
    45   24   25 ar  
    46   24   32 ar  
    47   25   26 ar  
    48   25   51 1   
    49   26   27 ar  
    50   26   52 1   
    51   27   28 ar  
    52   27   53 1   
    53   28   29 1   
    54   28   32 ar  
    55   29   30 1   
    56   29   54 1   
    57   30   31 2   
    58   31   32 1   
    59   31   55 1   
    60   33   56 1   
@<TRIPOS>SUBSTRUCTURE
     1 4DK         1 TEMP              0 ****  ****    0 ROOT
