@<TRIPOS>MOLECULE
4DL
   50    54     1     0     0
SMALL
bcc


@<TRIPOS>ATOM
      1 O01         0.5760   -0.2710   -1.1310 oh        1 4DL     -0.606800
      2 C03         1.7380   -0.6020   -0.3880 c3        1 4DL      0.108400
      3 C06         1.4290   -0.2630    1.0830 c3        1 4DL      0.219800
      4 N09         1.2910   -1.3950    1.9690 nh        1 4DL     -0.672700
      5 C10         2.3350   -2.3180    2.0950 ca        1 4DL      0.733200
      6 C11         3.6270   -2.0340    1.5440 ca        1 4DL     -0.468600
      7 C13         4.6120   -3.0150    1.6940 ca        1 4DL      0.481200
      8 N15         4.4240   -4.1870    2.3220 nb        1 4DL     -0.764000
      9 C16         3.1540   -4.3880    2.8430 ca        1 4DL      0.891900
     10 N17         2.8940   -5.5560    3.6030 nu        1 4DL     -0.705300
     11 C19         3.6720   -6.7260    3.4310 ca        1 4DL      0.107600
     12 C20         5.0490   -6.7330    3.7280 ca        1 4DL     -0.048000
     13 C22         5.7930   -7.9130    3.6290 ca        1 4DL     -0.122000
     14 C24         5.1590   -9.0810    3.2470 ca        1 4DL     -0.045300
     15 C25         5.8000  -10.4390    3.0940 c3        1 4DL      0.260100
     16 N28         4.7510  -11.3430    2.6860 n7        1 4DL     -0.920100
     17 S30         3.2710  -10.6730    2.5200 sy        1 4DL      1.524200
     18 O31         2.3610  -11.1830    3.4520 o         1 4DL     -0.654300
     19 O32         2.8280  -10.7130    1.1930 o         1 4DL     -0.654300
     20 C33         3.7780   -9.1020    2.9550 ca        1 4DL     -0.333500
     21 C34         3.0410   -7.9350    3.0390 ca        1 4DL     -0.018000
     22 N36         2.0960   -3.5060    2.7380 nb        1 4DL     -0.793000
     23 C37         0.1140   -1.5100    2.7520 ca        1 4DL      0.219600
     24 C38         0.1820   -1.6700    4.1470 ca        1 4DL     -0.157000
     25 C40        -0.9760   -1.7710    4.9330 ca        1 4DL     -0.089000
     26 C42        -2.2500   -1.7050    4.3920 ca        1 4DL     -0.150000
     27 C44        -2.3410   -1.5400    3.0040 ca        1 4DL     -0.043200
     28 N45        -3.4450   -1.3840    2.1430 na        1 4DL     -0.022100
     29 N47        -3.0510   -1.2920    0.8610 nc        1 4DL     -0.516100
     30 C48        -1.7080   -1.2820    0.8230 cd        1 4DL      0.355800
     31 C50        -1.1660   -1.4420    2.1700 ca        1 4DL     -0.229900
     32 H1          0.7400   -0.5400   -2.0430 ho        1 4DL      0.409000
     33 H2          2.5980    0.0300   -0.7400 h1        1 4DL      0.038200
     34 H3          1.9980   -1.6830   -0.5340 h1        1 4DL      0.038200
     35 H4          2.2600    0.3960    1.4710 h1        1 4DL      0.073700
     36 H5          0.4670    0.3280    1.1130 h1        1 4DL      0.073700
     37 H6          3.8520   -1.0940    1.0310 ha        1 4DL      0.153000
     38 H7          5.6280   -2.8580    1.2850 h4        1 4DL      0.026100
     39 H8          1.9190   -5.7360    3.7550 hn        1 4DL      0.440800
     40 H9          5.5580   -5.8080    4.0430 ha        1 4DL      0.163000
     41 H10         6.8690   -7.9030    3.8580 ha        1 4DL      0.145000
     42 H11         6.2580  -10.7660    4.0700 h1        1 4DL      0.062700
     43 H12         6.6200  -10.3970    2.3210 h1        1 4DL      0.062700
     44 H13         5.0080  -12.2820    2.5400 hn        1 4DL      0.462800
     45 H14         1.9630   -7.9500    2.8060 ha        1 4DL      0.148000
     46 H15         1.1600   -1.7340    4.6490 ha        1 4DL      0.145000
     47 H16        -0.8590   -1.9050    6.0200 ha        1 4DL      0.136000
     48 H17        -3.1470   -1.7800    5.0200 ha        1 4DL      0.141000
     49 H18        -4.3710   -1.6800    2.3470 hn        1 4DL      0.315700
     50 H19        -1.1390   -1.1580   -0.1030 h4        1 4DL      0.076800
@<TRIPOS>BOND
     1    1    2 1   
     2    1   32 1   
     3    2    3 1   
     4    2   33 1   
     5    2   34 1   
     6    3    4 1   
     7    3   35 1   
     8    3   36 1   
     9    4    5 1   
    10    4   23 1   
    11    5    6 ar  
    12    5   22 ar  
    13    6    7 ar  
    14    6   37 1   
    15    7    8 ar  
    16    7   38 1   
    17    8    9 ar  
    18    9   10 1   
    19    9   22 ar  
    20   10   11 1   
    21   10   39 1   
    22   11   12 ar  
    23   11   21 ar  
    24   12   13 ar  
    25   12   40 1   
    26   13   14 ar  
    27   13   41 1   
    28   14   15 1   
    29   14   20 ar  
    30   15   16 1   
    31   15   42 1   
    32   15   43 1   
    33   16   17 1   
    34   16   44 1   
    35   17   18 2   
    36   17   19 2   
    37   17   20 1   
    38   20   21 ar  
    39   21   45 1   
    40   23   24 ar  
    41   23   31 ar  
    42   24   25 ar  
    43   24   46 1   
    44   25   26 ar  
    45   25   47 1   
    46   26   27 ar  
    47   26   48 1   
    48   27   28 1   
    49   27   31 ar  
    50   28   29 1   
    51   28   49 1   
    52   29   30 2   
    53   30   31 1   
    54   30   50 1   
@<TRIPOS>SUBSTRUCTURE
     1 4DL         1 TEMP              0 ****  ****    0 ROOT
