@<TRIPOS>MOLECULE
4DL
   50    54     1     0     0
SMALL
bcc


@<TRIPOS>ATOM
      1 O01         0.5670   -0.2660   -1.1210 oh        1 4DL     -0.606800
      2 C03         1.7320   -0.5990   -0.3840 c3        1 4DL      0.108400
      3 C06         1.4320   -0.2610    1.0880 c3        1 4DL      0.219800
      4 N09         1.2960   -1.3930    1.9740 nh        1 4DL     -0.672700
      5 C10         2.3380   -2.3180    2.0940 ca        1 4DL      0.733200
      6 C11         3.6280   -2.0370    1.5360 ca        1 4DL     -0.468600
      7 C13         4.6120   -3.0190    1.6800 ca        1 4DL      0.481200
      8 N15         4.4260   -4.1910    2.3080 nb        1 4DL     -0.764000
      9 C16         3.1580   -4.3910    2.8360 ca        1 4DL      0.891900
     10 N17         2.9000   -5.5590    3.5960 nh        1 4DL     -0.705300
     11 C19         3.6740   -6.7300    3.4170 ca        1 4DL      0.107600
     12 C20         5.0520   -6.7420    3.7070 ca        1 4DL     -0.048000
     13 C22         5.7930   -7.9230    3.6020 ca        1 4DL     -0.122000
     14 C24         5.1540   -9.0890    3.2220 ca        1 4DL     -0.045300
     15 C25         5.7900  -10.4480    3.0620 c3        1 4DL      0.260100
     16 N28         4.7370  -11.3490    2.6590 n3        1 4DL     -0.920100
     17 S30         3.2570  -10.6750    2.5030 sy        1 4DL      1.524200
     18 O31         2.3520  -11.1840    3.4400 o         1 4DL     -0.654300
     19 O32         2.8070  -10.7110    1.1790 o         1 4DL     -0.654300
     20 C33         3.7710   -9.1060    2.9370 ca        1 4DL     -0.333500
     21 C34         3.0370   -7.9370    3.0280 ca        1 4DL     -0.018000
     22 N36         2.1010   -3.5060    2.7370 nb        1 4DL     -0.793000
     23 C37         0.1230   -1.5070    2.7640 ca        1 4DL      0.219600
     24 C38         0.1980   -1.6680    4.1580 ca        1 4DL     -0.157000
     25 C40        -0.9560   -1.7670    4.9500 ca        1 4DL     -0.089000
     26 C42        -2.2330   -1.6990    4.4150 ca        1 4DL     -0.150000
     27 C44        -2.3310   -1.5330    3.0290 ca        1 4DL     -0.043200
     28 N45        -3.4390   -1.3740    2.1730 na        1 4DL     -0.022100
     29 N47        -3.0520   -1.2820    0.8890 nc        1 4DL     -0.516100
     30 C48        -1.7090   -1.2740    0.8450 cd        1 4DL      0.355800
     31 C50        -1.1610   -1.4360    2.1880 ca        1 4DL     -0.229900
     32 H1          0.7250   -0.5350   -2.0340 ho        1 4DL      0.409000
     33 H2          2.5910    0.0310   -0.7410 h1        1 4DL      0.038200
     34 H3          1.9890   -1.6820   -0.5320 h1        1 4DL      0.038200
     35 H4          0.4700    0.3320    1.1240 h1        1 4DL      0.073700
     36 H5          2.2650    0.3970    1.4720 h1        1 4DL      0.073700
     37 H6          3.8520   -1.0960    1.0240 ha        1 4DL      0.153000
     38 H7          5.6260   -2.8640    1.2660 h4        1 4DL      0.026100
     39 H8          1.9250   -5.7370    3.7530 hn        1 4DL      0.440800
     40 H9          5.5660   -5.8170    4.0200 ha        1 4DL      0.163000
     41 H10         6.8700   -7.9160    3.8250 ha        1 4DL      0.145000
     42 H11         6.2530  -10.7780    4.0360 h1        1 4DL      0.062700
     43 H12         6.6060  -10.4060    2.2850 h1        1 4DL      0.062700
     44 H13         4.9910  -12.2880    2.5100 hn        1 4DL      0.462800
     45 H14         1.9580   -7.9490    2.8010 ha        1 4DL      0.148000
     46 H15         1.1780   -1.7330    4.6540 ha        1 4DL      0.145000
     47 H16        -0.8330   -1.9030    6.0360 ha        1 4DL      0.136000
     48 H17        -3.1260   -1.7730    5.0480 ha        1 4DL      0.141000
     49 H18        -4.3640   -1.6690    2.3820 hn        1 4DL      0.315700
     50 H19        -1.1450   -1.1500   -0.0850 h4        1 4DL      0.076800
@<TRIPOS>BOND
     1    1    2 1   
     2    1   32 1   
     3    2    3 1   
     4    2   33 1   
     5    2   34 1   
     6    3    4 1   
     7    3   35 1   
     8    3   36 1   
     9    4    5 1   
    10    4   23 1   
    11    5    6 ar  
    12    5   22 ar  
    13    6    7 ar  
    14    6   37 1   
    15    7    8 ar  
    16    7   38 1   
    17    8    9 ar  
    18    9   10 1   
    19    9   22 ar  
    20   10   11 1   
    21   10   39 1   
    22   11   12 ar  
    23   11   21 ar  
    24   12   13 ar  
    25   12   40 1   
    26   13   14 ar  
    27   13   41 1   
    28   14   15 1   
    29   14   20 ar  
    30   15   16 1   
    31   15   42 1   
    32   15   43 1   
    33   16   17 1   
    34   16   44 1   
    35   17   18 2   
    36   17   19 2   
    37   17   20 1   
    38   20   21 ar  
    39   21   45 1   
    40   23   24 ar  
    41   23   31 ar  
    42   24   25 ar  
    43   24   46 1   
    44   25   26 ar  
    45   25   47 1   
    46   26   27 ar  
    47   26   48 1   
    48   27   28 1   
    49   27   31 ar  
    50   28   29 1   
    51   28   49 1   
    52   29   30 2   
    53   30   31 1   
    54   30   50 1   
@<TRIPOS>SUBSTRUCTURE
     1 4DL         1 TEMP              0 ****  ****    0 ROOT
