@<TRIPOS>MOLECULE
4DM
   45    42     1     0     0
SMALL
bcc


@<TRIPOS>ATOM
      1 C4          1.6480   -1.2390   -1.4990 c3        1 4DM     -0.175000
      2 C3          3.2240   -1.2870   -1.4330 c2        1 4DM      0.124000
      3 O3          3.9860   -0.9490   -2.5660 oh        1 4DM     -0.251000
      4 C2          3.9320   -1.3070    0.0650 c1        1 4DM     -0.256000
      5 C1          2.9810   -1.3060    1.3270 c1        1 4DM      0.274000
      6 C5         -0.5130   -1.7990   -0.4800 c3        1 4DM     -0.131000
      7 C6         -2.5470   -0.1540   -0.3900 c1        1 4DM     -0.125000
      8 O12         1.5340    0.7610    2.2340 o         1 4DM     -0.276500
      9 C12         0.9640    0.1040    1.3870 c1        1 4DM      0.274000
     10 C1B        -0.5200    0.5160    0.9110 c1        1 4DM     -0.281000
     11 C11        -1.0760    1.7240    1.2250 c2        1 4DM      0.224000
     12 O11        -0.6590    2.8710    1.9260 oh        1 4DM     -0.218000
     13 C1A        -2.3990    2.0580    0.7460 c1        1 4DM     -0.115000
     14 C10        -2.9470    3.3080    1.0330 c1        1 4DM      0.142000
     15 O10        -2.6590    4.4680    1.7740 oh        1 4DM     -0.215000
     16 C9         -4.2120    3.6490    0.5350 c1        1 4DM     -0.254000
     17 C8         -4.9350    2.7260   -0.2580 c1        1 4DM     -0.120000
     18 C7         -4.3870    1.4700   -0.5480 c1        1 4DM     -0.120000
     19 C61        -3.1290    1.1270   -0.0540 c1        1 4DM      0.057000
     20 C62        -3.3940   -1.0570   -1.2580 c2        1 4DM     -0.174000
     21 C51        -1.2970   -0.4760    0.0590 c2        1 4DM      0.015000
     22 C1C         1.4300   -1.3040    1.0800 c3        1 4DM      0.010000
     23 O1          3.4230   -1.0100    2.4190 o         1 4DM     -0.276500
     24 O1C         0.8690   -2.1330    2.0690 oh        1 4DM     -0.309000
     25 C41         0.9840   -1.8590   -0.2200 c3        1 4DM     -0.078000
     26 C21         5.3830   -1.7080    0.2100 c2        1 4DM      0.366000
     27 O21         5.9010   -1.7230    1.3090 o         1 4DM     -0.347000
     28 N21         6.1620   -1.9790   -0.9440 n         1 4DM     -0.416000
     29 H4          1.3260   -1.5500   -2.3690 hc        1 4DM      0.118500
     30 H4A         1.3490   -0.3080   -1.5300 hc        1 4DM      0.118500
     31 HO3         3.7680   -0.1300   -2.8360 ho        1 4DM      0.232000
     32 H5         -0.6540   -1.8600   -1.4460 hc        1 4DM      0.113500
     33 H5A        -0.9230   -2.5830   -0.0620 hc        1 4DM      0.113500
     34 HO11        0.2130    2.8190    2.0870 ho        1 4DM      0.261000
     35 HO10       -2.3540    5.1020    1.2270 ho        1 4DM      0.218000
     36 H9         -4.5950    4.5250    0.7360 ha        1 4DM      0.140000
     37 H8         -5.8160    2.9650   -0.6040 ha        1 4DM      0.138000
     38 H7         -4.8870    0.8340   -1.0950 ha        1 4DM      0.138000
     39 H62        -4.2540   -1.2200   -0.8170 ha        1 4DM      0.084000
     40 H62A       -2.9300   -1.9090   -1.3950 ha        1 4DM      0.084000
     41 H62B       -3.5480   -0.6250   -2.1240 ha        1 4DM      0.084000
     42 HO1C        1.5050   -2.6460    2.4220 ho        1 4DM      0.240000
     43 H41         1.2280   -2.8060   -0.2110 hc        1 4DM      0.123000
     44 HN21        7.0700   -1.8730   -0.9180 hn        1 4DM      0.222500
     45 HN2A        5.7530   -2.2280   -1.7230 hn        1 4DM      0.222500
@<TRIPOS>BOND
     1    1    2 1   
     2    1   25 1   
     3    1   29 1   
     4    1   30 1   
     5    2    3 1   
     6    2    4 1   
     7    3   31 1   
     8    4   26 1   
     9    5   22 1   
    10    5   23 1   
    11    6   21 1   
    12    6   25 1   
    13    6   32 1   
    14    6   33 1   
    15    7   19 1   
    16    7   21 1   
    17    8    9 1   
    18    9   22 1   
    19   10   11 1   
    20   10   21 1   
    21   11   12 1   
    22   11   13 1   
    23   12   34 1   
    24   13   19 1   
    25   14   15 1   
    26   14   16 1   
    27   15   35 1   
    28   16   36 1   
    29   17   18 1   
    30   17   37 1   
    31   18   38 1   
    32   20   39 1   
    33   20   40 1   
    34   20   41 1   
    35   22   24 1   
    36   22   25 1   
    37   24   42 1   
    38   25   43 1   
    39   26   27 1   
    40   26   28 1   
    41   28   44 1   
    42   28   45 1   
@<TRIPOS>SUBSTRUCTURE
     1 4DM         1 TEMP              0 ****  ****    0 ROOT
