@<TRIPOS>MOLECULE
4DM
   46    48     1     0     0
SMALL
bcc


@<TRIPOS>ATOM
      1 C4         -0.0990    0.3250   -0.1490 c3        1 4DM     -0.119200
      2 C3         -0.5420    1.4600    0.7060 c2        1 4DM      0.307900
      3 O3         -1.6890    2.0980    0.3980 oh        1 4DM     -0.437100
      4 C2          0.1400    1.8790    1.8350 ce        1 4DM     -0.405400
      5 C1          1.3990    1.2290    2.2270 c         1 4DM      0.630300
      6 C5          1.7100   -1.3320   -0.6450 c3        1 4DM     -0.052100
      7 C6          1.3360   -3.7750   -0.5830 ca        1 4DM     -0.095300
      8 C12         0.9750   -1.2420    2.1940 c         1 4DM      0.577700
      9 C1B         0.9750   -2.5120    1.4770 ca        1 4DM     -0.287600
     10 C11         0.6160   -3.7100    2.1280 ca        1 4DM      0.227100
     11 O11         0.2200   -3.7910    3.4320 oh        1 4DM     -0.494100
     12 C1A         0.6260   -4.9530    1.4410 ca        1 4DM     -0.099800
     13 C10         0.2850   -6.1880    2.1630 ce        1 4DM      0.102900
     14 O10        -0.9800   -6.2690    2.7200 oh        1 4DM     -0.504100
     15 C9          1.1000   -7.2480    2.2690 c2        1 4DM     -0.212000
     16 C8          0.9190   -7.2190   -1.2400 c1        1 4DM     -0.048500
     17 C7          0.9530   -6.1890   -0.6280 cg        1 4DM     -0.174000
     18 C61         0.9740   -4.9740    0.0860 ca        1 4DM      0.151000
     19 C62         1.7230   -3.8130   -2.0150 c3        1 4DM     -0.061800
     20 C51         1.3260   -2.5620    0.1060 ca        1 4DM     -0.028300
     21 C1C         1.7340   -0.0860    1.5250 c3        1 4DM     -0.008200
     22 O1          2.1450    1.7030    3.0910 o         1 4DM     -0.526100
     23 O1C         3.1340   -0.2470    1.6840 oh        1 4DM     -0.540800
     24 C41         1.3690   -0.0180    0.0370 c3        1 4DM     -0.079700
     25 C21        -0.4010    2.9920    2.5980 c         1 4DM      0.589300
     26 O21        -1.2390    3.8230    2.2720 o         1 4DM     -0.425100
     27 N21         0.1110    3.1600    4.0130 n4        1 4DM     -0.753400
     28 H4         -0.7340   -0.5730    0.1110 hc        1 4DM      0.109700
     29 H4A        -0.2870    0.5670   -1.2320 hc        1 4DM      0.109700
     30 HO3        -2.0830    1.7220   -0.4130 ho        1 4DM      0.471000
     31 H5          1.2200   -1.3450   -1.6590 hc        1 4DM      0.083200
     32 H5A         2.8230   -1.3630   -0.8240 hc        1 4DM      0.083200
     33 HO11        0.3790   -2.9560    3.9010 ho        1 4DM      0.462000
     34 HO10       -1.1560   -5.4380    3.1840 ho        1 4DM      0.424000
     35 H9          0.8090   -8.1380    2.8410 ha        1 4DM      0.137000
     36 H8          2.0760   -7.2780    1.7710 ha        1 4DM      0.137000
     37 H7          0.8870   -8.1380   -1.7750 ha        1 4DM      0.183500
     38 H62         1.8740   -4.8620   -2.3750 hc        1 4DM      0.057700
     39 H62A        2.6780   -3.2540   -2.1800 hc        1 4DM      0.057700
     40 H62B        0.9240   -3.3450   -2.6450 hc        1 4DM      0.057700
     41 HO1C        3.3540   -1.1470    1.4000 ho        1 4DM      0.431000
     42 H41         1.9980    0.7930   -0.4330 hc        1 4DM      0.096700
     43 HN21        1.1290    3.3330    3.9870 hn        1 4DM      0.475133
     44 HN2A       -0.0440    2.2950    4.5390 hn        1 4DM      0.475133
     45 O12         0.4110   -1.0470    3.2810 o         1 4DM     -0.559100
     46 H213       -0.3670    3.9420    4.4720 hn        1 4DM      0.475133
@<TRIPOS>BOND
     1    1    2 1   
     2    1   24 1   
     3    1   28 1   
     4    1   29 1   
     5    2    3 1   
     6    2    4 2   
     7    3   30 1   
     8    4    5 1   
     9    4   25 1   
    10    5   21 1   
    11    5   22 2   
    12    6   20 1   
    13    6   24 1   
    14    6   31 1   
    15    6   32 1   
    16    7   18 ar  
    17    7   19 1   
    18    7   20 ar  
    19    8    9 1   
    20    8   21 1   
    21    8   45 2   
    22    9   10 ar  
    23    9   20 ar  
    24   10   11 1   
    25   10   12 ar  
    26   11   33 1   
    27   12   13 1   
    28   12   18 ar  
    29   13   14 1   
    30   13   15 2   
    31   14   34 1   
    32   15   35 1   
    33   15   36 1   
    34   16   17 3   
    35   16   37 1   
    36   17   18 1   
    37   19   38 1   
    38   19   39 1   
    39   19   40 1   
    40   21   23 1   
    41   21   24 1   
    42   23   41 1   
    43   24   42 1   
    44   25   26 2   
    45   25   27 1   
    46   27   43 1   
    47   27   44 1   
    48   27   46 1   
@<TRIPOS>SUBSTRUCTURE
     1 4DM         1 TEMP              0 ****  ****    0 ROOT
