@<TRIPOS>MOLECULE
4DM
   45    48     1     0     0
SMALL
bcc


@<TRIPOS>ATOM
      1 C4         -1.4540    1.3410   -1.3020 c3        1 4DM     -0.077200
      2 C3         -2.6880    0.5490   -1.6020 c2        1 4DM      0.271900
      3 O3         -3.0050    0.6680   -2.9080 oh        1 4DM     -0.491100
      4 C2         -3.3520   -0.2010   -0.6640 ce        1 4DM     -0.406400
      5 C1         -2.9260   -0.1610    0.7300 c         1 4DM      0.595300
      6 C5          0.0510    2.2790    0.4590 c3        1 4DM     -0.041100
      7 C6          2.4240    1.7150   -0.0070 ca        1 4DM     -0.115300
      8 O12        -0.6960   -1.6990    1.3210 o         1 4DM     -0.569100
      9 C12        -0.4470   -0.5350    0.9640 c         1 4DM      0.586700
     10 C1B         0.8750   -0.1060    0.5020 ca        1 4DM     -0.280600
     11 C11         1.9060   -1.0280    0.3030 ca        1 4DM      0.253100
     12 O11         1.7920   -2.3690    0.5190 oh        1 4DM     -0.528100
     13 C1A         3.2020   -0.6240   -0.1740 ca        1 4DM     -0.142000
     14 C10         4.2450   -1.5420   -0.5050 ca        1 4DM      0.183100
     15 O10         4.1380   -2.9080   -0.4300 oh        1 4DM     -0.499100
     16 C9          5.5010   -1.0880   -0.9040 ca        1 4DM     -0.188000
     17 C8          5.7400    0.2880   -1.0080 ca        1 4DM     -0.064000
     18 C7          4.7410    1.1970   -0.7270 ca        1 4DM     -0.180000
     19 C61         3.4620    0.7660   -0.2990 ca        1 4DM      0.050000
     20 C62         2.7650    3.1600   -0.0440 c3        1 4DM     -0.052800
     21 C51         1.1510    1.2850    0.3010 ca        1 4DM     -0.001300
     22 C1C        -1.5770    0.4990    1.0600 c3        1 4DM     -0.015200
     23 O1         -3.5920   -0.5910    1.6830 o         1 4DM     -0.548100
     24 O1C        -1.6100    0.9850    2.3980 oh        1 4DM     -0.576800
     25 C41        -1.3250    1.7090    0.1630 c3        1 4DM     -0.044700
     26 C21        -4.5320   -1.0130   -1.0560 c         1 4DM      0.694300
     27 O21        -5.1260   -0.7970   -2.1470 o         1 4DM     -0.682100
     28 N21        -4.9580   -2.0500   -0.2750 n         1 4DM     -0.635000
     29 H4         -0.5680    0.7240   -1.6250 hc        1 4DM      0.093200
     30 H4A        -1.4510    2.2770   -1.9260 hc        1 4DM      0.093200
     31 HO3        -3.8030    0.1530   -3.1460 ho        1 4DM      0.489000
     32 H5          0.0590    2.6610    1.5180 hc        1 4DM      0.075200
     33 H5A         0.2170    3.1520   -0.2290 hc        1 4DM      0.075200
     34 HO11        0.9660   -2.6000    0.9750 ho        1 4DM      0.479000
     35 HO10        3.2200   -3.1800   -0.5680 ho        1 4DM      0.445000
     36 H9          6.2910   -1.8170   -1.1360 ha        1 4DM      0.157000
     37 H8          6.7340    0.6370   -1.3290 ha        1 4DM      0.139000
     38 H7          4.9420    2.2710   -0.8500 ha        1 4DM      0.141000
     39 H62         2.8050    3.5250   -1.1010 hc        1 4DM      0.047700
     40 H62A        2.0230    3.7800    0.5170 hc        1 4DM      0.047700
     41 H62B        3.7610    3.3400    0.4340 hc        1 4DM      0.047700
     42 HO1C       -2.0200    0.2960    2.9450 ho        1 4DM      0.438000
     43 H41        -2.0950    2.4920    0.4200 hc        1 4DM      0.085700
     44 HN21       -4.6150   -2.1720    0.6470 hn        1 4DM      0.325000
     45 HN2A       -5.7880   -2.5230   -0.5390 hn        1 4DM      0.325000
@<TRIPOS>BOND
     1    1    2 1   
     2    1   25 1   
     3    1   29 1   
     4    1   30 1   
     5    2    3 1   
     6    2    4 2   
     7    3   31 1   
     8    4    5 1   
     9    4   26 1   
    10    5   22 1   
    11    5   23 2   
    12    6   21 1   
    13    6   25 1   
    14    6   32 1   
    15    6   33 1   
    16    7   19 ar  
    17    7   20 1   
    18    7   21 ar  
    19    8    9 2   
    20    9   10 1   
    21    9   22 1   
    22   10   11 ar  
    23   10   21 ar  
    24   11   12 1   
    25   11   13 ar  
    26   12   34 1   
    27   13   14 ar  
    28   13   19 ar  
    29   14   15 1   
    30   14   16 ar  
    31   15   35 1   
    32   16   17 ar  
    33   16   36 1   
    34   17   18 ar  
    35   17   37 1   
    36   18   19 ar  
    37   18   38 1   
    38   20   39 1   
    39   20   40 1   
    40   20   41 1   
    41   22   24 1   
    42   22   25 1   
    43   24   42 1   
    44   25   43 1   
    45   26   27 2   
    46   26   28 1   
    47   28   44 1   
    48   28   45 1   
@<TRIPOS>SUBSTRUCTURE
     1 4DM         1 TEMP              0 ****  ****    0 ROOT
