@<TRIPOS>MOLECULE
4DN
   53    57     1     0     0
SMALL
bcc


@<TRIPOS>ATOM
      1 O3          0.3620    0.1980   -0.4600 o         1 4DN     -0.653300
      2 S2          1.7300    0.3520   -0.2120 sy        1 4DN      1.524200
      3 O1          2.5620   -0.4420   -1.0090 o         1 4DN     -0.653300
      4 C6          2.0950    0.1560    1.4450 ca        1 4DN     -0.337500
      5 C10         1.9800   -0.9730    2.2350 ca        1 4DN      0.044000
      6 C11         2.3400   -0.9070    3.6070 ca        1 4DN      0.113600
      7 C9          2.8190    0.3080    4.1350 ca        1 4DN     -0.115000
      8 C8          2.9470    1.4430    3.3280 ca        1 4DN     -0.116000
      9 C7          2.5810    1.3630    1.9990 ca        1 4DN     -0.047300
     10 C5          2.6440    2.4780    0.9850 c3        1 4DN      0.261100
     11 N4          2.1730    1.9260   -0.2610 n7        1 4DN     -0.920100
     12 N12         2.3090   -2.0650    4.4190 nu        1 4DN     -0.705300
     13 C13         1.0940   -2.7540    4.6650 ca        1 4DN      0.886900
     14 N17         1.0800   -3.5410    5.8010 nb        1 4DN     -0.791000
     15 C18        -0.0440   -4.2960    6.0200 ca        1 4DN      0.721200
     16 C16        -1.1390   -4.2610    5.1010 ca        1 4DN     -0.457600
     17 C15        -1.0180   -3.4050    4.0000 ca        1 4DN      0.482200
     18 N14         0.0580   -2.6440    3.7500 nb        1 4DN     -0.757000
     19 N19        -0.1280   -5.0370    7.2100 nh        1 4DN     -0.660700
     20 C20        -1.1660   -6.0330    7.3740 c3        1 4DN      0.216800
     21 C21        -1.0610   -7.2680    6.4810 c3        1 4DN     -0.123400
     22 C32        -2.1860   -8.2320    6.8160 c3        1 4DN      0.136400
     23 O31        -2.0950   -9.3030    5.8910 oh        1 4DN     -0.596800
     24 C22         1.0390   -5.2130    8.0140 ca        1 4DN      0.197600
     25 C30         1.1210   -4.5870    9.2670 ca        1 4DN     -0.144000
     26 C29         2.2400   -4.7570   10.0980 ca        1 4DN     -0.101000
     27 C28         3.3220   -5.5450    9.7360 ca        1 4DN     -0.138000
     28 C27         3.2630   -6.1710    8.4850 ca        1 4DN     -0.051200
     29 C23         2.1230   -6.0130    7.6120 ca        1 4DN     -0.211900
     30 N26         4.1330   -7.0670    7.8310 na        1 4DN     -0.020100
     31 N25         3.6720   -7.3870    6.6110 nc        1 4DN     -0.508100
     32 C24         2.4650   -6.8190    6.4430 cd        1 4DN      0.356800
     33 H1          1.6150   -1.9180    1.7990 ha        1 4DN      0.172000
     34 H2          3.1090    0.3790    5.1960 ha        1 4DN      0.139000
     35 H3          3.3270    2.3820    3.7560 ha        1 4DN      0.143000
     36 H4          3.7020    2.8550    0.8860 h1        1 4DN      0.060700
     37 H5          1.9980    3.3410    1.3150 h1        1 4DN      0.060700
     38 H6          2.1520    2.5340   -1.0350 hn        1 4DN      0.461800
     39 H7          2.9220   -2.0220    5.2110 hn        1 4DN      0.437800
     40 H8         -2.0420   -4.8640    5.2350 ha        1 4DN      0.156000
     41 H9         -1.8370   -3.3190    3.2600 h4        1 4DN      0.032100
     42 H10        -1.1390   -6.3620    8.4530 h1        1 4DN      0.059700
     43 H11        -2.1600   -5.5290    7.1970 h1        1 4DN      0.059700
     44 H12        -0.0740   -7.7800    6.6310 hc        1 4DN      0.069700
     45 H13        -1.1260   -6.9810    5.3990 hc        1 4DN      0.069700
     46 H14        -2.0770   -8.6170    7.8650 h1        1 4DN      0.021700
     47 H15        -3.1850   -7.7270    6.7170 h1        1 4DN      0.021700
     48 H16        -2.7810   -9.9360    6.1340 ho        1 4DN      0.403000
     49 H17         0.2990   -3.9430    9.6140 ha        1 4DN      0.144000
     50 H18         2.2530   -4.2400   11.0710 ha        1 4DN      0.136000
     51 H19         4.1870   -5.6720   10.3990 ha        1 4DN      0.142000
     52 H20         5.1040   -7.1580    8.0230 hn        1 4DN      0.316700
     53 H21         1.8650   -6.9650    5.5430 h4        1 4DN      0.060800
@<TRIPOS>BOND
     1    1    2 2   
     2    2    3 2   
     3    2    4 1   
     4    2   11 1   
     5    4    5 ar  
     6    4    9 ar  
     7    5    6 ar  
     8    5   33 1   
     9    6    7 ar  
    10    6   12 1   
    11    7    8 ar  
    12    7   34 1   
    13    8    9 ar  
    14    8   35 1   
    15    9   10 1   
    16   10   11 1   
    17   10   36 1   
    18   10   37 1   
    19   11   38 1   
    20   12   13 1   
    21   12   39 1   
    22   13   14 ar  
    23   13   18 ar  
    24   14   15 ar  
    25   15   16 ar  
    26   15   19 1   
    27   16   17 ar  
    28   16   40 1   
    29   17   18 ar  
    30   17   41 1   
    31   19   20 1   
    32   19   24 1   
    33   20   21 1   
    34   20   42 1   
    35   20   43 1   
    36   21   22 1   
    37   21   44 1   
    38   21   45 1   
    39   22   23 1   
    40   22   46 1   
    41   22   47 1   
    42   23   48 1   
    43   24   25 ar  
    44   24   29 ar  
    45   25   26 ar  
    46   25   49 1   
    47   26   27 ar  
    48   26   50 1   
    49   27   28 ar  
    50   27   51 1   
    51   28   29 ar  
    52   28   30 1   
    53   29   32 1   
    54   30   31 1   
    55   30   52 1   
    56   31   32 2   
    57   32   53 1   
@<TRIPOS>SUBSTRUCTURE
     1 4DN         1 TEMP              0 ****  ****    0 ROOT
