@<TRIPOS>MOLECULE
4DN
   53    57     1     0     0
SMALL
bcc


@<TRIPOS>ATOM
      1 O3          0.3470    0.2070   -0.4510 o         1 4DN     -0.653300
      2 S2          1.7140    0.3680   -0.2020 sy        1 4DN      1.524200
      3 O1          2.5500   -0.4200   -1.0000 o         1 4DN     -0.653300
      4 C6          2.0790    0.1700    1.4540 ca        1 4DN     -0.337500
      5 C10         1.9690   -0.9610    2.2420 ca        1 4DN      0.044000
      6 C11         2.3280   -0.8970    3.6140 ca        1 4DN      0.113600
      7 C9          2.8010    0.3190    4.1450 ca        1 4DN     -0.115000
      8 C8          2.9230    1.4570    3.3410 ca        1 4DN     -0.116000
      9 C7          2.5590    1.3780    2.0110 ca        1 4DN     -0.047300
     10 C5          2.6160    2.4970    1.0000 c3        1 4DN      0.261100
     11 N4          2.1490    1.9450   -0.2480 n3        1 4DN     -0.920100
     12 N12         2.3030   -2.0570    4.4230 nh        1 4DN     -0.706300
     13 C13         1.0910   -2.7530    4.6670 ca        1 4DN      0.886900
     14 N17         1.0810   -3.5430    5.8000 nb        1 4DN     -0.791000
     15 C18        -0.0390   -4.3050    6.0170 ca        1 4DN      0.721200
     16 C16        -1.1340   -4.2720    5.0970 ca        1 4DN     -0.457600
     17 C15        -1.0170   -3.4140    3.9990 ca        1 4DN      0.482200
     18 N14         0.0550   -2.6460    3.7520 nb        1 4DN     -0.757000
     19 N19        -0.1200   -5.0500    7.2050 nh        1 4DN     -0.660700
     20 C20        -1.1520   -6.0520    7.3650 c3        1 4DN      0.216800
     21 C21        -1.0390   -7.2830    6.4680 c3        1 4DN     -0.123400
     22 C32        -2.1590   -8.2550    6.8000 c3        1 4DN      0.136400
     23 O31        -2.0620   -9.3220    5.8710 oh        1 4DN     -0.596800
     24 C22         1.0480   -5.2220    8.0090 ca        1 4DN      0.197600
     25 C30         1.1260   -4.5990    9.2640 ca        1 4DN     -0.144000
     26 C29         2.2450   -4.7650   10.0960 ca        1 4DN     -0.101000
     27 C28         3.3310   -5.5450    9.7320 ca        1 4DN     -0.138000
     28 C27         3.2770   -6.1680    8.4790 ca        1 4DN     -0.051200
     29 C23         2.1370   -6.0140    7.6050 ca        1 4DN     -0.211900
     30 N26         4.1520   -7.0570    7.8230 na        1 4DN     -0.020100
     31 N25         3.6940   -7.3760    6.6010 nc        1 4DN     -0.508100
     32 C24         2.4840   -6.8150    6.4350 cd        1 4DN      0.356800
     33 H1          1.6100   -1.9080    1.8030 ha        1 4DN      0.172000
     34 H2          3.0890    0.3900    5.2070 ha        1 4DN      0.139000
     35 H3          3.2980    2.3970    3.7720 ha        1 4DN      0.143000
     36 H4          1.9660    3.3550    1.3320 h1        1 4DN      0.060700
     37 H5          3.6720    2.8790    0.9030 h1        1 4DN      0.060700
     38 H6          2.1250    2.5540   -1.0200 hn        1 4DN      0.461800
     39 H7          2.9150   -2.0130    5.2150 hn        1 4DN      0.437800
     40 H8         -2.0340   -4.8810    5.2300 ha        1 4DN      0.156000
     41 H9         -1.8360   -3.3290    3.2590 h4        1 4DN      0.032100
     42 H10        -2.1490   -5.5530    7.1890 h1        1 4DN      0.059700
     43 H11        -1.1240   -6.3840    8.4440 h1        1 4DN      0.059700
     44 H12        -0.0500   -7.7900    6.6170 hc        1 4DN      0.069700
     45 H13        -1.1050   -6.9930    5.3870 hc        1 4DN      0.069700
     46 H14        -3.1610   -7.7550    6.7020 h1        1 4DN      0.021700
     47 H15        -2.0490   -8.6430    7.8480 h1        1 4DN      0.021700
     48 H16        -2.7440   -9.9600    6.1120 ho        1 4DN      0.403000
     49 H17         0.2990   -3.9600    9.6130 ha        1 4DN      0.144000
     50 H18         2.2540   -4.2500   11.0700 ha        1 4DN      0.136000
     51 H19         4.1970   -5.6690   10.3950 ha        1 4DN      0.142000
     52 H20         5.1230   -7.1440    8.0150 hn        1 4DN      0.316700
     53 H21         1.8860   -6.9610    5.5340 h4        1 4DN      0.060800
@<TRIPOS>BOND
     1    1    2 2   
     2    2    3 2   
     3    2    4 1   
     4    2   11 1   
     5    4    5 ar  
     6    4    9 ar  
     7    5    6 ar  
     8    5   33 1   
     9    6    7 ar  
    10    6   12 1   
    11    7    8 ar  
    12    7   34 1   
    13    8    9 ar  
    14    8   35 1   
    15    9   10 1   
    16   10   11 1   
    17   10   36 1   
    18   10   37 1   
    19   11   38 1   
    20   12   13 1   
    21   12   39 1   
    22   13   14 ar  
    23   13   18 ar  
    24   14   15 ar  
    25   15   16 ar  
    26   15   19 1   
    27   16   17 ar  
    28   16   40 1   
    29   17   18 ar  
    30   17   41 1   
    31   19   20 1   
    32   19   24 1   
    33   20   21 1   
    34   20   42 1   
    35   20   43 1   
    36   21   22 1   
    37   21   44 1   
    38   21   45 1   
    39   22   23 1   
    40   22   46 1   
    41   22   47 1   
    42   23   48 1   
    43   24   25 ar  
    44   24   29 ar  
    45   25   26 ar  
    46   25   49 1   
    47   26   27 ar  
    48   26   50 1   
    49   27   28 ar  
    50   27   51 1   
    51   28   29 ar  
    52   28   30 1   
    53   29   32 1   
    54   30   31 1   
    55   30   52 1   
    56   31   32 2   
    57   32   53 1   
@<TRIPOS>SUBSTRUCTURE
     1 4DN         1 TEMP              0 ****  ****    0 ROOT
