@<TRIPOS>MOLECULE
4DO
   46    50     1     0     0
SMALL
bcc


@<TRIPOS>ATOM
      1 O2         -0.5200   -0.5080   -0.5450 o         1 4DO     -0.653300
      2 S1          0.8530   -0.3890   -0.3020 sy        1 4DO      1.524200
      3 O1          1.5000    0.5820   -1.0730 o         1 4DO     -0.653300
      4 N6          1.1770   -0.2180    1.2900 n3        1 4DO     -0.920100
      5 C15         1.9140   -1.3020    1.8940 c3        1 4DO      0.259100
      6 C14         2.1690   -2.3100    0.8000 ca        1 4DO     -0.041300
      7 C16         1.6310   -1.9040   -0.4420 ca        1 4DO     -0.332500
      8 C17         1.7840   -2.7110   -1.5530 ca        1 4DO     -0.016000
      9 C13         2.8410   -3.5110    0.9300 ca        1 4DO     -0.121000
     10 C12         2.9870   -4.3370   -0.1890 ca        1 4DO     -0.046000
     11 C11         2.4700   -3.9480   -1.4400 ca        1 4DO      0.100600
     12 N5          2.5450   -4.8120   -2.5600 nh        1 4DO     -0.699300
     13 C10         3.8000   -5.1750   -3.1100 ca        1 4DO      0.866900
     14 N7          4.9260   -5.1580   -2.3010 nb        1 4DO     -0.722000
     15 C18         6.0590   -5.6040   -2.8540 ca        1 4DO      0.433200
     16 C19         6.1500   -6.0670   -4.1890 ca        1 4DO     -0.142700
     17 F2          7.3320   -6.4900   -4.6770 f         1 4DO     -0.108900
     18 N4          3.7800   -5.5970   -4.4270 nb        1 4DO     -0.770000
     19 C9          4.9430   -6.0450   -4.9740 ca        1 4DO      0.653200
     20 N1          5.0030   -6.4010   -6.3550 nh        1 4DO     -0.618700
     21 C1          3.9990   -5.8160   -7.2230 c3        1 4DO      0.180100
     22 C2          5.2900   -7.7740   -6.6240 ca        1 4DO      0.180600
     23 C3          4.9420   -8.8200   -5.7570 ca        1 4DO     -0.186000
     24 C4          5.2640  -10.1560   -6.0480 ca        1 4DO     -0.083000
     25 C5          5.9260  -10.5240   -7.2090 ca        1 4DO     -0.149000
     26 C6          6.2820   -9.4940   -8.0910 ca        1 4DO     -0.039200
     27 C8          5.9720   -8.1130   -7.8080 ca        1 4DO     -0.211900
     28 N2          6.9120   -9.4980   -9.3480 na        1 4DO     -0.022100
     29 N3          7.0840   -8.2510   -9.8140 nc        1 4DO     -0.512100
     30 C7          6.5160   -7.3880   -8.9510 cd        1 4DO      0.358800
     31 H13         0.9330    0.5330    1.8780 hn        1 4DO      0.463800
     32 H1_5        2.8920   -0.9370    2.3200 h1        1 4DO      0.064200
     33 H1_4        1.3250   -1.7750    2.7300 h1        1 4DO      0.064200
     34 H12         1.3670   -2.3920   -2.5240 ha        1 4DO      0.148000
     35 H16         3.2560   -3.8240    1.9000 ha        1 4DO      0.147000
     36 H17         3.5150   -5.2980   -0.0760 ha        1 4DO      0.162000
     37 H11         1.8340   -4.6430   -3.2470 hn        1 4DO      0.438800
     38 H10         6.9580   -5.5860   -2.2090 h4        1 4DO      0.045100
     39 H__9        4.2950   -6.0360   -8.2840 h1        1 4DO      0.052367
     40 H__8        2.9680   -6.2220   -7.0410 h1        1 4DO      0.052367
     41 H__7        3.9880   -4.7070   -7.0650 h1        1 4DO      0.052367
     42 H6          4.4050   -8.6030   -4.8210 ha        1 4DO      0.141000
     43 H5          4.9710  -10.9340   -5.3260 ha        1 4DO      0.137000
     44 H4          6.1630  -11.5720   -7.4280 ha        1 4DO      0.142000
     45 H3          7.4430  -10.2450   -9.7290 hn        1 4DO      0.321700
     46 H1          6.5000   -6.3100   -9.1160 h4        1 4DO      0.060800
@<TRIPOS>BOND
     1    1    2 2   
     2    2    3 2   
     3    2    4 1   
     4    2    7 1   
     5    4    5 1   
     6    4   31 1   
     7    5    6 1   
     8    5   32 1   
     9    5   33 1   
    10    6    7 ar  
    11    6    9 ar  
    12    7    8 ar  
    13    8   11 ar  
    14    8   34 1   
    15    9   10 ar  
    16    9   35 1   
    17   10   11 ar  
    18   10   36 1   
    19   11   12 1   
    20   12   13 1   
    21   12   37 1   
    22   13   14 ar  
    23   13   18 ar  
    24   14   15 ar  
    25   15   16 ar  
    26   15   38 1   
    27   16   17 1   
    28   16   19 ar  
    29   18   19 ar  
    30   19   20 1   
    31   20   21 1   
    32   20   22 1   
    33   21   39 1   
    34   21   40 1   
    35   21   41 1   
    36   22   23 ar  
    37   22   27 ar  
    38   23   24 ar  
    39   23   42 1   
    40   24   25 ar  
    41   24   43 1   
    42   25   26 ar  
    43   25   44 1   
    44   26   27 ar  
    45   26   28 1   
    46   27   30 1   
    47   28   29 1   
    48   28   45 1   
    49   29   30 2   
    50   30   46 1   
@<TRIPOS>SUBSTRUCTURE
     1 4DO         1 TEMP              0 ****  ****    0 ROOT
