@<TRIPOS>MOLECULE
4DO
   46    50     1     0     0
SMALL
bcc


@<TRIPOS>ATOM
      1 O2         -0.5420   -0.5280   -0.5440 o         1 4DO     -0.653300
      2 S1          0.8290   -0.4110   -0.2910 sy        1 4DO      1.524200
      3 O1          1.4810    0.5650   -1.0520 o         1 4DO     -0.653300
      4 N6          1.1430   -0.2510    1.3040 n7        1 4DO     -0.920100
      5 C15         1.8760   -1.3380    1.9060 c3        1 4DO      0.259100
      6 C14         2.1380   -2.3390    0.8070 ca        1 4DO     -0.041300
      7 C16         1.6080   -1.9250   -0.4350 ca        1 4DO     -0.332500
      8 C17         1.7690   -2.7250   -1.5520 ca        1 4DO     -0.017000
      9 C13         2.8090   -3.5410    0.9340 ca        1 4DO     -0.121000
     10 C12         2.9630   -4.3590   -0.1900 ca        1 4DO     -0.046000
     11 C11         2.4540   -3.9620   -1.4420 ca        1 4DO      0.100600
     12 N5          2.5360   -4.8190   -2.5670 nu        1 4DO     -0.700300
     13 C10         3.7950   -5.1790   -3.1110 ca        1 4DO      0.866900
     14 N7          4.9160   -5.1670   -2.2940 nb        1 4DO     -0.722000
     15 C18         6.0520   -5.6090   -2.8420 ca        1 4DO      0.433200
     16 C19         6.1520   -6.0650   -4.1790 ca        1 4DO     -0.142700
     17 F2          7.3370   -6.4850   -4.6620 f         1 4DO     -0.108900
     18 N4          3.7830   -5.5930   -4.4300 nb        1 4DO     -0.769000
     19 C9          4.9510   -6.0380   -4.9720 ca        1 4DO      0.653200
     20 N1          5.0190   -6.3860   -6.3550 nh        1 4DO     -0.618700
     21 C1          4.0220   -5.7950   -7.2270 c3        1 4DO      0.180100
     22 C2          5.3060   -7.7580   -6.6300 ca        1 4DO      0.180600
     23 C3          4.9510   -8.8090   -5.7710 ca        1 4DO     -0.186000
     24 C4          5.2720  -10.1430   -6.0680 ca        1 4DO     -0.083000
     25 C5          5.9420  -10.5050   -7.2260 ca        1 4DO     -0.149000
     26 C6          6.3050   -9.4710   -8.1000 ca        1 4DO     -0.039200
     27 C8          5.9950   -8.0910   -7.8110 ca        1 4DO     -0.211900
     28 N2          6.9430   -9.4690   -9.3530 na        1 4DO     -0.022100
     29 N3          7.1210   -8.2200   -9.8110 nc        1 4DO     -0.512100
     30 C7          6.5480   -7.3610   -8.9460 cd        1 4DO      0.358800
     31 H13         0.8940    0.4960    1.8950 hn        1 4DO      0.463800
     32 H1_5        2.8500   -0.9770    2.3410 h1        1 4DO      0.064200
     33 H1_4        1.2800   -1.8170    2.7340 h1        1 4DO      0.064200
     34 H12         1.3590   -2.3990   -2.5220 ha        1 4DO      0.148000
     35 H16         3.2170   -3.8610    1.9040 ha        1 4DO      0.147000
     36 H17         3.4900   -5.3220   -0.0800 ha        1 4DO      0.162000
     37 H11         1.8300   -4.6460   -3.2580 hn        1 4DO      0.438800
     38 H10         6.9470   -5.5960   -2.1920 h4        1 4DO      0.045100
     39 H__9        4.3250   -6.0090   -8.2860 h1        1 4DO      0.052367
     40 H__8        2.9890   -6.2000   -7.0540 h1        1 4DO      0.052367
     41 H__7        4.0110   -4.6860   -7.0610 h1        1 4DO      0.052367
     42 H6          4.4070   -8.5960   -4.8370 ha        1 4DO      0.141000
     43 H5          4.9730  -10.9250   -5.3520 ha        1 4DO      0.137000
     44 H4          6.1780  -11.5530   -7.4500 ha        1 4DO      0.142000
     45 H3          7.4750  -10.2150   -9.7340 hn        1 4DO      0.321700
     46 H1          6.5350   -6.2820   -9.1050 h4        1 4DO      0.060800
@<TRIPOS>BOND
     1    1    2 2   
     2    2    3 2   
     3    2    4 1   
     4    2    7 1   
     5    4    5 1   
     6    4   31 1   
     7    5    6 1   
     8    5   32 1   
     9    5   33 1   
    10    6    7 ar  
    11    6    9 ar  
    12    7    8 ar  
    13    8   11 ar  
    14    8   34 1   
    15    9   10 ar  
    16    9   35 1   
    17   10   11 ar  
    18   10   36 1   
    19   11   12 1   
    20   12   13 1   
    21   12   37 1   
    22   13   14 ar  
    23   13   18 ar  
    24   14   15 ar  
    25   15   16 ar  
    26   15   38 1   
    27   16   17 1   
    28   16   19 ar  
    29   18   19 ar  
    30   19   20 1   
    31   20   21 1   
    32   20   22 1   
    33   21   39 1   
    34   21   40 1   
    35   21   41 1   
    36   22   23 ar  
    37   22   27 ar  
    38   23   24 ar  
    39   23   42 1   
    40   24   25 ar  
    41   24   43 1   
    42   25   26 ar  
    43   25   44 1   
    44   26   27 ar  
    45   26   28 1   
    46   27   30 1   
    47   28   29 1   
    48   28   45 1   
    49   29   30 2   
    50   30   46 1   
@<TRIPOS>SUBSTRUCTURE
     1 4DO         1 TEMP              0 ****  ****    0 ROOT
