@<TRIPOS>MOLECULE
4DP
   34    35     1     0     0
SMALL
bcc


@<TRIPOS>ATOM
      1 OAP        -2.9670   -4.4810   -0.2790 o         1 4DP     -0.604500
      2 CAJ        -3.4490   -3.3960    0.0670 c         1 4DP      0.719100
      3 CAL        -2.7030   -2.0990    0.2310 ca        1 4DP     -0.120600
      4 CAG        -1.3680   -1.8120    0.0720 ca        1 4DP     -0.089000
      5 CAH        -0.9280   -0.4800    0.3350 ca        1 4DP      0.112600
      6 NAM         0.4650   -0.2010    0.2280 nh        1 4DP     -0.639000
      7 CAD         0.9250    1.0010    0.8770 c3        1 4DP      0.173600
      8 CAC         1.0260   -0.3970   -1.0890 c3        1 4DP      0.173600
      9 CAE        -1.8630    0.4840    0.7530 ca        1 4DP     -0.176000
     10 CAF        -3.2220    0.1700    0.9180 ca        1 4DP     -0.053000
     11 CAK        -3.6380   -1.1130    0.6440 ca        1 4DP     -0.110600
     12 CAI        -4.9940   -1.7550    0.7080 c         1 4DP      0.770100
     13 OAO        -6.0780   -1.1980    0.8860 o         1 4DP     -0.577500
     14 NAN        -4.8280   -3.1270    0.2920 n         1 4DP     -0.472400
     15 CB         -5.7310   -4.1460    0.7660 c3        1 4DP      0.112000
     16 CA         -5.3670   -4.7650    2.1380 c3        1 4DP     -0.009500
     17 C          -5.3990   -3.6800    3.2620 c         1 4DP      0.889600
     18 O          -5.9650   -3.9760    4.3500 o         1 4DP     -0.836800
     19 N          -6.2050   -5.9260    2.4110 n3        1 4DP     -0.881800
     20 OXT        -4.8270   -2.5730    3.0390 o         1 4DP     -0.836800
     21 HAG        -0.6590   -2.5970   -0.2280 ha        1 4DP      0.151000
     22 HAD1        2.0460    0.9680    0.9200 h1        1 4DP      0.032033
     23 HAD2        0.5230    1.0340    1.9240 h1        1 4DP      0.032033
     24 HAD3        0.6210    1.9430    0.3420 h1        1 4DP      0.032033
     25 HAC1        0.6410   -1.3530   -1.5280 h1        1 4DP      0.032033
     26 HAC2        2.1420   -0.4670   -0.9890 h1        1 4DP      0.032033
     27 HAC3        0.7860    0.4450   -1.7950 h1        1 4DP      0.032033
     28 HAE        -1.5440    1.5130    0.9720 ha        1 4DP      0.125000
     29 HAF        -3.9330    0.9320    1.2680 ha        1 4DP      0.151000
     30 HB3        -5.7450   -4.9570   -0.0180 h1        1 4DP      0.056200
     31 HB2        -6.7520   -3.6740    0.8350 h1        1 4DP      0.056200
     32 HA         -4.3010   -5.1370    2.0820 h1        1 4DP      0.055700
     33 H          -5.9680   -6.2470    3.3360 hn        1 4DP      0.335300
     34 H2         -7.1620   -5.6200    2.4580 hn        1 4DP      0.335300
@<TRIPOS>BOND
     1    1    2 2   
     2    2    3 1   
     3    2   14 1   
     4    3    4 ar  
     5    3   11 ar  
     6    4    5 ar  
     7    4   21 1   
     8    5    6 1   
     9    5    9 ar  
    10    6    7 1   
    11    6    8 1   
    12    7   22 1   
    13    7   23 1   
    14    7   24 1   
    15    8   25 1   
    16    8   26 1   
    17    8   27 1   
    18    9   10 ar  
    19    9   28 1   
    20   10   11 ar  
    21   10   29 1   
    22   11   12 1   
    23   12   13 2   
    24   12   14 1   
    25   14   15 1   
    26   15   16 1   
    27   15   30 1   
    28   15   31 1   
    29   16   17 1   
    30   16   19 1   
    31   16   32 1   
    32   17   18 1   
    33   17   20 1   
    34   19   33 1   
    35   19   34 1   
@<TRIPOS>SUBSTRUCTURE
     1 4DP         1 TEMP              0 ****  ****    0 ROOT
