@<TRIPOS>MOLECULE
4DQ
   49    53     1     0     0
SMALL
bcc


@<TRIPOS>ATOM
      1 F2         -0.2780   -1.3300   -0.0420 f         1 4DQ     -0.113900
      2 C20         1.0540   -1.1270   -0.0360 ca        1 4DQ     -0.159700
      3 C10         1.7920   -0.8010    1.1610 ca        1 4DQ      0.679200
      4 N1          1.1270   -0.7690    2.4100 nh        1 4DQ     -0.637700
      5 C3         -0.0120    0.0860    2.5250 ca        1 4DQ      0.179600
      6 C9         -0.0330    1.4120    2.0550 ca        1 4DQ     -0.231900
      7 C8          0.9090    2.3130    1.3970 cc        1 4DQ      0.348800
      8 N3          0.3300    3.5080    1.1800 nd        1 4DQ     -0.504100
      9 N2         -0.9080    3.4840    1.6960 na        1 4DQ     -0.020100
     10 C7         -1.2260    2.2120    2.2080 ca        1 4DQ     -0.042200
     11 C6         -2.3750    1.7070    2.8280 ca        1 4DQ     -0.141000
     12 C5         -2.3200    0.4000    3.2860 ca        1 4DQ     -0.093000
     13 C4         -1.1750   -0.4000    3.1450 ca        1 4DQ     -0.145000
     14 C2          1.8990   -0.9290    3.6340 c3        1 4DQ      0.209800
     15 C1          2.6100    0.2970    4.1790 c3        1 4DQ     -0.126100
     16 C19         1.7900   -1.2400   -1.2380 ca        1 4DQ      0.439200
     17 N7          3.1170   -1.0920   -1.3130 nb        1 4DQ     -0.730000
     18 C11         3.7670   -0.8030   -0.1230 ca        1 4DQ      0.871900
     19 N4          3.1410   -0.6190    1.0960 nb        1 4DQ     -0.782000
     20 N5          5.1830   -0.7370   -0.1020 nh        1 4DQ     -0.700300
     21 C12         5.9140   -0.4430   -1.2790 ca        1 4DQ      0.102600
     22 C18         6.7610    0.6940   -1.3120 ca        1 4DQ     -0.017000
     23 C17         7.5480    0.9370   -2.4220 ca        1 4DQ     -0.332500
     24 S1          8.6480    2.2110   -2.7130 sy        1 4DQ      1.524200
     25 O1          9.7260    2.1520   -1.8230 o         1 4DQ     -0.653800
     26 O2          7.9920    3.4450   -2.7540 o         1 4DQ     -0.653800
     27 N6          9.0630    1.6920   -4.2050 n3        1 4DQ     -0.920100
     28 C16         8.4080    0.4840   -4.6480 c3        1 4DQ      0.259100
     29 C15         7.4930    0.0570   -3.5260 ca        1 4DQ     -0.042300
     30 C14         6.6730   -1.0560   -3.5140 ca        1 4DQ     -0.121000
     31 C13         5.8860   -1.3120   -2.3870 ca        1 4DQ     -0.046000
     32 H10         1.9400    2.0980    1.1150 h4        1 4DQ      0.059800
     33 H1         -1.5650    4.1790    1.4290 hn        1 4DQ      0.320700
     34 H9         -3.2780    2.3200    2.9470 ha        1 4DQ      0.143000
     35 H8         -3.2050   -0.0370    3.7760 ha        1 4DQ      0.138000
     36 H7         -1.2020   -1.4330    3.5260 ha        1 4DQ      0.147000
     37 H6          2.6510   -1.7500    3.4610 h1        1 4DQ      0.060700
     38 H5          1.1600   -1.2930    4.4070 h1        1 4DQ      0.060700
     39 H4          1.8950    1.1430    4.3280 hc        1 4DQ      0.047700
     40 H3          3.0650    0.0370    5.1650 hc        1 4DQ      0.047700
     41 H2          3.4220    0.6370    3.4940 hc        1 4DQ      0.047700
     42 H18         1.2700   -1.4730   -2.1870 h4        1 4DQ      0.043100
     43 H11         5.5590   -0.3110    0.7230 hn        1 4DQ      0.438800
     44 H17         6.8010    1.3850   -0.4520 ha        1 4DQ      0.148000
     45 H16         9.6970    2.1060   -4.8330 hn        1 4DQ      0.463800
     46 H15         9.1600   -0.3260   -4.8660 h1        1 4DQ      0.063700
     47 H14         7.8110    0.6680   -5.5870 h1        1 4DQ      0.063700
     48 H13         6.6350   -1.7400   -4.3750 ha        1 4DQ      0.146000
     49 H12         5.2430   -2.2080   -2.3800 ha        1 4DQ      0.163000
@<TRIPOS>BOND
     1    1    2 1   
     2    2    3 ar  
     3    2   16 ar  
     4    3    4 1   
     5    3   19 ar  
     6    4    5 1   
     7    4   14 1   
     8    5    6 ar  
     9    5   13 ar  
    10    6    7 1   
    11    6   10 ar  
    12    7    8 2   
    13    7   32 1   
    14    8    9 1   
    15    9   10 1   
    16    9   33 1   
    17   10   11 ar  
    18   11   12 ar  
    19   11   34 1   
    20   12   13 ar  
    21   12   35 1   
    22   13   36 1   
    23   14   15 1   
    24   14   37 1   
    25   14   38 1   
    26   15   39 1   
    27   15   40 1   
    28   15   41 1   
    29   16   17 ar  
    30   16   42 1   
    31   17   18 ar  
    32   18   19 ar  
    33   18   20 1   
    34   20   21 1   
    35   20   43 1   
    36   21   22 ar  
    37   21   31 ar  
    38   22   23 ar  
    39   22   44 1   
    40   23   24 1   
    41   23   29 ar  
    42   24   25 2   
    43   24   26 2   
    44   24   27 1   
    45   27   28 1   
    46   27   45 1   
    47   28   29 1   
    48   28   46 1   
    49   28   47 1   
    50   29   30 ar  
    51   30   31 ar  
    52   30   48 1   
    53   31   49 1   
@<TRIPOS>SUBSTRUCTURE
     1 4DQ         1 TEMP              0 ****  ****    0 ROOT
