@<TRIPOS>MOLECULE
4DQ
   49    53     1     0     0
SMALL
bcc


@<TRIPOS>ATOM
      1 F2         -0.2770   -1.3370   -0.0230 f         1 4DQ     -0.113900
      2 C20         1.0560   -1.1320   -0.0230 ca        1 4DQ     -0.159700
      3 C10         1.7970   -0.8000    1.1700 ca        1 4DQ      0.679200
      4 N1          1.1370   -0.7650    2.4220 nh        1 4DQ     -0.637700
      5 C3         -0.0040    0.0870    2.5380 ca        1 4DQ      0.179600
      6 C9         -0.0290    1.4120    2.0640 ca        1 4DQ     -0.231900
      7 C8          0.9070    2.3120    1.3990 cc        1 4DQ      0.348800
      8 N3          0.3250    3.5060    1.1800 nd        1 4DQ     -0.504100
      9 N2         -0.9110    3.4810    1.7000 na        1 4DQ     -0.020100
     10 C7         -1.2240    2.2090    2.2190 ca        1 4DQ     -0.042200
     11 C6         -2.3690    1.7040    2.8460 ca        1 4DQ     -0.141000
     12 C5         -2.3090    0.3980    3.3080 ca        1 4DQ     -0.093000
     13 C4         -1.1620   -0.3990    3.1650 ca        1 4DQ     -0.145000
     14 C2          1.9140   -0.9200    3.6430 c3        1 4DQ      0.209800
     15 C1          2.6240    0.3100    4.1810 c3        1 4DQ     -0.126100
     16 C19         1.7870   -1.2470   -1.2280 ca        1 4DQ      0.439200
     17 N7          3.1140   -1.0950   -1.3080 nb        1 4DQ     -0.730000
     18 C11         3.7670   -0.8010   -0.1220 ca        1 4DQ      0.871900
     19 N4          3.1460   -0.6140    1.1000 nb        1 4DQ     -0.782000
     20 N5          5.1830   -0.7320   -0.1070 nu        1 4DQ     -0.700300
     21 C12         5.9090   -0.4410   -1.2870 ca        1 4DQ      0.102600
     22 C18         6.7530    0.6990   -1.3270 ca        1 4DQ     -0.017000
     23 C17         7.5350    0.9390   -2.4410 ca        1 4DQ     -0.332500
     24 S1          8.6310    2.2150   -2.7410 sy        1 4DQ      1.524200
     25 O1          9.7130    2.1620   -1.8550 o         1 4DQ     -0.653800
     26 O2          7.9730    3.4480   -2.7840 o         1 4DQ     -0.653800
     27 N6          9.0410    1.6920   -4.2330 n7        1 4DQ     -0.920100
     28 C16         8.3880    0.4810   -4.6690 c3        1 4DQ      0.259100
     29 C15         7.4780    0.0560   -3.5420 ca        1 4DQ     -0.042300
     30 C14         6.6600   -1.0590   -3.5230 ca        1 4DQ     -0.121000
     31 C13         5.8780   -1.3140   -2.3920 ca        1 4DQ     -0.046000
     32 H10         1.9380    2.0990    1.1120 h4        1 4DQ      0.059800
     33 H1         -1.5710    4.1730    1.4340 hn        1 4DQ      0.320700
     34 H9         -3.2730    2.3150    2.9660 ha        1 4DQ      0.143000
     35 H8         -3.1910   -0.0390    3.8030 ha        1 4DQ      0.138000
     36 H7         -1.1860   -1.4310    3.5500 ha        1 4DQ      0.147000
     37 H6          1.1790   -1.2820    4.4210 h1        1 4DQ      0.060700
     38 H5          2.6680   -1.7390    3.4690 h1        1 4DQ      0.060700
     39 H4          1.9080    1.1540    4.3320 hc        1 4DQ      0.047700
     40 H3          3.0850    0.0540    5.1670 hc        1 4DQ      0.047700
     41 H2          3.4330    0.6500    3.4920 hc        1 4DQ      0.047700
     42 H18         1.2640   -1.4840   -2.1740 h4        1 4DQ      0.043100
     43 H11         5.5610   -0.3020    0.7160 hn        1 4DQ      0.438800
     44 H17         6.7950    1.3920   -0.4690 ha        1 4DQ      0.148000
     45 H16         9.6720    2.1050   -4.8650 hn        1 4DQ      0.463800
     46 H15         7.7870    0.6600   -5.6060 h1        1 4DQ      0.063700
     47 H14         9.1410   -0.3290   -4.8870 h1        1 4DQ      0.063700
     48 H13         6.6210   -1.7460   -4.3810 ha        1 4DQ      0.146000
     49 H12         5.2380   -2.2110   -2.3790 ha        1 4DQ      0.163000
@<TRIPOS>BOND
     1    1    2 1   
     2    2    3 ar  
     3    2   16 ar  
     4    3    4 1   
     5    3   19 ar  
     6    4    5 1   
     7    4   14 1   
     8    5    6 ar  
     9    5   13 ar  
    10    6    7 1   
    11    6   10 ar  
    12    7    8 2   
    13    7   32 1   
    14    8    9 1   
    15    9   10 1   
    16    9   33 1   
    17   10   11 ar  
    18   11   12 ar  
    19   11   34 1   
    20   12   13 ar  
    21   12   35 1   
    22   13   36 1   
    23   14   15 1   
    24   14   37 1   
    25   14   38 1   
    26   15   39 1   
    27   15   40 1   
    28   15   41 1   
    29   16   17 ar  
    30   16   42 1   
    31   17   18 ar  
    32   18   19 ar  
    33   18   20 1   
    34   20   21 1   
    35   20   43 1   
    36   21   22 ar  
    37   21   31 ar  
    38   22   23 ar  
    39   22   44 1   
    40   23   24 1   
    41   23   29 ar  
    42   24   25 2   
    43   24   26 2   
    44   24   27 1   
    45   27   28 1   
    46   27   45 1   
    47   28   29 1   
    48   28   46 1   
    49   28   47 1   
    50   29   30 ar  
    51   30   31 ar  
    52   30   48 1   
    53   31   49 1   
@<TRIPOS>SUBSTRUCTURE
     1 4DQ         1 TEMP              0 ****  ****    0 ROOT
