@<TRIPOS>MOLECULE
4DS
   36    37     1     0     0
SMALL
bcc


@<TRIPOS>ATOM
      1 OAA        -0.1460    0.4420   -0.1690 o         1 4DS     -0.741867
      2 SAB         1.2340    0.1700   -0.2820 s6        1 4DS      1.454600
      3 OAC         1.8380   -0.1880    0.9410 o         1 4DS     -0.741867
      4 OAD         1.5500   -0.7050   -1.3510 o         1 4DS     -0.741867
      5 CAE         1.9700    1.7380   -0.7670 ca        1 4DS     -0.238000
      6 CAF         2.3660    1.8480   -2.0970 ca        1 4DS     -0.038500
      7 CAG         2.9170    3.0470   -2.5970 ca        1 4DS      0.155900
      8 CAH         3.0640    4.1520   -1.7270 ca        1 4DS     -0.133000
      9 CAI         2.6780    4.0340   -0.4020 ca        1 4DS     -0.139000
     10 CAJ         2.1390    2.8330    0.0960 ca        1 4DS      0.057200
     11 CAK         1.7590    2.7330    1.4980 ce        1 4DS     -0.111200
     12 CAL         2.2750    3.5000    2.4760 cf        1 4DS     -0.111200
     13 CAM         1.9320    3.3410    3.8840 ca        1 4DS      0.057200
     14 CAN         1.9880    4.4170    4.7820 ca        1 4DS     -0.238000
     15 CAO         1.6780    4.2010    6.1230 ca        1 4DS     -0.038500
     16 CAP         1.3110    2.9230    6.5930 ca        1 4DS      0.155900
     17 CAQ         1.2620    1.8410    5.6820 ca        1 4DS     -0.133000
     18 CAR         1.5740    2.0600    4.3510 ca        1 4DS     -0.139000
     19 NAS         1.0090    2.7490    7.9350 ne        1 4DS     -0.530300
     20 CAT         0.6830    1.9980    8.8220 c1        1 4DS      0.522300
     21 SAU         0.2910    1.2590   10.0610 s         1 4DS     -0.397400
     22 SAV         2.4130    6.1120    4.3540 s6        1 4DS      1.454600
     23 OAW         2.7330    6.7100    5.5990 o         1 4DS     -0.741867
     24 OAX         3.5160    6.0310    3.4760 o         1 4DS     -0.741867
     25 OAY         1.2510    6.6490    3.7640 o         1 4DS     -0.741867
     26 NAZ         3.2990    3.1200   -3.9270 ne        1 4DS     -0.530300
     27 CBA         3.7690    3.7850   -4.8200 c1        1 4DS      0.522300
     28 SBB         4.3180    4.4130   -6.0590 s         1 4DS     -0.397400
     29 HAF         2.2450    0.9680   -2.7580 ha        1 4DS      0.170500
     30 HAH         3.4830    5.1020   -2.0910 ha        1 4DS      0.122500
     31 HAI         2.7920    4.9010    0.2700 ha        1 4DS      0.162500
     32 HAK         1.0190    1.9400    1.7200 ha        1 4DS      0.167500
     33 HAL         3.0150    4.2980    2.2660 ha        1 4DS      0.167500
     34 HAR         1.5540    1.2100    3.6440 ha        1 4DS      0.162500
     35 HAO         1.7380    5.0560    6.8230 ha        1 4DS      0.170500
     36 HAQ         0.9830    0.8330    6.0200 ha        1 4DS      0.122500
@<TRIPOS>BOND
     1    1    2 1   
     2    2    3 1   
     3    2    4 1   
     4    2    5 1   
     5    5    6 ar  
     6    5   10 ar  
     7    6    7 ar  
     8    6   29 1   
     9    7    8 ar  
    10    7   26 1   
    11    8    9 ar  
    12    8   30 1   
    13    9   10 ar  
    14    9   31 1   
    15   10   11 1   
    16   11   12 2   
    17   11   32 1   
    18   12   13 1   
    19   12   33 1   
    20   13   14 ar  
    21   13   18 ar  
    22   14   15 ar  
    23   14   22 1   
    24   15   16 ar  
    25   15   35 1   
    26   16   17 ar  
    27   16   19 1   
    28   17   18 ar  
    29   17   36 1   
    30   18   34 1   
    31   19   20 2   
    32   20   21 2   
    33   22   23 1   
    34   22   24 1   
    35   22   25 1   
    36   26   27 2   
    37   27   28 2   
@<TRIPOS>SUBSTRUCTURE
     1 4DS         1 TEMP              0 ****  ****    0 ROOT
