@<TRIPOS>MOLECULE
4DS
   36    37     1     0     0
SMALL
bcc


@<TRIPOS>ATOM
      1 OAA        -0.2610    0.4100   -0.1130 o         1 4DS     -0.741867
      2 SAB         1.1080    0.0990   -0.2510 s6        1 4DS      1.454600
      3 OAC         1.7270   -0.2630    0.9640 o         1 4DS     -0.741867
      4 OAD         1.3790   -0.7950   -1.3150 o         1 4DS     -0.741867
      5 CAE         1.8770    1.6410   -0.7670 ca        1 4DS     -0.238000
      6 CAF         2.2530    1.7250   -2.1040 ca        1 4DS     -0.038500
      7 CAG         2.8280    2.9020   -2.6280 ca        1 4DS      0.155900
      8 CAH         3.0200    4.0130   -1.7740 ca        1 4DS     -0.133000
      9 CAI         2.6530    3.9210   -0.4410 ca        1 4DS     -0.139000
     10 CAJ         2.0900    2.7400    0.0800 ca        1 4DS      0.057200
     11 CAK         1.7320    2.6680    1.4900 ce        1 4DS     -0.111200
     12 CAL         2.2850    3.4310    2.4500 cf        1 4DS     -0.111200
     13 CAM         1.9610    3.2980    3.8650 ca        1 4DS      0.057200
     14 CAN         2.0620    4.3830    4.7480 ca        1 4DS     -0.238000
     15 CAO         1.7690    4.1910    6.0970 ca        1 4DS     -0.038500
     16 CAP         1.3750    2.9300    6.5890 ca        1 4DS      0.155900
     17 CAQ         1.2820    1.8390    5.6920 ca        1 4DS     -0.133000
     18 CAR         1.5770    2.0330    4.3530 ca        1 4DS     -0.139000
     19 NAS         1.0910    2.7800    7.9370 ne        1 4DS     -0.530300
     20 CAT         0.7600    2.0490    8.8390 c1        1 4DS      0.522300
     21 SAU         0.3690    1.3360   10.0930 s         1 4DS     -0.397400
     22 SAV         2.5260    6.0610    4.2930 s6        1 4DS      1.454600
     23 OAW         2.8820    6.6640    5.5240 o         1 4DS     -0.741867
     24 OAX         3.6120    5.9390    3.3980 o         1 4DS     -0.741867
     25 OAY         1.3690    6.6220    3.7150 o         1 4DS     -0.741867
     26 NAZ         3.1880    2.9500   -3.9660 ne        1 4DS     -0.530300
     27 CBA         3.6590    3.5920   -4.8740 c1        1 4DS      0.522300
     28 SBB         4.2040    4.1910   -6.1300 s         1 4DS     -0.397400
     29 HAF         2.0970    0.8410   -2.7530 ha        1 4DS      0.170500
     30 HAH         3.4580    4.9470   -2.1570 ha        1 4DS      0.122500
     31 HAI         2.8020    4.7920    0.2190 ha        1 4DS      0.162500
     32 HAK         0.9750    1.8970    1.7330 ha        1 4DS      0.167500
     33 HAL         3.0420    4.2060    2.2170 ha        1 4DS      0.167500
     34 HAR         1.5220    1.1770    3.6570 ha        1 4DS      0.162500
     35 HAO         1.8640    5.0530    6.7850 ha        1 4DS      0.170500
     36 HAQ         0.9810    0.8430    6.0470 ha        1 4DS      0.122500
@<TRIPOS>BOND
     1    1    2 1   
     2    2    3 1   
     3    2    4 1   
     4    2    5 1   
     5    5    6 ar  
     6    5   10 ar  
     7    6    7 ar  
     8    6   29 1   
     9    7    8 ar  
    10    7   26 1   
    11    8    9 ar  
    12    8   30 1   
    13    9   10 ar  
    14    9   31 1   
    15   10   11 1   
    16   11   12 2   
    17   11   32 1   
    18   12   13 1   
    19   12   33 1   
    20   13   14 ar  
    21   13   18 ar  
    22   14   15 ar  
    23   14   22 1   
    24   15   16 ar  
    25   15   35 1   
    26   16   17 ar  
    27   16   19 1   
    28   17   18 ar  
    29   17   36 1   
    30   18   34 1   
    31   19   20 2   
    32   20   21 2   
    33   22   23 1   
    34   22   24 1   
    35   22   25 1   
    36   26   27 2   
    37   27   28 2   
@<TRIPOS>SUBSTRUCTURE
     1 4DS         1 TEMP              0 ****  ****    0 ROOT
