@<TRIPOS>MOLECULE
4DS
   36    37     1     0     0
SMALL
bcc


@<TRIPOS>ATOM
      1 OAA        -0.2680    0.4200   -0.1110 o         1 4DS     -0.742033
      2 SAB         1.0990    0.1030   -0.2520 s6        1 4DS      1.454600
      3 OAC         1.7190   -0.2630    0.9610 o         1 4DS     -0.742033
      4 OAD         1.3630   -0.7900   -1.3190 o         1 4DS     -0.742033
      5 CAE         1.8740    1.6420   -0.7670 ca        1 4DS     -0.238000
      6 CAF         2.2500    1.7260   -2.1050 ca        1 4DS     -0.038500
      7 CAG         2.8300    2.9010   -2.6280 ca        1 4DS      0.155900
      8 CAH         3.0260    4.0110   -1.7730 ca        1 4DS     -0.133000
      9 CAI         2.6580    3.9190   -0.4410 ca        1 4DS     -0.139000
     10 CAJ         2.0910    2.7410    0.0800 ca        1 4DS      0.057200
     11 CAK         1.7320    2.6680    1.4890 ce        1 4DS     -0.111200
     12 CAL         2.2860    3.4300    2.4500 cf        1 4DS     -0.111200
     13 CAM         1.9620    3.2980    3.8650 ca        1 4DS      0.057200
     14 CAN         2.0660    4.3820    4.7490 ca        1 4DS     -0.238000
     15 CAO         1.7710    4.1910    6.0970 ca        1 4DS     -0.038500
     16 CAP         1.3720    2.9300    6.5880 ca        1 4DS      0.155900
     17 CAQ         1.2760    1.8410    5.6910 ca        1 4DS     -0.133000
     18 CAR         1.5720    2.0340    4.3530 ca        1 4DS     -0.139000
     19 NAS         1.0870    2.7820    7.9360 ne        1 4DS     -0.530300
     20 CAT         0.7520    2.0510    8.8380 c1        1 4DS      0.522300
     21 SAU         0.3580    1.3400   10.0910 s         1 4DS     -0.397400
     22 SAV         2.5360    6.0580    4.2940 s6        1 4DS      1.454600
     23 OAW         2.8940    6.6600    5.5260 o         1 4DS     -0.742033
     24 OAX         3.6220    5.9320    3.3990 o         1 4DS     -0.742033
     25 OAY         1.3820    6.6240    3.7160 o         1 4DS     -0.742033
     26 NAZ         3.1910    2.9490   -3.9650 ne        1 4DS     -0.530300
     27 CBA         3.6650    3.5890   -4.8730 c1        1 4DS      0.522300
     28 SBB         4.2130    4.1860   -6.1280 s         1 4DS     -0.397400
     29 HAF         2.0910    0.8430   -2.7540 ha        1 4DS      0.170500
     30 HAH         3.4670    4.9440   -2.1550 ha        1 4DS      0.122500
     31 HAI         2.8100    4.7900    0.2200 ha        1 4DS      0.162500
     32 HAK         0.9710    1.9000    1.7320 ha        1 4DS      0.167500
     33 HAL         3.0470    4.2020    2.2180 ha        1 4DS      0.167500
     34 HAR         1.5140    1.1770    3.6570 ha        1 4DS      0.162500
     35 HAO         1.8690    5.0520    6.7850 ha        1 4DS      0.170500
     36 HAQ         0.9710    0.8450    6.0460 ha        1 4DS      0.122500
@<TRIPOS>BOND
     1    1    2 1   
     2    2    3 1   
     3    2    4 1   
     4    2    5 1   
     5    5    6 ar  
     6    5   10 ar  
     7    6    7 ar  
     8    6   29 1   
     9    7    8 ar  
    10    7   26 1   
    11    8    9 ar  
    12    8   30 1   
    13    9   10 ar  
    14    9   31 1   
    15   10   11 1   
    16   11   12 2   
    17   11   32 1   
    18   12   13 1   
    19   12   33 1   
    20   13   14 ar  
    21   13   18 ar  
    22   14   15 ar  
    23   14   22 1   
    24   15   16 ar  
    25   15   35 1   
    26   16   17 ar  
    27   16   19 1   
    28   17   18 ar  
    29   17   36 1   
    30   18   34 1   
    31   19   20 2   
    32   20   21 2   
    33   22   23 1   
    34   22   24 1   
    35   22   25 1   
    36   26   27 2   
    37   27   28 2   
@<TRIPOS>SUBSTRUCTURE
     1 4DS         1 TEMP              0 ****  ****    0 ROOT
