@<TRIPOS>MOLECULE
4DT
   58    62     1     0     0
SMALL
bcc


@<TRIPOS>ATOM
      1 F1         -0.2560   -1.0620   -0.2510 f         1 4DT     -0.116900
      2 C23         1.0080   -0.5970   -0.1720 ca        1 4DT     -0.163700
      3 C10         1.6960   -0.4070    1.0800 ca        1 4DT      0.671200
      4 N1          1.0680   -0.8040    2.2900 nh        1 4DT     -0.638700
      5 C3         -0.1870   -0.1980    2.5990 ca        1 4DT      0.183600
      6 C9         -0.4450    1.1760    2.4390 ca        1 4DT     -0.232900
      7 C8          0.3090    2.3480    2.0010 cc        1 4DT      0.353800
      8 N3         -0.4670    3.4440    2.0570 nd        1 4DT     -0.512100
      9 N2         -1.6630    3.1000    2.5620 na        1 4DT     -0.019100
     10 C7         -1.7470    1.7080    2.7670 ca        1 4DT     -0.044200
     11 C6         -2.7730    0.8910    3.2580 ca        1 4DT     -0.144000
     12 C5         -2.4850   -0.4570    3.4110 ca        1 4DT     -0.092000
     13 C4         -1.2300   -0.9990    3.0940 ca        1 4DT     -0.148000
     14 C2          1.8960   -1.1230    3.4450 c3        1 4DT      0.209800
     15 C1          2.3960    0.0350    4.2910 c3        1 4DT     -0.127100
     16 C22         1.7220   -0.2890   -1.3540 ca        1 4DT      0.437200
     17 N8          2.9820    0.1560   -1.3660 nb        1 4DT     -0.715000
     18 C11         3.5830    0.3260   -0.1260 ca        1 4DT      0.872900
     19 N4          2.9780    0.0520    1.0890 nb        1 4DT     -0.786000
     20 N5          4.8780    0.8890   -0.0510 nu        1 4DT     -0.702700
     21 C12         5.7580    0.8510   -1.1660 ce        1 4DT      0.156000
     22 C21         5.3960    1.6350   -2.3470 ce        1 4DT     -0.137000
     23 C20         6.2670    1.6620   -3.3790 cd        1 4DT     -0.030300
     24 C15         7.5590    0.9310   -3.3600 cd        1 4DT     -0.144300
     25 C14         7.9680    0.1800   -2.1680 c3        1 4DT      0.040100
     26 C13         6.9430    0.1810   -1.0960 c2        1 4DT     -0.228200
     27 N7          6.1330    2.2850   -4.6850 na        1 4DT     -0.090400
     28 N6          7.3620    2.0620   -5.3660 na        1 4DT     -0.195400
     29 C16         8.1540    1.1560   -4.5670 cc        1 4DT     -0.130300
     30 C17         5.7070    3.6890   -4.6450 c3        1 4DT     -0.000700
     31 C18         6.6530    4.6960   -4.0030 c3        1 4DT     -0.111400
     32 C19         5.9890    6.0610   -3.9610 c3        1 4DT      0.134400
     33 O1          6.9330    6.9630   -3.4060 oh        1 4DT     -0.598800
     34 H10         1.3510    2.3790    1.6790 h4        1 4DT      0.062800
     35 H9         -2.4420    3.6990    2.4140 hn        1 4DT      0.315700
     36 H8         -3.7590    1.3000    3.5110 ha        1 4DT      0.142000
     37 H7         -3.2670   -1.1340    3.7890 ha        1 4DT      0.137000
     38 H6         -1.0720   -2.0800    3.2330 ha        1 4DT      0.146000
     39 H__4        1.2590   -1.7940    4.0920 h1        1 4DT      0.058200
     40 H__5        2.7750   -1.7250    3.0800 h1        1 4DT      0.058200
     41 H__1        3.1070    0.6800    3.7230 hc        1 4DT      0.047367
     42 H__2        1.5480    0.6690    4.6450 hc        1 4DT      0.047367
     43 H__3        2.9280   -0.3780    5.1820 hc        1 4DT      0.047367
     44 H24         1.2430   -0.4250   -2.3420 h4        1 4DT      0.043100
     45 H11         5.3360    0.7370    0.8270 hn        1 4DT      0.432800
     46 H23         4.4400    2.1760   -2.3600 ha        1 4DT      0.159000
     47 H13         8.9270    0.6090   -1.7570 hc        1 4DT      0.060200
     48 H1          8.1890   -0.8890   -2.4520 hc        1 4DT      0.060200
     49 H12         7.2220   -0.4040   -0.2050 ha        1 4DT      0.127000
     50 H15         7.1290    1.6440   -6.2580 hn        1 4DT      0.234700
     51 H14         9.1110    0.8130   -4.9650 h4        1 4DT      0.173000
     52 H1_7        4.7260    3.6860   -4.0890 h1        1 4DT      0.059200
     53 H1_6        5.5070    4.0000   -5.7100 h1        1 4DT      0.059200
     54 H1_8        7.6090    4.7660   -4.5820 hc        1 4DT      0.068700
     55 H1_9        6.9160    4.3790   -2.9600 hc        1 4DT      0.068700
     56 H2_0        5.0640    6.0340   -3.3250 h1        1 4DT      0.019700
     57 H2_1        5.7060    6.3970   -4.9960 h1        1 4DT      0.019700
     58 H22         6.4960    7.8210   -3.3540 ho        1 4DT      0.399000
@<TRIPOS>BOND
     1    1    2 1   
     2    2    3 ar  
     3    2   16 ar  
     4    3    4 1   
     5    3   19 ar  
     6    4    5 1   
     7    4   14 1   
     8    5    6 ar  
     9    5   13 ar  
    10    6    7 1   
    11    6   10 ar  
    12    7    8 2   
    13    7   34 1   
    14    8    9 1   
    15    9   10 1   
    16    9   35 1   
    17   10   11 ar  
    18   11   12 ar  
    19   11   36 1   
    20   12   13 ar  
    21   12   37 1   
    22   13   38 1   
    23   14   15 1   
    24   14   39 1   
    25   14   40 1   
    26   15   41 1   
    27   15   42 1   
    28   15   43 1   
    29   16   17 ar  
    30   16   44 1   
    31   17   18 ar  
    32   18   19 ar  
    33   18   20 1   
    34   20   21 1   
    35   20   45 1   
    36   21   22 1   
    37   21   26 2   
    38   22   23 2   
    39   22   46 1   
    40   23   24 1   
    41   23   27 1   
    42   24   25 1   
    43   24   29 2   
    44   25   26 1   
    45   25   47 1   
    46   25   48 1   
    47   26   49 1   
    48   27   28 1   
    49   27   30 1   
    50   28   29 1   
    51   28   50 1   
    52   29   51 1   
    53   30   31 1   
    54   30   52 1   
    55   30   53 1   
    56   31   32 1   
    57   31   54 1   
    58   31   55 1   
    59   32   33 1   
    60   32   56 1   
    61   32   57 1   
    62   33   58 1   
@<TRIPOS>SUBSTRUCTURE
     1 4DT         1 TEMP              0 ****  ****    0 ROOT
