@<TRIPOS>MOLECULE
4DT
   58    62     1     0     0
SMALL
bcc


@<TRIPOS>ATOM
      1 F1         -0.2530   -1.0650   -0.2500 f         1 4DT     -0.116900
      2 C23         1.0100   -0.5980   -0.1720 ca        1 4DT     -0.163700
      3 C10         1.6980   -0.4070    1.0800 ca        1 4DT      0.671200
      4 N1          1.0700   -0.8030    2.2910 nh        1 4DT     -0.638700
      5 C3         -0.1850   -0.1970    2.5990 ca        1 4DT      0.183600
      6 C9         -0.4440    1.1770    2.4380 ca        1 4DT     -0.232900
      7 C8          0.3100    2.3480    1.9980 cc        1 4DT      0.353800
      8 N3         -0.4660    3.4450    2.0530 nd        1 4DT     -0.512100
      9 N2         -1.6630    3.1000    2.5580 na        1 4DT     -0.019100
     10 C7         -1.7460    1.7080    2.7650 ca        1 4DT     -0.044200
     11 C6         -2.7710    0.8920    3.2570 ca        1 4DT     -0.144000
     12 C5         -2.4830   -0.4560    3.4110 ca        1 4DT     -0.092000
     13 C4         -1.2280   -0.9980    3.0950 ca        1 4DT     -0.148000
     14 C2          1.8980   -1.1200    3.4460 c3        1 4DT      0.209800
     15 C1          2.3980    0.0380    4.2910 c3        1 4DT     -0.127100
     16 C22         1.7240   -0.2920   -1.3540 ca        1 4DT      0.437200
     17 N8          2.9830    0.1540   -1.3660 nb        1 4DT     -0.715000
     18 C11         3.5840    0.3260   -0.1270 ca        1 4DT      0.872900
     19 N4          2.9800    0.0530    1.0880 nb        1 4DT     -0.786000
     20 N5          4.8800    0.8900   -0.0520 nh        1 4DT     -0.702700
     21 C12         5.7600    0.8510   -1.1680 ce        1 4DT      0.156000
     22 C21         5.3960    1.6340   -2.3490 ce        1 4DT     -0.137000
     23 C20         6.2670    1.6610   -3.3810 cd        1 4DT     -0.030300
     24 C15         7.5600    0.9300   -3.3620 cd        1 4DT     -0.144300
     25 C14         7.9700    0.1800   -2.1690 c3        1 4DT      0.040100
     26 C13         6.9440    0.1820   -1.0970 c2        1 4DT     -0.228200
     27 N7          6.1330    2.2820   -4.6880 na        1 4DT     -0.090400
     28 N6          7.3620    2.0600   -5.3680 na        1 4DT     -0.195400
     29 C16         8.1550    1.1550   -4.5690 cc        1 4DT     -0.130300
     30 C17         5.7050    3.6860   -4.6490 c3        1 4DT     -0.000700
     31 C18         6.6500    4.6940   -4.0080 c3        1 4DT     -0.111400
     32 C19         5.9860    6.0590   -3.9670 c3        1 4DT      0.134400
     33 O1          6.9290    6.9620   -3.4120 oh        1 4DT     -0.598800
     34 H10         1.3520    2.3790    1.6770 h4        1 4DT      0.062800
     35 H9         -2.4420    3.6990    2.4100 hn        1 4DT      0.315700
     36 H8         -3.7580    1.3010    3.5100 ha        1 4DT      0.142000
     37 H7         -3.2650   -1.1330    3.7900 ha        1 4DT      0.137000
     38 H6         -1.0690   -2.0780    3.2350 ha        1 4DT      0.146000
     39 H__4        1.2620   -1.7910    4.0940 h1        1 4DT      0.058200
     40 H__5        2.7780   -1.7220    3.0820 h1        1 4DT      0.058200
     41 H__1        2.9300   -0.3730    5.1830 hc        1 4DT      0.047367
     42 H__2        1.5500    0.6730    4.6440 hc        1 4DT      0.047367
     43 H__3        3.1090    0.6830    3.7220 hc        1 4DT      0.047367
     44 H24         1.2450   -0.4290   -2.3420 h4        1 4DT      0.043100
     45 H11         5.3380    0.7380    0.8260 hn        1 4DT      0.432800
     46 H23         4.4400    2.1740   -2.3630 ha        1 4DT      0.159000
     47 H13         8.1910   -0.8890   -2.4530 hc        1 4DT      0.060200
     48 H1          8.9280    0.6110   -1.7580 hc        1 4DT      0.060200
     49 H12         7.2240   -0.4020   -0.2060 ha        1 4DT      0.127000
     50 H15         7.1290    1.6410   -6.2600 hn        1 4DT      0.234700
     51 H14         9.1120    0.8120   -4.9670 h4        1 4DT      0.173000
     52 H1_7        5.5050    3.9950   -5.7140 h1        1 4DT      0.059200
     53 H1_6        4.7250    3.6830   -4.0930 h1        1 4DT      0.059200
     54 H1_8        7.6070    4.7650   -4.5870 hc        1 4DT      0.068700
     55 H1_9        6.9140    4.3780   -2.9650 hc        1 4DT      0.068700
     56 H2_0        5.7020    6.3930   -5.0020 h1        1 4DT      0.019700
     57 H2_1        5.0600    6.0320   -3.3310 h1        1 4DT      0.019700
     58 H22         6.4910    7.8190   -3.3620 ho        1 4DT      0.399000
@<TRIPOS>BOND
     1    1    2 1   
     2    2    3 ar  
     3    2   16 ar  
     4    3    4 1   
     5    3   19 ar  
     6    4    5 1   
     7    4   14 1   
     8    5    6 ar  
     9    5   13 ar  
    10    6    7 1   
    11    6   10 ar  
    12    7    8 2   
    13    7   34 1   
    14    8    9 1   
    15    9   10 1   
    16    9   35 1   
    17   10   11 ar  
    18   11   12 ar  
    19   11   36 1   
    20   12   13 ar  
    21   12   37 1   
    22   13   38 1   
    23   14   15 1   
    24   14   39 1   
    25   14   40 1   
    26   15   41 1   
    27   15   42 1   
    28   15   43 1   
    29   16   17 ar  
    30   16   44 1   
    31   17   18 ar  
    32   18   19 ar  
    33   18   20 1   
    34   20   21 1   
    35   20   45 1   
    36   21   22 1   
    37   21   26 2   
    38   22   23 2   
    39   22   46 1   
    40   23   24 1   
    41   23   27 1   
    42   24   25 1   
    43   24   29 2   
    44   25   26 1   
    45   25   47 1   
    46   25   48 1   
    47   26   49 1   
    48   27   28 1   
    49   27   30 1   
    50   28   29 1   
    51   28   50 1   
    52   29   51 1   
    53   30   31 1   
    54   30   52 1   
    55   30   53 1   
    56   31   32 1   
    57   31   54 1   
    58   31   55 1   
    59   32   33 1   
    60   32   56 1   
    61   32   57 1   
    62   33   58 1   
@<TRIPOS>SUBSTRUCTURE
     1 4DT         1 TEMP              0 ****  ****    0 ROOT
