@<TRIPOS>MOLECULE
4DU
   35    31     1     0     0
SMALL
bcc


@<TRIPOS>ATOM
      1 OP2        -6.4970    2.6930    0.8590 o         1 4DU     -1.237000
      2 P          -5.0100    2.8650    1.0560 p3        1 4DU      2.524000
      3 OP1        -4.6980    2.9030    2.5330 os        1 4DU     -1.275000
      4 O5'        -4.2460    1.6530    0.3870 os        1 4DU     -0.715000
      5 C5'        -2.9010    1.4300    0.7410 c3        1 4DU      0.077000
      6 C4'        -2.3280    0.3160   -0.1230 c3        1 4DU     -0.058000
      7 C3'        -2.0600   -0.9890    0.7610 c3        1 4DU      0.047000
      8 O3'        -2.9240   -1.9440    0.4440 oh        1 4DU     -0.401000
      9 C2'        -0.6320   -1.4300    0.4230 c3        1 4DU     -0.211000
     10 C1'        -0.2980   -0.7260   -0.6450 c3        1 4DU      0.164000
     11 O4'        -1.1820    0.6520   -0.5780 os        1 4DU     -0.290000
     12 N9          1.0550   -0.4270   -0.6150 n3        1 4DU     -0.190000
     13 C4          2.3400   -0.7650   -0.3290 c1        1 4DU      0.017000
     14 C3          2.8860   -1.6550    0.5820 c1        1 4DU     -0.136500
     15 C2          4.2620   -1.8160    0.6540 c1        1 4DU     -0.136500
     16 N1          5.0780   -1.0990   -0.1720 n1        1 4DU     -0.243000
     17 C6          4.5420   -0.2220   -1.0690 c1        1 4DU      0.142000
     18 N6          5.6940    0.3830   -1.6350 n2        1 4DU     -0.317000
     19 C5          3.1480   -0.0560   -1.1450 c1        1 4DU     -0.170000
     20 N7          2.3650    0.7220   -1.9380 n1        1 4DU     -0.175000
     21 C8          1.0740    0.4900   -1.6080 c1        1 4DU      0.007000
     22 O1         -4.5630    4.1570    0.4140 o         1 4DU     -1.237000
     23 H2         -2.8500    1.1710    1.6840 h1        1 4DU      0.035000
     24 H3         -2.3860    2.2510    0.5990 h1        1 4DU      0.035000
     25 H4         -2.9370    0.1080   -0.8590 h1        1 4DU      0.121000
     26 H5         -2.1290   -0.7720    1.7120 h1        1 4DU      0.146000
     27 H6         -3.0180   -2.4980    1.1340 ho        1 4DU      0.300000
     28 H7         -0.6120   -2.3880    0.2190 hc        1 4DU      0.091500
     29 H8         -0.0280   -1.2270    1.1680 hc        1 4DU      0.091500
     30 H9         -0.5150   -1.2250   -1.4590 h2        1 4DU      0.089000
     31 H10         2.3030   -2.1680    1.1730 ha        1 4DU      0.134500
     32 H11         4.6460   -2.4430    1.2960 ha        1 4DU      0.134500
     33 H12         6.5270    0.1120   -1.3760 hn        1 4DU      0.191500
     34 H13         5.6020    1.0470   -2.2570 hn        1 4DU      0.191500
     35 H14         0.2930    0.8960   -2.0290 DU        1 4DU      0.252000
@<TRIPOS>BOND
     1    1    2 1   
     2    2    4 1   
     3    2   22 1   
     4    4    5 1   
     5    5    6 1   
     6    5   23 1   
     7    5   24 1   
     8    6    7 1   
     9    6   11 1   
    10    6   25 1   
    11    7    8 1   
    12    7    9 1   
    13    7   26 1   
    14    8   27 1   
    15    9   10 1   
    16    9   28 1   
    17    9   29 1   
    18   10   11 1   
    19   10   12 1   
    20   10   30 1   
    21   12   13 1   
    22   12   21 1   
    23   13   19 1   
    24   14   15 1   
    25   14   31 1   
    26   15   32 1   
    27   16   17 1   
    28   17   19 1   
    29   18   33 1   
    30   18   34 1   
    31   20   21 1   
@<TRIPOS>SUBSTRUCTURE
     1 4DU         1 TEMP              0 ****  ****    0 ROOT
