@<TRIPOS>MOLECULE
4DU
   35    37     1     0     0
SMALL
bcc


@<TRIPOS>ATOM
      1 OP2        -3.7070    1.2370   -1.3360 o         1 4DU     -0.930167
      2 P          -4.2420   -0.1300   -0.9560 p5        1 4DU      1.331900
      3 OP1        -3.6750   -1.2550   -1.7730 o         1 4DU     -0.930167
      4 O5'        -3.3600   -0.3210    0.5420 os        1 4DU     -0.554200
      5 C5'        -2.0040   -0.3430    0.3780 c3        1 4DU      0.227400
      6 C4'        -1.3850    1.0220    0.7650 c3        1 4DU      0.053100
      7 C3'        -1.1430    1.9580   -0.4360 c3        1 4DU      0.157100
      8 O3'        -1.9470    3.1120   -0.3550 oh        1 4DU     -0.672800
      9 C2'         0.3310    2.3800   -0.3330 c3        1 4DU     -0.131400
     10 C1'         0.9470    1.4300    0.7160 c3        1 4DU      0.254800
     11 O4'        -0.1100    0.8160    1.4320 os        1 4DU     -0.434600
     12 N9          1.8250    0.4070    0.1500 na        1 4DU     -0.164300
     13 C4          3.2130    0.3730    0.2460 ca        1 4DU     -0.026200
     14 C3          4.1830    1.2320    0.7870 ca        1 4DU     -0.281300
     15 C2          5.5050    0.7990    0.6890 ca        1 4DU      0.407200
     16 N1          5.9370   -0.3510    0.1210 nb        1 4DU     -0.769000
     17 C6          5.0160   -1.1880   -0.4400 ca        1 4DU      0.664200
     18 N6          5.4340   -2.3330   -1.1380 nh        1 4DU     -0.920500
     19 C5          3.6230   -0.8730   -0.3810 ca        1 4DU     -0.095900
     20 N7          2.4870   -1.5740   -0.8210 nc        1 4DU     -0.602100
     21 C8          1.4420   -0.7950   -0.4840 cd        1 4DU      0.461700
     22 O1         -5.6760   -0.2070   -0.5330 o         1 4DU     -0.930167
     23 H2         -1.5480   -1.1150    1.0680 h1        1 4DU     -0.004300
     24 H3         -1.7290   -0.5990   -0.6860 h1        1 4DU     -0.004300
     25 H4         -2.0360    1.5230    1.5310 h1        1 4DU      0.081700
     26 H5         -1.3520    1.4240   -1.4050 h1        1 4DU      0.105700
     27 H6         -2.8430    2.8210   -0.6470 ho        1 4DU      0.501000
     28 H7          0.8340    2.3180   -1.3250 hc        1 4DU      0.052700
     29 H8          0.4080    3.4300    0.0390 hc        1 4DU      0.052700
     30 H9          1.5710    1.9880    1.4760 h2        1 4DU      0.050700
     31 H10         3.9190    2.1800    1.2660 ha        1 4DU      0.137000
     32 H11         6.3180    1.4200    1.1070 h4        1 4DU     -0.004900
     33 H12         6.3110   -2.7070   -0.8520 hn        1 4DU      0.397300
     34 H13         4.7160   -3.0180   -1.2350 hn        1 4DU      0.397300
     35 H14         0.3710   -1.0250   -0.6540 h5        1 4DU      0.122800
@<TRIPOS>BOND
     1    1    2 1   
     2    2    3 1   
     3    2    4 1   
     4    2   22 1   
     5    4    5 1   
     6    5    6 1   
     7    5   23 1   
     8    5   24 1   
     9    6    7 1   
    10    6   11 1   
    11    6   25 1   
    12    7    8 1   
    13    7    9 1   
    14    7   26 1   
    15    8   27 1   
    16    9   10 1   
    17    9   28 1   
    18    9   29 1   
    19   10   11 1   
    20   10   12 1   
    21   10   30 1   
    22   12   13 1   
    23   12   21 1   
    24   13   14 ar  
    25   13   19 ar  
    26   14   15 ar  
    27   14   31 1   
    28   15   16 ar  
    29   15   32 1   
    30   16   17 ar  
    31   17   18 1   
    32   17   19 ar  
    33   18   33 1   
    34   18   34 1   
    35   19   20 1   
    36   20   21 2   
    37   21   35 1   
@<TRIPOS>SUBSTRUCTURE
     1 4DU         1 TEMP              0 ****  ****    0 ROOT
