@<TRIPOS>MOLECULE
4DV
   69    68     1     0     0
SMALL
bcc


@<TRIPOS>ATOM
      1 O1          1.0800    0.5040    0.6170 o         1 4DV     -0.568500
      2 C7          2.8820   -0.2120   -7.8110 c2        1 4DV      0.031000
      3 O2          2.2880   -1.3770    0.4900 o         1 4DV     -0.568500
      4 C6          3.0140    1.1640   -7.7470 c2        1 4DV     -0.129000
      5 C1          1.0480    0.5010   -3.6770 c2        1 4DV      0.044000
      6 N1          1.1310   -0.6990   -4.5150 n3        1 4DV     -0.062000
      7 C5          2.3350    1.9590   -6.7700 c1        1 4DV     -0.016000
      8 C4          1.4290    1.2500   -5.8770 c3        1 4DV     -0.115000
      9 C2          1.2550    1.6260   -4.4260 c2        1 4DV     -0.126000
     10 C32        -1.7800   -4.7630   -6.0990 c1        1 4DV      0.028000
     11 C31        -0.5060   -4.2540   -6.5210 c2        1 4DV     -0.269000
     12 C30         0.2980   -3.6990   -5.6350 c1        1 4DV     -0.019000
     13 C33        -2.3840   -2.6650   -3.5200 c2        1 4DV     -0.566000
     14 C34        -3.5290   -2.0760   -3.3570 c1        1 4DV      0.120000
     15 C29         1.0370   -3.1730   -4.6990 c2        1 4DV     -0.148000
     16 C28         0.8560   -1.8940   -4.0590 c1        1 4DV      0.012000
     17 C9          1.5820   -0.2590   -5.7980 c2        1 4DV      0.013000
     18 C23         0.8560    0.3710   -2.2110 c3        1 4DV     -0.099000
     19 C24         2.1390   -0.0220   -1.4950 c3        1 4DV     -0.185000
     20 C27         1.8040   -0.3210   -0.0040 c2        1 4DV      0.341000
     21 C26         3.2130   -3.7170   -1.6880 c3        1 4DV     -0.287000
     22 C25         3.1810    1.0670   -1.5560 c3        1 4DV     -0.193000
     23 C8          2.2010   -0.9500   -6.7970 c2        1 4DV     -0.227000
     24 C10         3.8350    1.8340   -8.6720 c1        1 4DV      0.014000
     25 C15         5.7230    0.1520  -11.7640 c2        1 4DV     -0.149000
     26 C14         6.4820    0.9970  -11.0480 c2        1 4DV     -0.122000
     27 C13         6.3330    2.4540  -11.0950 c2        1 4DV     -0.115000
     28 C12         5.3750    3.0960  -10.3660 c2        1 4DV      0.223000
     29 F1          5.1650    4.4330  -10.4690 f         1 4DV     -0.094000
     30 C11         4.5380    2.4110   -9.4540 c1        1 4DV     -0.202000
     31 C16         7.2590    3.0760  -12.0490 c2        1 4DV      0.002000
     32 C21         7.9860    4.1940  -11.8160 c2        1 4DV     -0.121000
     33 C22         7.9490    4.9370  -10.5360 c3        1 4DV     -0.185000
     34 C20         8.9060    4.7540  -12.8500 c3        1 4DV     -0.219000
     35 C19         8.3310    5.3360  -14.0420 c1        1 4DV     -0.062000
     36 C18         7.0970    1.0120  -13.4200 c1        1 4DV      0.128000
     37 C17         7.4090    2.2920  -13.2720 c2        1 4DV     -0.425000
     38 H1          3.3570   -0.7890   -8.6240 ha        1 4DV      0.137000
     39 H3          0.4320    1.4740   -6.4040 hc        1 4DV      0.194000
     40 H4          1.9040    3.6350   -4.6710 hc        1 4DV      0.098333
     41 H5          1.7260    3.0790   -2.9420 hc        1 4DV      0.098333
     42 H6          0.2520    3.4410   -3.9380 hc        1 4DV      0.098333
     43 H7         -0.1800   -4.3030   -7.5790 ha        1 4DV      0.126000
     44 H8          1.7890   -3.7920   -4.1520 ha        1 4DV      0.212000
     45 H9         -2.2520   -3.5710   -4.1510 ha        1 4DV      0.219500
     46 H10        -1.4320   -2.3430   -3.0540 ha        1 4DV      0.219500
     47 H11         2.8910   -2.9690   -0.9180 hc        1 4DV      0.071000
     48 H12         2.3740   -4.4150   -1.9010 hc        1 4DV      0.071000
     49 H13         0.0740   -0.4060   -1.9910 hc        1 4DV      0.122000
     50 H14         0.4920    1.3520   -1.8010 hc        1 4DV      0.122000
     51 H15         2.5460   -0.9640   -1.9510 hc        1 4DV      0.080000
     52 H16         4.0850   -4.2920   -1.3080 hc        1 4DV      0.071000
     53 H17         3.4990   -3.1860   -2.6220 hc        1 4DV      0.071000
     54 H18         4.1260    0.7120   -1.0780 hc        1 4DV      0.060667
     55 H19         3.4010    1.3600   -2.6120 hc        1 4DV      0.060667
     56 H20         2.8240    1.9700   -1.0020 hc        1 4DV      0.060667
     57 H21         2.2620   -2.0490   -6.8040 ha        1 4DV      0.155000
     58 H22         5.9060   -0.9320  -11.7600 ha        1 4DV      0.130000
     59 H23         4.8590    0.4790  -12.3600 ha        1 4DV      0.130000
     60 H24         7.3120    0.6350  -10.4170 ha        1 4DV      0.144000
     61 H25         8.9650    5.3220  -10.2710 hc        1 4DV      0.089000
     62 H26         7.5900    4.2890   -9.6970 hc        1 4DV      0.089000
     63 H27         7.2490    5.8090  -10.6170 hc        1 4DV      0.089000
     64 H28         9.5510    5.5730  -12.4040 hc        1 4DV      0.152500
     65 H29         9.6350    3.9570  -13.1890 hc        1 4DV      0.152500
     66 H30         7.2330    5.3840  -14.1010 ha        1 4DV      0.048000
     67 H31         7.8390    2.8160  -14.1490 ha        1 4DV      0.176000
     68 C3          1.2880    3.0170   -3.9710 c3        1 4DV     -0.163000
     69 Cl1        -2.6980   -5.5330   -7.2700 cl        1 4DV     -0.071000
@<TRIPOS>BOND
     1    1   20 1   
     2    2    4 1   
     3    2   23 1   
     4    2   38 1   
     5    3   20 1   
     6    4    7 1   
     7    4   24 1   
     8    5    6 1   
     9    5    9 1   
    10    5   18 1   
    11    6   16 1   
    12    6   17 1   
    13    7    8 1   
    14    8    9 1   
    15    8   17 1   
    16    8   39 1   
    17    9   68 1   
    18   10   11 1   
    19   10   69 1   
    20   11   12 1   
    21   11   43 1   
    22   12   15 1   
    23   13   14 1   
    24   13   45 1   
    25   13   46 1   
    26   15   16 1   
    27   15   44 1   
    28   17   23 1   
    29   18   19 1   
    30   18   49 1   
    31   18   50 1   
    32   19   20 1   
    33   19   22 1   
    34   19   51 1   
    35   21   47 1   
    36   21   48 1   
    37   21   52 1   
    38   21   53 1   
    39   22   54 1   
    40   22   55 1   
    41   22   56 1   
    42   23   57 1   
    43   24   30 1   
    44   25   26 1   
    45   25   58 1   
    46   25   59 1   
    47   26   27 1   
    48   26   60 1   
    49   27   28 1   
    50   27   31 1   
    51   28   29 1   
    52   28   30 1   
    53   31   32 1   
    54   31   37 1   
    55   32   33 1   
    56   32   34 1   
    57   33   61 1   
    58   33   62 1   
    59   33   63 1   
    60   34   35 1   
    61   34   64 1   
    62   34   65 1   
    63   35   66 1   
    64   36   37 1   
    65   37   67 1   
    66   40   68 1   
    67   41   68 1   
    68   42   68 1   
@<TRIPOS>SUBSTRUCTURE
     1 4DV         1 TEMP              0 ****  ****    0 ROOT
