@<TRIPOS>MOLECULE
4DX
   22    22     1     0     0
SMALL
bcc


@<TRIPOS>ATOM
      1 C1         -0.0270   -0.0090    0.0550 c3        1 4DX     -0.088100
      2 C2          1.4860   -0.0160    0.0190 c3        1 4DX     -0.058700
      3 C3          2.0540    0.0230    1.4300 c3        1 4DX     -0.076400
      4 C4          3.5670   -0.0250    1.4270 c3        1 4DX     -0.078400
      5 C5          4.0740   -1.2520    0.6980 c3        1 4DX     -0.072400
      6 C6          3.5290   -1.3120   -0.7120 c3        1 4DX     -0.112400
      7 C7          2.0030   -1.2580   -0.7180 c3        1 4DX      0.144100
      8 O8          1.5130   -1.1770   -2.0520 oh        1 4DX     -0.600800
      9 H1         -0.4300   -0.0640   -0.9860 hc        1 4DX      0.038033
     10 H1A        -0.4130   -0.8830    0.6320 hc        1 4DX      0.038033
     11 H1B        -0.3970    0.9270    0.5380 hc        1 4DX      0.038033
     12 H2          1.8400    0.8910   -0.5460 hc        1 4DX      0.061700
     13 H3          1.7080    0.9610    1.9370 hc        1 4DX      0.042200
     14 H3A         1.6520   -0.8440    2.0170 hc        1 4DX      0.042200
     15 H4          3.9710    0.8970    0.9320 hc        1 4DX      0.041200
     16 H4A         3.9440   -0.0330    2.4820 hc        1 4DX      0.041200
     17 H5          3.7660   -2.1740    1.2580 hc        1 4DX      0.040700
     18 H5A         5.1940   -1.2360    0.6650 hc        1 4DX      0.040700
     19 H6          3.9240   -0.4510   -1.3130 hc        1 4DX      0.045700
     20 H6A         3.8680   -2.2560   -1.2110 hc        1 4DX      0.045700
     21 H7          1.5880   -2.1850   -0.2300 h1        1 4DX      0.032700
     22 HO8         1.8930   -1.9230   -2.5310 ho        1 4DX      0.397000
@<TRIPOS>BOND
     1    1    2 1   
     2    1    9 1   
     3    1   10 1   
     4    1   11 1   
     5    2    3 1   
     6    2    7 1   
     7    2   12 1   
     8    3    4 1   
     9    3   13 1   
    10    3   14 1   
    11    4    5 1   
    12    4   15 1   
    13    4   16 1   
    14    5    6 1   
    15    5   17 1   
    16    5   18 1   
    17    6    7 1   
    18    6   19 1   
    19    6   20 1   
    20    7    8 1   
    21    7   21 1   
    22    8   22 1   
@<TRIPOS>SUBSTRUCTURE
     1 4DX         1 TEMP              0 ****  ****    0 ROOT
