@<TRIPOS>MOLECULE
4DX
   22    22     1     0     0
SMALL
bcc


@<TRIPOS>ATOM
      1 C1         -0.0310   -0.0010    0.0670 c3        1 4DX     -0.088100
      2 C2          1.4810   -0.0110    0.0310 c3        1 4DX     -0.058700
      3 C3          2.0500    0.0050    1.4410 c3        1 4DX     -0.076400
      4 C4          3.5630   -0.0460    1.4370 c3        1 4DX     -0.078400
      5 C5          4.0660   -1.2640    0.6890 c3        1 4DX     -0.072400
      6 C6          3.5210   -1.3010   -0.7210 c3        1 4DX     -0.112400
      7 C7          1.9950   -1.2440   -0.7250 c3        1 4DX      0.144100
      8 O8          1.5050   -1.1420   -2.0580 oh        1 4DX     -0.600800
      9 H1         -0.3990    0.9290    0.5640 hc        1 4DX      0.038033
     10 H1A        -0.4190   -0.8820    0.6310 hc        1 4DX      0.038033
     11 H1B        -0.4350   -0.0400   -0.9740 hc        1 4DX      0.038033
     12 H2          1.8370    0.9030   -0.5220 hc        1 4DX      0.061700
     13 H3          1.7070    0.9370    1.9620 hc        1 4DX      0.042200
     14 H3A         1.6470   -0.8700    2.0160 hc        1 4DX      0.042200
     15 H4          3.9410   -0.0710    2.4920 hc        1 4DX      0.041200
     16 H4A         3.9690    0.8820    0.9550 hc        1 4DX      0.041200
     17 H5          5.1870   -1.2500    0.6560 hc        1 4DX      0.040700
     18 H5A         3.7570   -2.1930    1.2360 hc        1 4DX      0.040700
     19 H6          3.8570   -2.2390   -1.2340 hc        1 4DX      0.045700
     20 H6A         3.9180   -0.4330   -1.3090 hc        1 4DX      0.045700
     21 H7          1.5780   -2.1770   -0.2500 h1        1 4DX      0.032700
     22 HO8         1.8820   -1.8810   -2.5480 ho        1 4DX      0.397000
@<TRIPOS>BOND
     1    1    2 1   
     2    1    9 1   
     3    1   10 1   
     4    1   11 1   
     5    2    3 1   
     6    2    7 1   
     7    2   12 1   
     8    3    4 1   
     9    3   13 1   
    10    3   14 1   
    11    4    5 1   
    12    4   15 1   
    13    4   16 1   
    14    5    6 1   
    15    5   17 1   
    16    5   18 1   
    17    6    7 1   
    18    6   19 1   
    19    6   20 1   
    20    7    8 1   
    21    7   21 1   
    22    8   22 1   
@<TRIPOS>SUBSTRUCTURE
     1 4DX         1 TEMP              0 ****  ****    0 ROOT
