@<TRIPOS>MOLECULE
4DX
   22    22     1     0     0
SMALL
bcc


@<TRIPOS>ATOM
      1 C1         -2.3090    0.5410   -0.1600 c3        1 4DX     -0.088100
      2 C2         -0.7820    0.5410   -0.1600 c3        1 4DX     -0.058700
      3 C3         -0.2920    0.5410    1.2750 c3        1 4DX     -0.076400
      4 C4          1.2200    0.5410    1.3710 c3        1 4DX     -0.078400
      5 C5          1.8550   -0.5630    0.5410 c3        1 4DX     -0.072400
      6 C6          1.3660   -0.5640   -0.8950 c3        1 4DX     -0.112400
      7 C7         -0.2910   -0.6690   -0.9420 c3        1 4DX      0.144100
      8 O8         -0.6430   -0.5060   -2.3080 oh        1 4DX     -0.600800
      9 H1         -2.6340    0.6670   -1.0720 hc        1 4DX      0.038033
     10 H1A        -2.6340    1.2680    0.4050 hc        1 4DX      0.038033
     11 H1B        -2.6340   -0.3110    0.1870 hc        1 4DX      0.038033
     12 H2         -0.4660    1.3520   -0.6010 hc        1 4DX      0.061700
     13 H3         -0.6370    1.3350    1.7260 hc        1 4DX      0.042200
     14 H3A        -0.6370   -0.2530    1.7260 hc        1 4DX      0.042200
     15 H4          1.4770    0.4210    2.3050 hc        1 4DX      0.041200
     16 H4A         1.5560    1.4030    1.0590 hc        1 4DX      0.041200
     17 H5          1.6430   -1.4250    0.9470 hc        1 4DX      0.040700
     18 H5A         2.8240   -0.4420    0.5440 hc        1 4DX      0.040700
     19 H6          1.7510   -1.3270   -1.3660 hc        1 4DX      0.045700
     20 H6A         1.6490    0.2620   -1.3320 hc        1 4DX      0.045700
     21 H7         -0.6180   -1.5100   -0.5710 h1        1 4DX      0.032700
     22 HO8        -0.7630   -1.3030   -2.6790 ho        1 4DX      0.397000
@<TRIPOS>BOND
     1    1    2 1   
     2    1    9 1   
     3    1   10 1   
     4    1   11 1   
     5    2    3 1   
     6    2    7 1   
     7    2   12 1   
     8    3    4 1   
     9    3   13 1   
    10    3   14 1   
    11    4    5 1   
    12    4   15 1   
    13    4   16 1   
    14    5    6 1   
    15    5   17 1   
    16    5   18 1   
    17    6    7 1   
    18    6   19 1   
    19    6   20 1   
    20    7    8 1   
    21    7   21 1   
    22    8   22 1   
@<TRIPOS>SUBSTRUCTURE
     1 4DX         1 TEMP              0 ****  ****    0 ROOT
