@<TRIPOS>MOLECULE
4DX
   22    22     1     0     0
SMALL
bcc


@<TRIPOS>ATOM
      1 C1          1.8040    1.5290   -0.1570 c3        1 4DX     -0.088100
      2 C2          0.5920    0.7460    0.2960 c3        1 4DX     -0.058700
      3 C3         -0.6890    1.4520   -0.1230 c3        1 4DX     -0.076400
      4 C4         -1.9200    0.6690    0.2810 c3        1 4DX     -0.078400
      5 C5         -1.8890   -0.7320   -0.2940 c3        1 4DX     -0.072400
      6 C6         -0.6280   -1.4600    0.1140 c3        1 4DX     -0.112400
      7 C7          0.6180   -0.6740   -0.2840 c3        1 4DX      0.144100
      8 O8          1.7880   -1.3050    0.2260 oh        1 4DX     -0.600800
      9 H1          1.8100    2.5390    0.3180 hc        1 4DX      0.038033
     10 H1A         2.7360    0.9860    0.1340 hc        1 4DX      0.038033
     11 H1B         1.8000    1.6580   -1.2660 hc        1 4DX      0.038033
     12 H2          0.6140    0.6580    1.4180 hc        1 4DX      0.061700
     13 H3         -0.7170    2.4680    0.3500 hc        1 4DX      0.042200
     14 H3A        -0.6860    1.5990   -1.2360 hc        1 4DX      0.042200
     15 H4         -1.9790    0.6140    1.4000 hc        1 4DX      0.041200
     16 H4A        -2.8380    1.2030   -0.0790 hc        1 4DX      0.041200
     17 H5         -2.7840   -1.3050    0.0620 hc        1 4DX      0.040700
     18 H5A        -1.9470   -0.6790   -1.4130 hc        1 4DX      0.040700
     19 H6         -0.6190   -1.6170    1.2250 hc        1 4DX      0.045700
     20 H6A        -0.6000   -2.4710   -0.3690 hc        1 4DX      0.045700
     21 H7          0.6900   -0.6200   -1.4080 h1        1 4DX      0.032700
     22 HO8         1.7690   -2.2160   -0.0860 ho        1 4DX      0.397000
@<TRIPOS>BOND
     1    1    2 1   
     2    1    9 1   
     3    1   10 1   
     4    1   11 1   
     5    2    3 1   
     6    2    7 1   
     7    2   12 1   
     8    3    4 1   
     9    3   13 1   
    10    3   14 1   
    11    4    5 1   
    12    4   15 1   
    13    4   16 1   
    14    5    6 1   
    15    5   17 1   
    16    5   18 1   
    17    6    7 1   
    18    6   19 1   
    19    6   20 1   
    20    7    8 1   
    21    7   21 1   
    22    8   22 1   
@<TRIPOS>SUBSTRUCTURE
     1 4DX         1 TEMP              0 ****  ****    0 ROOT
