@<TRIPOS>MOLECULE
4DZ
   39    43     1     0     0
SMALL
bcc


@<TRIPOS>ATOM
      1 C7          0.0580   -0.5350    0.0740 ca        1 4DZ     -0.074500
      2 C6          1.9340    0.5380    1.1470 ca        1 4DZ     -0.074500
      3 C1          1.8720    1.1220    3.5020 cg        1 4DZ      0.226300
      4 C5          1.3410    0.0000    0.0080 ca        1 4DZ     -0.131000
      5 C4         -6.0060    0.9580    5.9040 ca        1 4DZ     -0.122000
      6 C3         -6.0280    0.7800    7.2940 ca        1 4DZ     -0.129000
      7 C22        -1.2860   -0.7160   10.0770 ca        1 4DZ      0.020400
      8 C11        -0.0770   -0.9070    9.3850 ca        1 4DZ     -0.118000
      9 C12        -2.4460   -0.3530    9.4060 ca        1 4DZ     -0.114000
     10 C18        -2.4460   -0.1660    8.0070 ca        1 4DZ      0.008000
     11 C15        -3.6560    0.2170    7.2950 ca        1 4DZ     -0.035000
     12 C8         -4.8780    0.4170    7.9730 ca        1 4DZ     -0.117000
     13 C17        -1.2220   -0.3640    7.3170 ca        1 4DZ     -0.011000
     14 C10        -0.0550   -0.7300    8.0140 ca        1 4DZ     -0.114000
     15 C21        -1.2330   -0.1730    5.9010 ca        1 4DZ     -0.079200
     16 N27        -0.2230   -0.2870    4.9540 na        1 4DZ     -0.222300
     17 C23        -0.8070    0.0180    3.7050 cc        1 4DZ      0.388400
     18 C19        -0.0570    0.0040    2.4490 ca        1 4DZ     -0.019900
     19 C14        -0.6440   -0.5390    1.2890 ca        1 4DZ      0.004000
     20 C13         1.2410    0.5450    2.3660 ca        1 4DZ      0.004000
     21 N24         2.4020    1.6020    4.4200 n1        1 4DZ     -0.337300
     22 N26        -2.1310    0.3170    3.8260 nd        1 4DZ     -0.517100
     23 C20        -2.4150    0.2050    5.1860 ca        1 4DZ      0.076400
     24 C16        -3.6490    0.4040    5.8880 ca        1 4DZ      0.021000
     25 C9         -4.8250    0.7710    5.2070 ca        1 4DZ     -0.103000
     26 H1         -0.4130   -0.9590   -0.8270 ha        1 4DZ      0.155000
     27 H2          2.9480    0.9660    1.0940 ha        1 4DZ      0.155000
     28 H3          1.8880    0.0000   -0.9480 ha        1 4DZ      0.152000
     29 H4         -6.9250    1.2450    5.3720 ha        1 4DZ      0.137000
     30 H5         -6.9680    0.9290    7.8460 ha        1 4DZ      0.134000
     31 H6          0.8360   -1.1910    9.9290 ha        1 4DZ      0.151000
     32 H7         -3.3700   -0.2120    9.9870 ha        1 4DZ      0.151000
     33 H8         -4.9370    0.2860    9.0640 ha        1 4DZ      0.132000
     34 H9          0.8880   -0.8730    7.4650 ha        1 4DZ      0.132000
     35 H10         0.7140   -0.5470    5.1200 hn        1 4DZ      0.313700
     36 H12        -4.7940    0.9060    4.1140 ha        1 4DZ      0.157000
     37 C2         -1.9480   -1.1050    1.3250 cg        1 4DZ      0.226300
     38 CL         -1.3190   -0.9340   11.7630 cl        1 4DZ     -0.089400
     39 N25        -3.0140   -1.5680    1.3460 n1        1 4DZ     -0.337300
@<TRIPOS>BOND
     1    1    4 ar  
     2    1   19 ar  
     3    1   26 1   
     4    2    4 ar  
     5    2   20 ar  
     6    2   27 1   
     7    3   20 1   
     8    3   21 3   
     9    4   28 1   
    10    5    6 ar  
    11    5   25 ar  
    12    5   29 1   
    13    6   12 ar  
    14    6   30 1   
    15    7    8 ar  
    16    7    9 ar  
    17    7   38 1   
    18    8   14 ar  
    19    8   31 1   
    20    9   10 ar  
    21    9   32 1   
    22   10   11 ar  
    23   10   13 ar  
    24   11   12 ar  
    25   11   24 ar  
    26   12   33 1   
    27   13   14 ar  
    28   13   15 ar  
    29   14   34 1   
    30   15   16 1   
    31   15   23 ar  
    32   16   17 1   
    33   16   35 1   
    34   17   18 1   
    35   17   22 2   
    36   18   19 ar  
    37   18   20 ar  
    38   19   37 1   
    39   22   23 1   
    40   23   24 ar  
    41   24   25 ar  
    42   25   36 1   
    43   37   39 3   
@<TRIPOS>SUBSTRUCTURE
     1 4DZ         1 TEMP              0 ****  ****    0 ROOT
