@<TRIPOS>MOLECULE
4DZ
   39    43     1     0     0
SMALL
bcc


@<TRIPOS>ATOM
      1 C7          0.1380   -0.5500    0.0770 ca        1 4DZ     -0.074500
      2 C6          2.0220    0.4910    1.1690 ca        1 4DZ     -0.074500
      3 C1          1.9460    1.0750    3.5240 cg        1 4DZ      0.226300
      4 C5          1.4310   -0.0360    0.0240 ca        1 4DZ     -0.131000
      5 C4         -5.9570    1.0430    5.8470 ca        1 4DZ     -0.122000
      6 C3         -5.9970    0.8650    7.2360 ca        1 4DZ     -0.129000
      7 C22        -1.3080   -0.7110   10.0660 ca        1 4DZ      0.020400
      8 C11        -0.0960   -0.9220    9.3860 ca        1 4DZ     -0.118000
      9 C12        -2.4550   -0.3280    9.3840 ca        1 4DZ     -0.114000
     10 C18        -2.4380   -0.1410    7.9850 ca        1 4DZ      0.008000
     11 C15        -3.6340    0.2630    7.2610 ca        1 4DZ     -0.035000
     12 C8         -4.8600    0.4820    7.9270 ca        1 4DZ     -0.117000
     13 C17        -1.2110   -0.3590    7.3070 ca        1 4DZ     -0.011000
     14 C10        -0.0570   -0.7450    8.0150 ca        1 4DZ     -0.114000
     15 C21        -1.2050   -0.1680    5.8910 ca        1 4DZ     -0.079200
     16 N27        -0.1870   -0.2990    4.9540 na        1 4DZ     -0.222300
     17 C23        -0.7530    0.0170    3.6990 cc        1 4DZ      0.388400
     18 C19         0.0090   -0.0090    2.4510 ca        1 4DZ     -0.019900
     19 C14        -0.5760   -0.5420    1.2850 ca        1 4DZ      0.004000
     20 C13         1.3160    0.5090    2.3810 ca        1 4DZ      0.004000
     21 N24         2.4750    1.5450    4.4470 n1        1 4DZ     -0.337300
     22 N26        -2.0740    0.3380    3.8080 nd        1 4DZ     -0.517100
     23 C20        -2.3730    0.2300    5.1640 ca        1 4DZ      0.076400
     24 C16        -3.6100    0.4490    5.8550 ca        1 4DZ      0.021000
     25 C9         -4.7730    0.8370    5.1620 ca        1 4DZ     -0.103000
     26 H1         -0.3320   -0.9650   -0.8290 ha        1 4DZ      0.155000
     27 H2          3.0430    0.9020    1.1260 ha        1 4DZ      0.155000
     28 H3          1.9870   -0.0450   -0.9270 ha        1 4DZ      0.152000
     29 H4         -6.8670    1.3450    5.3060 ha        1 4DZ      0.137000
     30 H5         -6.9390    1.0290    7.7800 ha        1 4DZ      0.134000
     31 H6          0.8060   -1.2220    9.9390 ha        1 4DZ      0.151000
     32 H7         -3.3820   -0.1720    9.9560 ha        1 4DZ      0.151000
     33 H8         -4.9320    0.3520    9.0170 ha        1 4DZ      0.132000
     34 H9          0.8880   -0.9050    7.4750 ha        1 4DZ      0.132000
     35 H10         0.7430   -0.5750    5.1290 hn        1 4DZ      0.313700
     36 H12        -4.7290    0.9710    4.0690 ha        1 4DZ      0.157000
     37 C2         -1.8900   -1.0860    1.3070 cg        1 4DZ      0.226300
     38 Cl         -1.3610   -0.9290   11.7510 cl        1 4DZ     -0.089400
     39 N25        -2.9640   -1.5300    1.3170 n1        1 4DZ     -0.337300
@<TRIPOS>BOND
     1    1    4 ar  
     2    1   19 ar  
     3    1   26 1   
     4    2    4 ar  
     5    2   20 ar  
     6    2   27 1   
     7    3   20 1   
     8    3   21 3   
     9    4   28 1   
    10    5    6 ar  
    11    5   25 ar  
    12    5   29 1   
    13    6   12 ar  
    14    6   30 1   
    15    7    8 ar  
    16    7    9 ar  
    17    7   38 1   
    18    8   14 ar  
    19    8   31 1   
    20    9   10 ar  
    21    9   32 1   
    22   10   11 ar  
    23   10   13 ar  
    24   11   12 ar  
    25   11   24 ar  
    26   12   33 1   
    27   13   14 ar  
    28   13   15 ar  
    29   14   34 1   
    30   15   16 1   
    31   15   23 ar  
    32   16   17 1   
    33   16   35 1   
    34   17   18 1   
    35   17   22 2   
    36   18   19 ar  
    37   18   20 ar  
    38   19   37 1   
    39   22   23 1   
    40   23   24 ar  
    41   24   25 ar  
    42   25   36 1   
    43   37   39 3   
@<TRIPOS>SUBSTRUCTURE
     1 4DZ         1 TEMP              0 ****  ****    0 ROOT
