@<TRIPOS>MOLECULE
4E5
   29    30     1     0     0
SMALL
bcc


@<TRIPOS>ATOM
      1 N           0.2430    0.1190   -0.1630 n3        1 4E5     -0.759200
      2 CA          1.6900   -0.1440   -0.0780 c3        1 4E5      0.028500
      3 CAM         3.8810    3.7680    2.5960 ca        1 4E5     -0.139000
      4 CAQ        -0.3140   -0.2270    1.1450 c3        1 4E5      0.143800
      5 CAR         0.8070   -0.2010    2.2000 c3        1 4E5     -0.088400
      6 CAY         3.1290    3.6800    1.4210 ca        1 4E5      0.067100
      7 CAZ         4.0590    2.6180    3.3700 ca        1 4E5     -0.104600
      8 C           2.0350   -1.5750   -0.6130 c         1 4E5      0.934600
      9 OXT         1.8010   -2.5810    0.1110 o         1 4E5     -0.848800
     10 OAA         5.4080    3.8060    4.9540 o         1 4E5     -0.844300
     11 OAC         4.9130    1.6850    5.4090 o         1 4E5     -0.844300
     12 OAU         2.9670    4.8470    0.6840 oh        1 4E5     -0.532100
     13 CB          2.1130    0.0090    1.4110 c3        1 4E5     -0.039400
     14 CG          2.7350    1.3190    1.7760 ca        1 4E5     -0.048300
     15 CD1         2.5480    2.4730    1.0090 ca        1 4E5     -0.222000
     16 CD2         3.4970    1.4070    2.9520 ca        1 4E5     -0.135000
     17 O           2.5560   -1.6320   -1.7630 o         1 4E5     -0.848800
     18 H1          0.1170    1.1080   -0.3110 hn        1 4E5      0.300800
     19 H3          2.2500    0.5780   -0.7330 h1        1 4E5      0.047700
     20 H4          4.3310    4.7170    2.9190 ha        1 4E5      0.153000
     21 H5         -0.7240   -1.2700    1.0590 h1        1 4E5      0.026200
     22 H6         -1.1520    0.4630    1.4270 h1        1 4E5      0.026200
     23 H7          0.6420    0.6130    2.9450 hc        1 4E5      0.037200
     24 H8          0.8450   -1.1750    2.7440 hc        1 4E5      0.037200
     25 H11         2.5290    4.6000   -0.1400 ho        1 4E5      0.393000
     26 H12         2.8360   -0.8170    1.6510 hc        1 4E5      0.088700
     27 H13         1.9550    2.4480    0.0850 ha        1 4E5      0.114000
     28 H14         3.6610    0.5150    3.5770 ha        1 4E5      0.151000
     29 CAV         4.8500    2.7060    4.6650 c         1 4E5      0.906200
@<TRIPOS>BOND
     1    1    2 1   
     2    1    4 1   
     3    1   18 1   
     4    2    8 1   
     5    2   13 1   
     6    2   19 1   
     7    3    6 ar  
     8    3    7 ar  
     9    3   20 1   
    10    4    5 1   
    11    4   21 1   
    12    4   22 1   
    13    5   13 1   
    14    5   23 1   
    15    5   24 1   
    16    6   12 1   
    17    6   15 ar  
    18    7   16 ar  
    19    7   29 1   
    20    8    9 1   
    21    8   17 1   
    22   10   29 1   
    23   11   29 1   
    24   12   25 1   
    25   13   14 1   
    26   13   26 1   
    27   14   15 ar  
    28   14   16 ar  
    29   15   27 1   
    30   16   28 1   
@<TRIPOS>SUBSTRUCTURE
     1 4E5         1 TEMP              0 ****  ****    0 ROOT
