@<TRIPOS>MOLECULE
4E5
   29    30     1     0     0
SMALL
bcc


@<TRIPOS>ATOM
      1 N           0.5460   -1.1430    0.4980 ny        1 4E5      0.010000
      2 CA          0.9790    0.1480   -0.1280 c2        1 4E5     -0.304000
      3 CAM         4.1090    2.5320    2.9700 c2        1 4E5     -0.466000
      4 CAQ         1.0270   -1.1330    1.9170 c3        1 4E5     -0.127000
      5 CAR         1.7670    0.1990    2.1050 c3        1 4E5     -0.195000
      6 CAY         4.5960    2.1280    1.7180 c2        1 4E5      0.145000
      7 CAZ         2.7730    2.9950    3.0430 c2        1 4E5      0.035000
      8 C           0.5380    0.2580   -1.5740 c2        1 4E5      0.393000
      9 OXT        -0.0480   -0.7730   -2.0500 o         1 4E5     -0.570500
     10 OAA         2.5010    4.5250    4.9090 o         1 4E5     -0.617000
     11 OAC         1.4500    2.5740    4.9800 o         1 4E5     -0.617000
     12 OAU         5.9510    1.8160    1.5710 oh        1 4E5     -0.324000
     13 CB          1.6690    0.8960    0.7680 c2        1 4E5      0.065000
     14 CG          2.3520    2.2510    0.6950 c3        1 4E5      0.115000
     15 CD1         3.8110    2.0130    0.5920 c2        1 4E5     -0.452000
     16 CD2         1.9690    2.9790    1.9360 c2        1 4E5     -0.391000
     17 O           0.7430    1.3120   -2.2160 o         1 4E5     -0.570500
     18 H1         -0.4690   -1.2000    0.4260 hn        1 4E5      0.218000
     19 H3          0.9390   -1.9060   -0.0520 hn        1 4E5      0.218000
     20 H4          4.7520    2.5600    3.8510 ha        1 4E5      0.092000
     21 H5          1.7030   -2.0110    2.0810 hx        1 4E5      0.093000
     22 H6          0.1460   -1.2110    2.6040 hx        1 4E5      0.093000
     23 H7          2.8450    0.0580    2.3770 hc        1 4E5      0.175500
     24 H8          1.3110    0.8420    2.9130 hc        1 4E5      0.175500
     25 H11         6.3810    2.0950    2.3890 ho        1 4E5      0.180000
     26 H12         1.9630    2.7610   -0.2320 hc        1 4E5      0.080000
     27 H13         4.2280    1.7610   -0.3840 ha        1 4E5      0.096000
     28 H14         0.9720    3.4280    1.9510 ha        1 4E5      0.091000
     29 CAV         2.2140    3.4060    4.3870 c2        1 4E5      0.357000
@<TRIPOS>BOND
     1    1    2 1   
     2    1    4 1   
     3    1   18 1   
     4    1   19 1   
     5    2    8 1   
     6    2   13 1   
     7    3    6 1   
     8    3    7 1   
     9    3   20 1   
    10    4    5 1   
    11    4   21 1   
    12    4   22 1   
    13    5   13 1   
    14    5   23 1   
    15    5   24 1   
    16    6   12 1   
    17    6   15 1   
    18    7   16 1   
    19    7   29 1   
    20    8    9 1   
    21    8   17 1   
    22   10   29 1   
    23   11   29 1   
    24   12   25 1   
    25   13   14 1   
    26   14   15 1   
    27   14   16 1   
    28   14   26 1   
    29   15   27 1   
    30   16   28 1   
@<TRIPOS>SUBSTRUCTURE
     1 4E5         1 TEMP              0 ****  ****    0 ROOT
