@<TRIPOS>MOLECULE
4E6
   44    42     1     0     0
SMALL
bcc


@<TRIPOS>ATOM
      1 C1         -0.0930    0.0760    0.4840 c3        1 4E6     -0.092100
      2 C2          1.3700   -0.2720    0.3980 c3        1 4E6     -0.080400
      3 C3          2.0870    0.0160    1.7010 c3        1 4E6     -0.079400
      4 C4          3.5560   -0.3350    1.6100 c3        1 4E6     -0.079400
      5 C5          4.2710   -0.0460    2.9130 c3        1 4E6     -0.079400
      6 C6          5.7410   -0.3980    2.8220 c3        1 4E6     -0.079400
      7 C7          6.4560   -0.1090    4.1250 c3        1 4E6     -0.080400
      8 C8          7.9240   -0.4650    4.0340 c3        1 4E6     -0.078400
      9 C9          8.6690   -0.1820    5.3250 c3        1 4E6     -0.044200
     10 C10         8.9560    1.2630    5.5060 c2        1 4E6     -0.148300
     11 C11        10.0420    1.7240    6.0710 c1        1 4E6     -0.062900
     12 C12        11.0840    2.1870    6.6120 c1        1 4E6     -0.059900
     13 C13        12.1570    2.6870    7.1690 c2        1 4E6     -0.150300
     14 C14        13.2620    1.8600    7.7200 c3        1 4E6     -0.016000
     15 C15        14.5910    2.4540    7.4270 c2        1 4E6     -0.165200
     16 C16        15.5620    2.5760    8.3290 c2        1 4E6     -0.221000
     17 H1         -0.6020   -0.1430   -0.4860 hc        1 4E6      0.032700
     18 H1A        -0.2280    1.1610    0.7150 hc        1 4E6      0.032700
     19 H1B        -0.5940   -0.5170    1.2870 hc        1 4E6      0.032700
     20 H2          1.4850   -1.3580    0.1410 hc        1 4E6      0.038700
     21 H2A         1.8500    0.3150   -0.4290 hc        1 4E6      0.038700
     22 H3          1.6100   -0.5710    2.5290 hc        1 4E6      0.039700
     23 H3A         1.9740    1.1020    1.9580 hc        1 4E6      0.039700
     24 H4          4.0330    0.2520    0.7820 hc        1 4E6      0.039700
     25 H4A         3.6680   -1.4210    1.3520 hc        1 4E6      0.039700
     26 H5          3.7950   -0.6330    3.7420 hc        1 4E6      0.039700
     27 H5A         4.1590    1.0400    3.1710 hc        1 4E6      0.039700
     28 H6          6.2180    0.1900    1.9930 hc        1 4E6      0.040200
     29 H6A         5.8530   -1.4840    2.5650 hc        1 4E6      0.040200
     30 H7          5.9770   -0.6940    4.9540 hc        1 4E6      0.040200
     31 H7A         6.3440    0.9780    4.3810 hc        1 4E6      0.040200
     32 H8          8.3990    0.1020    3.1920 hc        1 4E6      0.044700
     33 H8A         8.0220   -1.5580    3.7950 hc        1 4E6      0.044700
     34 H9          9.6250   -0.7700    5.3330 hc        1 4E6      0.053700
     35 H9A         8.0560   -0.5360    6.1990 hc        1 4E6      0.053700
     36 H10         8.1830    1.9630    5.1410 ha        1 4E6      0.139000
     37 H11        11.6270    3.9810    1.0800 ha        1 4E6      0.000000
     38 H12        11.2870    4.5230    1.3000 ha        1 4E6      0.000000
     39 H13        12.2750    3.7800    7.2680 ha        1 4E6      0.140000
     40 H14        13.2290    0.8210    7.2900 hc        1 4E6      0.059700
     41 H14A       13.1090    1.7600    8.8320 hc        1 4E6      0.059700
     42 H15        14.7340    2.7830    6.3840 ha        1 4E6      0.124000
     43 H16        16.5430    3.0000    8.0780 ha        1 4E6      0.112000
     44 H16A       15.4470    2.2620    9.3740 ha        1 4E6      0.112000
@<TRIPOS>BOND
     1    1    2 1   
     2    1   17 1   
     3    1   18 1   
     4    1   19 1   
     5    2    3 1   
     6    2   20 1   
     7    2   21 1   
     8    3    4 1   
     9    3   22 1   
    10    3   23 1   
    11    4    5 1   
    12    4   24 1   
    13    4   25 1   
    14    5    6 1   
    15    5   26 1   
    16    5   27 1   
    17    6    7 1   
    18    6   28 1   
    19    6   29 1   
    20    7    8 1   
    21    7   30 1   
    22    7   31 1   
    23    8    9 1   
    24    8   32 1   
    25    8   33 1   
    26    9   10 1   
    27    9   34 1   
    28    9   35 1   
    29   10   11 2   
    30   10   36 1   
    31   11   12 2   
    32   12   13 2   
    33   13   14 1   
    34   13   39 1   
    35   14   15 1   
    36   14   40 1   
    37   14   41 1   
    38   15   16 2   
    39   15   42 1   
    40   16   43 1   
    41   16   44 1   
    42   37   38 1   
@<TRIPOS>SUBSTRUCTURE
     1 4E6         1 TEMP              0 ****  ****    0 ROOT
