@<TRIPOS>MOLECULE
4E6
   44    40     1     0     0
SMALL
bcc


@<TRIPOS>ATOM
      1 C1         -6.0540    1.4150   -5.3800 c3        1 4E6     -0.210000
      2 C2         -4.8000    0.6340   -5.0540 c3        1 4E6     -0.159000
      3 C3         -4.3890    0.9120   -3.6250 c3        1 4E6     -0.158000
      4 C4         -3.2260    0.0190   -3.2520 c3        1 4E6     -0.158000
      5 C5         -2.6410    0.4780   -1.9340 c3        1 4E6     -0.158000
      6 C6         -1.5870   -0.5070   -1.4810 c3        1 4E6     -0.158000
      7 C7         -0.8290    0.0700   -0.3050 c3        1 4E6     -0.158000
      8 C8          0.0730   -0.9920    0.2840 c3        1 4E6     -0.157000
      9 C9          1.0260   -0.3530    1.2710 c3        1 4E6     -0.136000
     10 C10         1.6750   -1.4290    2.1140 c2        1 4E6     -0.146000
     11 C11         2.7290   -1.1270    2.8970 c1        1 4E6     -0.147000
     12 C12         3.2630    0.2880    2.9340 c1        1 4E6     -0.145000
     13 C13         4.3850    0.5660    3.6260 c1        1 4E6     -0.145000
     14 C14         5.1110   -0.5360    4.3660 c2        1 4E6     -0.112000
     15 C15         6.4670   -0.0360    4.8120 c2        1 4E6     -0.159000
     16 C16         6.9870   -0.4520    5.9830 c1        1 4E6     -0.223000
     17 H1         -6.3110    1.2480   -6.3110 hc        1 4E6      0.072000
     18 H1A        -6.7790    1.1310   -4.7850 hc        1 4E6      0.072000
     19 H1B        -5.8850    2.3720   -5.2540 hc        1 4E6      0.072000
     20 H2         -4.0810    0.9060   -5.6590 hc        1 4E6      0.078000
     21 H2A        -4.9730   -0.3220   -5.1640 hc        1 4E6      0.078000
     22 H3         -5.1430    0.7330   -3.0280 hc        1 4E6      0.079000
     23 H3A        -4.1210    1.8490   -3.5390 hc        1 4E6      0.079000
     24 H4         -3.5380   -0.9040   -3.1660 hc        1 4E6      0.079000
     25 H4A        -2.5410    0.0680   -3.9480 hc        1 4E6      0.079000
     26 H5         -2.2350    1.3610   -2.0480 hc        1 4E6      0.079000
     27 H5A        -3.3500    0.5300   -1.2630 hc        1 4E6      0.079000
     28 H6         -2.0160   -1.3440   -1.2120 hc        1 4E6      0.079000
     29 H6A        -0.9650   -0.6810   -2.2150 hc        1 4E6      0.079000
     30 H7         -0.2880    0.8270   -0.6060 hc        1 4E6      0.079000
     31 H7A        -1.4640    0.3730    0.3750 hc        1 4E6      0.079000
     32 H8          0.5830   -1.4210   -0.4310 hc        1 4E6      0.081000
     33 H8A        -0.4710   -1.6630    0.7440 hc        1 4E6      0.081000
     34 H9          0.5320    0.2610    1.8500 hc        1 4E6      0.090000
     35 H9A         1.7160    0.1400    0.7840 hc        1 4E6      0.090000
     36 H10         1.3300   -2.3420    2.0900 ha        1 4E6      0.121000
     37 H11         3.1470   -1.8210    3.4410 ha        1 4E6      0.120000
     38 H12         2.7950    0.9990    2.4560 ha        1 4E6      0.123000
     39 H13         4.7300    1.4790    3.6490 ha        1 4E6      0.123000
     40 H14         5.2260   -1.3060    3.7730 ha        1 4E6      0.097000
     41 H14A        4.5880   -0.8020    5.1480 ha        1 4E6      0.097000
     42 H15         6.9680    0.5860    4.2490 ha        1 4E6      0.120000
     43 H16         7.8640   -0.1290    6.2710 DU        1 4E6      0.112000
     44 H16A        6.4890   -1.0790    6.5440 ha        1 4E6      0.111000
@<TRIPOS>BOND
     1    1    2 1   
     2    1   17 1   
     3    1   18 1   
     4    1   19 1   
     5    2    3 1   
     6    2   20 1   
     7    2   21 1   
     8    3    4 1   
     9    3   22 1   
    10    3   23 1   
    11    4    5 1   
    12    4   24 1   
    13    4   25 1   
    14    5    6 1   
    15    5   26 1   
    16    5   27 1   
    17    6    7 1   
    18    6   28 1   
    19    6   29 1   
    20    7    8 1   
    21    7   30 1   
    22    7   31 1   
    23    8    9 1   
    24    8   32 1   
    25    8   33 1   
    26    9   10 1   
    27    9   34 1   
    28    9   35 1   
    29   10   11 1   
    30   10   36 1   
    31   11   37 1   
    32   12   13 1   
    33   12   38 1   
    34   13   39 1   
    35   14   15 1   
    36   14   40 1   
    37   14   41 1   
    38   15   16 1   
    39   15   42 1   
    40   16   44 1   
@<TRIPOS>SUBSTRUCTURE
     1 4E6         1 TEMP              0 ****  ****    0 ROOT
