@<TRIPOS>MOLECULE
4E6
   44    43     1     0     0
SMALL
bcc


@<TRIPOS>ATOM
      1 C1          9.0350   -0.5780    0.2740 c3        1 4E6     -0.092100
      2 C2          7.7230   -0.8120   -0.4290 c3        1 4E6     -0.080400
      3 C3          6.5730   -0.1570    0.3060 c3        1 4E6     -0.079400
      4 C4          5.2580   -0.3960   -0.4040 c3        1 4E6     -0.079400
      5 C5          4.1090    0.2600    0.3320 c3        1 4E6     -0.079400
      6 C6          2.7940    0.0220   -0.3780 c3        1 4E6     -0.079400
      7 C7          1.6450    0.6780    0.3580 c3        1 4E6     -0.079400
      8 C8          0.3310    0.4380   -0.3520 c3        1 4E6     -0.076400
      9 C9         -0.8170    1.0990    0.3870 c3        1 4E6     -0.051200
     10 C10        -2.1080    0.8860   -0.3090 c2        1 4E6     -0.155200
     11 C11        -3.2450    0.5680    0.3250 ce        1 4E6     -0.141000
     12 C12        -4.5070    0.3830   -0.3610 ce        1 4E6     -0.138000
     13 C13        -5.6460    0.0730    0.2740 c2        1 4E6     -0.156200
     14 C14        -6.9470   -0.0900   -0.4200 c3        1 4E6     -0.023000
     15 C15        -7.6970   -1.2710    0.0820 c2        1 4E6     -0.162200
     16 C16        -8.9960   -1.2540    0.3710 c2        1 4E6     -0.224000
     17 H1          9.0080   -0.9970    1.3090 hc        1 4E6      0.032700
     18 H1A         9.8680   -1.0690   -0.2840 hc        1 4E6      0.032700
     19 H1B         9.2540    0.5150    0.3450 hc        1 4E6      0.032700
     20 H2          7.7780   -0.4070   -1.4740 hc        1 4E6      0.038700
     21 H2A         7.5320   -1.9150   -0.5130 hc        1 4E6      0.038700
     22 H3          6.5160   -0.5620    1.3510 hc        1 4E6      0.039700
     23 H3A         6.7610    0.9460    0.3900 hc        1 4E6      0.039700
     24 H4          5.3150    0.0100   -1.4480 hc        1 4E6      0.039700
     25 H4A         5.0700   -1.4980   -0.4870 hc        1 4E6      0.039700
     26 H5          4.0520   -0.1450    1.3770 hc        1 4E6      0.039700
     27 H5A         4.2970    1.3630    0.4160 hc        1 4E6      0.039700
     28 H6          2.8520    0.4270   -1.4220 hc        1 4E6      0.040200
     29 H6A         2.6060   -1.0810   -0.4610 hc        1 4E6      0.040200
     30 H7          1.5880    0.2730    1.4030 hc        1 4E6      0.040200
     31 H7A         1.8330    1.7810    0.4420 hc        1 4E6      0.040200
     32 H8          0.3880    0.8420   -1.3970 hc        1 4E6      0.042700
     33 H8A         0.1410   -0.6640   -0.4320 hc        1 4E6      0.042700
     34 H9         -0.8610    0.7060    1.4380 hc        1 4E6      0.047700
     35 H9A        -0.6260    2.2060    0.4570 hc        1 4E6      0.047700
     36 H10        -2.0820    1.0170   -1.4030 ha        1 4E6      0.121000
     37 H11        -3.2620    0.4340    1.4210 ha        1 4E6      0.122000
     38 H12        -4.4900    0.5130   -1.4580 ha        1 4E6      0.121000
     39 H13        -5.6730   -0.0630    1.3680 ha        1 4E6      0.125000
     40 H14        -7.5500    0.8490   -0.2740 hc        1 4E6      0.054200
     41 H14A       -6.7920   -0.2100   -1.5280 hc        1 4E6      0.054200
     42 H15        -7.0990   -2.1910    0.1880 ha        1 4E6      0.123000
     43 H16        -9.5280   -2.1480    0.7210 ha        1 4E6      0.111000
     44 H16A       -9.6160   -0.3530    0.2800 ha        1 4E6      0.111000
@<TRIPOS>BOND
     1    1    2 1   
     2    1   17 1   
     3    1   18 1   
     4    1   19 1   
     5    2    3 1   
     6    2   20 1   
     7    2   21 1   
     8    3    4 1   
     9    3   22 1   
    10    3   23 1   
    11    4    5 1   
    12    4   24 1   
    13    4   25 1   
    14    5    6 1   
    15    5   26 1   
    16    5   27 1   
    17    6    7 1   
    18    6   28 1   
    19    6   29 1   
    20    7    8 1   
    21    7   30 1   
    22    7   31 1   
    23    8    9 1   
    24    8   32 1   
    25    8   33 1   
    26    9   10 1   
    27    9   34 1   
    28    9   35 1   
    29   10   11 2   
    30   10   36 1   
    31   11   12 1   
    32   11   37 1   
    33   12   13 2   
    34   12   38 1   
    35   13   14 1   
    36   13   39 1   
    37   14   15 1   
    38   14   40 1   
    39   14   41 1   
    40   15   16 2   
    41   15   42 1   
    42   16   43 1   
    43   16   44 1   
@<TRIPOS>SUBSTRUCTURE
     1 4E6         1 TEMP              0 ****  ****    0 ROOT
