@<TRIPOS>MOLECULE
4E7
   37    38     1     0     0
SMALL
bcc


@<TRIPOS>ATOM
      1 N           0.0020   -0.9450   -0.0420 n3        1 4E7     -0.804200
      2 CA          1.1880   -0.0620   -0.1120 c3        1 4E7      0.034500
      3 CB          1.0460    0.9760    1.0340 c3        1 4E7      0.008600
      4 C           2.5110   -0.8880   -0.1610 c         1 4E7      0.912600
      5 OXT         2.6200   -1.8780    0.6190 o         1 4E7     -0.838300
      6 O           3.3480   -0.5800   -1.0510 o         1 4E7     -0.838300
      7 CAM         4.2980    3.2580    2.6570 ca        1 4E7     -0.125000
      8 CAQ        -0.7160   -0.6480    1.1930 c3        1 4E7      0.151800
      9 CAR         0.1470    0.2790    2.0820 c3        1 4E7     -0.065700
     10 CAY         3.2880    3.8630    1.9150 ca        1 4E7     -0.181000
     11 CAZ         4.3040    1.8720    2.8410 ca        1 4E7     -0.119600
     12 OAA         6.4990    1.8470    3.7980 o         1 4E7     -0.848800
     13 OAC         5.0570    0.3020    4.4910 o         1 4E7     -0.848800
     14 CG          2.2460    1.6930    1.5490 ca        1 4E7     -0.068300
     15 CD1         2.2620    3.0890    1.3810 ca        1 4E7     -0.161000
     16 CD2         3.3080    1.0900    2.2390 ca        1 4E7     -0.068000
     17 C1          0.9000   -0.5000    3.1370 c3        1 4E7     -0.106400
     18 C2         -0.0100   -1.0930    4.1940 c3        1 4E7     -0.065400
     19 C3          0.7940   -1.7590    5.2820 c3        1 4E7     -0.092100
     20 H8          0.3310   -1.8980   -0.0070 hn        1 4E7      0.358800
     21 HA          1.1190    0.4940   -1.0900 h1        1 4E7      0.044700
     22 HB          0.3720    1.7810    0.5940 hc        1 4E7      0.005700
     23 HAQ1       -1.0080   -1.5830    1.7390 h1        1 4E7      0.009200
     24 HAQ2       -1.6650   -0.1100    0.9110 h1        1 4E7      0.009200
     25 HAR1       -0.5050    1.0400    2.5840 hc        1 4E7      0.016700
     26 HD1         1.4570    3.5830    0.8180 ha        1 4E7      0.090000
     27 HD2         3.3720   -0.0120    2.3070 ha        1 4E7      0.181000
     28 H2          1.5020   -1.3090    2.6310 hc        1 4E7      0.091700
     29 H1          1.6290    0.1840    3.6510 hc        1 4E7      0.091700
     30 H3         -0.7060   -1.8430    3.7360 hc        1 4E7      0.010200
     31 H4         -0.6490   -0.2840    4.6390 hc        1 4E7      0.010200
     32 H5          1.4200   -2.5790    4.8540 hc        1 4E7      0.028367
     33 H6          1.4800   -1.0240    5.7690 hc        1 4E7      0.028367
     34 H7          0.1200   -2.1920    6.0610 hc        1 4E7      0.028367
     35 HAM         5.1120    3.8510    3.1010 ha        1 4E7      0.128000
     36 CAV         5.3630    1.2840    3.7560 c         1 4E7      0.911200
     37 HAY         3.2940    4.9500    1.7540 ha        1 4E7      0.083000
@<TRIPOS>BOND
     1    1    2 1   
     2    1    8 1   
     3    1   20 1   
     4    2    3 1   
     5    2    4 1   
     6    2   21 1   
     7    3    9 1   
     8    3   14 1   
     9    3   22 1   
    10    4    5 1   
    11    4    6 1   
    12    7   10 ar  
    13    7   11 ar  
    14    7   35 1   
    15    8    9 1   
    16    8   23 1   
    17    8   24 1   
    18    9   17 1   
    19    9   25 1   
    20   10   15 ar  
    21   10   37 1   
    22   11   16 ar  
    23   11   36 1   
    24   12   36 1   
    25   13   36 1   
    26   14   15 ar  
    27   14   16 ar  
    28   15   26 1   
    29   16   27 1   
    30   17   18 1   
    31   17   28 1   
    32   17   29 1   
    33   18   19 1   
    34   18   30 1   
    35   18   31 1   
    36   19   32 1   
    37   19   33 1   
    38   19   34 1   
@<TRIPOS>SUBSTRUCTURE
     1 4E7         1 TEMP              0 ****  ****    0 ROOT
