@<TRIPOS>MOLECULE
4E7
   37    47     1     0     0
SMALL
bcc


@<TRIPOS>ATOM
      1 N           0.0000    0.0000    0.0000 ny        1 4E7      0.192000
      2 CA          1.4790    0.0000    0.0000 DU        1 4E7     -0.295000
      3 CB          1.9300    0.0000    1.4720 c3        1 4E7     -0.453000
      4 C           1.9920   -1.2320   -0.6990 c2        1 4E7      0.442000
      5 OXT         1.2660   -2.1850   -0.8550 o         1 4E7     -0.553000
      6 O           3.2580   -1.2730   -1.1450 o         1 4E7     -0.553000
      7 CAM         4.1300    3.5670    2.3510 c2        1 4E7     -0.260000
      8 CAQ        -0.4060   -0.6110    1.2910 DU        1 4E7     -0.167000
      9 CAR         0.6220   -0.0320    2.2960 DU        1 4E7     -0.426000
     10 CAY         2.8520    3.6480    1.8370 c2        1 4E7     -0.050000
     11 CAZ         4.7080    2.3180    2.5840 c3        1 4E7     -0.017000
     12 OAA         6.7700    3.3470    3.4050 o         1 4E7     -0.591000
     13 OAC         6.5780    1.1370    3.3320 o         1 4E7     -0.591000
     14 CG          2.7110    1.2520    1.7800 c2        1 4E7      0.067000
     15 CD1         2.1440    2.4930    1.5510 c2        1 4E7     -0.450000
     16 CD2         3.9860    1.1570    2.3000 c2        1 4E7     -0.077000
     17 C1          0.7700   -0.9500    3.5110 DU        1 4E7     -0.247000
     18 C2         -0.4930   -0.8650    4.3710 DU        1 4E7     -0.233000
     19 C3         -0.3460   -1.7820    5.5850 c3        1 4E7     -0.748000
     20 H8          0.8590    0.3090    0.4110 DU        1 4E7      0.157000
     21 HA          0.5190   -0.3000   -0.4020 DU        1 4E7      0.157000
     22 HB          1.8890    0.4480    0.4870 DU        1 4E7      0.195000
     23 HAQ1        0.6640   -0.7120    1.4340 DU        1 4E7      0.143500
     24 HAQ2       -1.4110   -0.3080    1.5570 hx        1 4E7      0.125000
     25 HAR1        0.1530   -0.8570    1.7740 DU        1 4E7      0.143500
     26 HD1         1.3860    1.8560    1.9900 ha        1 4E7      0.223000
     27 HD2         3.0720    1.6080    1.9300 ha        1 4E7     -0.007000
     28 H2          1.7660   -0.6440    3.2150 ha        1 4E7      0.228500
     29 H1          0.9100   -1.9710    3.1770 ha        1 4E7      0.228500
     30 H3          0.5760   -0.7510    4.2340 DU        1 4E7      0.288000
     31 H4         -1.3500   -1.1750    3.7850 ha        1 4E7      0.084000
     32 H5         -0.4910   -0.8040    5.1430 DU        1 4E7      0.227000
     33 H6         -1.2710   -1.7870    6.1480 hc        1 4E7      0.066500
     34 H7          0.4580   -1.4220    6.2150 hc        1 4E7      0.066500
     35 HAM         3.5670    2.7250    2.7350 DU        1 4E7      0.165000
     36 CAV         6.0770    2.2250    3.1310 c2        1 4E7      0.427000
     37 HAY         2.4020    4.6160    1.6550 ha        1 4E7      0.094000
@<TRIPOS>BOND
     1    1    2 1   
     2    1    8 1   
     3    1   20 1   
     4    1   21 1   
     5    2    3 1   
     6    2    4 1   
     7    2   20 1   
     8    2   21 1   
     9    2   22 1   
    10    3    9 1   
    11    3   14 1   
    12    3   22 1   
    13    4    5 1   
    14    4    6 1   
    15    7   10 1   
    16    7   11 1   
    17    7   35 1   
    18    8    9 1   
    19    8   23 1   
    20    8   24 1   
    21    8   25 1   
    22    9   17 1   
    23    9   23 1   
    24    9   25 1   
    25   10   15 1   
    26   10   37 1   
    27   11   16 1   
    28   11   35 1   
    29   11   36 1   
    30   12   36 1   
    31   13   36 1   
    32   14   15 1   
    33   14   16 1   
    34   15   26 1   
    35   16   27 1   
    36   17   18 1   
    37   17   28 1   
    38   17   29 1   
    39   17   30 1   
    40   18   19 1   
    41   18   30 1   
    42   18   31 1   
    43   18   32 1   
    44   19   32 1   
    45   19   33 1   
    46   19   34 1   
    47   23   25 1   
@<TRIPOS>SUBSTRUCTURE
     1 4E7         1 TEMP              0 ****  ****    0 ROOT
