@<TRIPOS>MOLECULE
4E8
   45    47     1     0     0
SMALL
bcc


@<TRIPOS>ATOM
      1 N01         0.1160   -1.0010   -0.0380 nc        1 4E8     -0.638000
      2 C02         1.4360   -0.8250    0.0470 cd        1 4E8      0.427400
      3 N03         1.8070   -0.3720    1.3460 na        1 4E8     -0.269700
      4 C04         0.6070   -0.2720    2.0890 cd        1 4E8     -0.200600
      5 C05        -0.4140   -0.6630    1.2210 cc        1 4E8      0.310200
      6 C1'         9.0400   -3.2080   -5.9090 ca        1 4E8     -0.085300
      7 N11         3.2480    0.3720    3.1090 nb        1 4E8     -0.689000
      8 C12         3.1030   -0.0830    1.8000 ca        1 4E8      0.786500
      9 N13         4.1490   -0.2700    0.9120 nb        1 4E8     -0.764000
     10 C14         5.3910    0.0160    1.3730 ca        1 4E8      0.452600
     11 C15         5.6280    0.4780    2.6790 ca        1 4E8     -0.384600
     12 C16         4.4960    0.6380    3.5090 ca        1 4E8      0.481200
     13 C17         6.5770   -0.1410    0.4610 c3        1 4E8     -0.157700
     14 C18         6.2380   -0.9290   -0.7990 c3        1 4E8      0.111800
     15 N19         7.4330   -1.1380   -1.6740 n4        1 4E8     -0.766000
     16 C2'         9.9990   -4.1450   -5.5130 ca        1 4E8     -0.171000
     17 C20         7.0880   -1.9150   -2.9050 c3        1 4E8      0.102800
     18 C21         8.2950   -2.1340   -3.8080 c3        1 4E8     -0.110400
     19 C22         7.8700   -2.9380   -5.0270 c3        1 4E8     -0.026100
     20 C3'        11.0960   -4.4120   -6.3520 ca        1 4E8      0.139900
     21 C4'        11.2270   -3.7440   -7.5850 ca        1 4E8     -0.146000
     22 C5'        10.2600   -2.8200   -7.9640 ca        1 4E8     -0.094000
     23 C6'         9.1710   -2.5480   -7.1340 ca        1 4E8     -0.134000
     24 F7'        12.0270   -5.3150   -5.9680 f         1 4E8     -0.127900
     25 H02         2.1680   -0.9900   -0.7490 h5        1 4E8      0.066100
     26 H04         0.5900    0.0570    3.1290 h4        1 4E8      0.208000
     27 H05        -1.4860   -0.7230    1.4120 h4        1 4E8      0.063100
     28 H15         6.6350    0.7070    3.0440 ha        1 4E8      0.167000
     29 H16         4.5980    0.9990    4.5520 h4        1 4E8      0.056100
     30 H17         7.3910   -0.6560    1.0410 hc        1 4E8      0.081200
     31 H17A        6.9390    0.8900    0.1940 hc        1 4E8      0.081200
     32 H18         5.8280   -1.9440   -0.5260 hx        1 4E8      0.122700
     33 H18A        5.4610   -0.3810   -1.4080 hx        1 4E8      0.122700
     34 HN19        7.8210   -0.2280   -1.9480 hn        1 4E8      0.448300
     35 H2'         9.9010   -4.6870   -4.5620 ha        1 4E8      0.142000
     36 H20         6.6620   -2.9080   -2.5780 hx        1 4E8      0.109700
     37 H20A        6.2860   -1.3470   -3.4590 hx        1 4E8      0.109700
     38 H21         8.7210   -1.1510   -4.1420 hc        1 4E8      0.072200
     39 H21A        9.1020   -2.6920   -3.2620 hc        1 4E8      0.072200
     40 H22         7.0820   -2.3740   -5.5940 hc        1 4E8      0.063700
     41 H22A        7.4180   -3.9120   -4.6980 hc        1 4E8      0.063700
     42 H4'        12.0870   -3.9650   -8.2360 ha        1 4E8      0.165000
     43 H5'        10.3530   -2.3000   -8.9310 ha        1 4E8      0.153000
     44 H6'         8.4110   -1.8190   -7.4530 ha        1 4E8      0.139000
     45 H192        8.1590   -1.6410   -1.1510 hn        1 4E8      0.448300
@<TRIPOS>BOND
     1    1    2 2   
     2    1    5 1   
     3    2    3 1   
     4    2   25 1   
     5    3    4 1   
     6    3    8 1   
     7    4    5 2   
     8    4   26 1   
     9    5   27 1   
    10    6   16 ar  
    11    6   19 1   
    12    6   23 ar  
    13    7    8 ar  
    14    7   12 ar  
    15    8    9 ar  
    16    9   10 ar  
    17   10   11 ar  
    18   10   13 1   
    19   11   12 ar  
    20   11   28 1   
    21   12   29 1   
    22   13   14 1   
    23   13   30 1   
    24   13   31 1   
    25   14   15 1   
    26   14   32 1   
    27   14   33 1   
    28   15   17 1   
    29   15   34 1   
    30   15   45 1   
    31   16   20 ar  
    32   16   35 1   
    33   17   18 1   
    34   17   36 1   
    35   17   37 1   
    36   18   19 1   
    37   18   38 1   
    38   18   39 1   
    39   19   40 1   
    40   19   41 1   
    41   20   21 ar  
    42   20   24 1   
    43   21   22 ar  
    44   21   42 1   
    45   22   23 ar  
    46   22   43 1   
    47   23   44 1   
@<TRIPOS>SUBSTRUCTURE
     1 4E8         1 TEMP              0 ****  ****    0 ROOT
