@<TRIPOS>MOLECULE
4E8
   45    47     1     0     0
SMALL
bcc


@<TRIPOS>ATOM
      1 N01         0.1170   -0.9980   -0.0370 nc        1 4E8     -0.638000
      2 C02         1.4380   -0.8220    0.0480 cd        1 4E8      0.427400
      3 N03         1.8090   -0.3690    1.3460 na        1 4E8     -0.269700
      4 C04         0.6090   -0.2670    2.0900 cd        1 4E8     -0.200600
      5 C05        -0.4120   -0.6580    1.2220 cc        1 4E8      0.310200
      6 C1'         9.0380   -3.2100   -5.9090 ca        1 4E8     -0.085300
      7 N11         3.2500    0.3760    3.1090 nb        1 4E8     -0.689000
      8 C12         3.1050   -0.0800    1.8010 ca        1 4E8      0.786500
      9 N13         4.1510   -0.2690    0.9130 nb        1 4E8     -0.764000
     10 C14         5.3920    0.0170    1.3730 ca        1 4E8      0.452600
     11 C15         5.6300    0.4800    2.6790 ca        1 4E8     -0.384600
     12 C16         4.4980    0.6410    3.5080 ca        1 4E8      0.481200
     13 C17         6.5790   -0.1410    0.4620 c3        1 4E8     -0.157700
     14 C18         6.2390   -0.9290   -0.7990 c3        1 4E8      0.111800
     15 N19         7.4330   -1.1400   -1.6740 ny        1 4E8     -0.766000
     16 C2'         9.9950   -4.1490   -5.5160 ca        1 4E8     -0.171000
     17 C20         7.0870   -1.9160   -2.9050 c3        1 4E8      0.102800
     18 C21         8.2940   -2.1360   -3.8070 c3        1 4E8     -0.110400
     19 C22         7.8690   -2.9380   -5.0280 c3        1 4E8     -0.026100
     20 C3'        11.0910   -4.4170   -6.3540 ca        1 4E8      0.139900
     21 C4'        11.2240   -3.7480   -7.5870 ca        1 4E8     -0.146000
     22 C5'        10.2590   -2.8200   -7.9630 ca        1 4E8     -0.094000
     23 C6'         9.1710   -2.5470   -7.1330 ca        1 4E8     -0.134000
     24 F7'        12.0200   -5.3230   -5.9720 f         1 4E8     -0.127900
     25 H02         2.1690   -0.9890   -0.7480 h5        1 4E8      0.066100
     26 H04         0.5920    0.0620    3.1290 h4        1 4E8      0.208000
     27 H05        -1.4850   -0.7180    1.4130 h4        1 4E8      0.063100
     28 H15         6.6380    0.7090    3.0430 ha        1 4E8      0.167000
     29 H16         4.6010    1.0030    4.5510 h4        1 4E8      0.056100
     30 H17         6.9420    0.8890    0.1940 hc        1 4E8      0.081200
     31 H17A        7.3920   -0.6580    1.0420 hc        1 4E8      0.081200
     32 H18         5.4630   -0.3800   -1.4070 hx        1 4E8      0.122700
     33 H18A        5.8280   -1.9440   -0.5250 hx        1 4E8      0.122700
     34 HN19        7.8230   -0.2310   -1.9470 hn        1 4E8      0.448300
     35 H2'         9.8950   -4.6930   -4.5650 ha        1 4E8      0.142000
     36 H20         6.6600   -2.9080   -2.5780 hx        1 4E8      0.109700
     37 H20A        6.2870   -1.3460   -3.4590 hx        1 4E8      0.109700
     38 H21         9.1000   -2.6970   -3.2620 hc        1 4E8      0.072200
     39 H21A        8.7230   -1.1540   -4.1400 hc        1 4E8      0.072200
     40 H22         7.4150   -3.9130   -4.6990 hc        1 4E8      0.063700
     41 H22A        7.0810   -2.3730   -5.5940 hc        1 4E8      0.063700
     42 H4'        12.0840   -3.9700   -8.2370 ha        1 4E8      0.165000
     43 H5'        10.3530   -2.2990   -8.9290 ha        1 4E8      0.153000
     44 H6'         8.4130   -1.8160   -7.4520 ha        1 4E8      0.139000
     45 H192        8.1580   -1.6450   -1.1510 hn        1 4E8      0.448300
@<TRIPOS>BOND
     1    1    2 2   
     2    1    5 1   
     3    2    3 1   
     4    2   25 1   
     5    3    4 1   
     6    3    8 1   
     7    4    5 2   
     8    4   26 1   
     9    5   27 1   
    10    6   16 ar  
    11    6   19 1   
    12    6   23 ar  
    13    7    8 ar  
    14    7   12 ar  
    15    8    9 ar  
    16    9   10 ar  
    17   10   11 ar  
    18   10   13 1   
    19   11   12 ar  
    20   11   28 1   
    21   12   29 1   
    22   13   14 1   
    23   13   30 1   
    24   13   31 1   
    25   14   15 1   
    26   14   32 1   
    27   14   33 1   
    28   15   17 1   
    29   15   34 1   
    30   15   45 1   
    31   16   20 ar  
    32   16   35 1   
    33   17   18 1   
    34   17   36 1   
    35   17   37 1   
    36   18   19 1   
    37   18   38 1   
    38   18   39 1   
    39   19   40 1   
    40   19   41 1   
    41   20   21 ar  
    42   20   24 1   
    43   21   22 ar  
    44   21   42 1   
    45   22   23 ar  
    46   22   43 1   
    47   23   44 1   
@<TRIPOS>SUBSTRUCTURE
     1 4E8         1 TEMP              0 ****  ****    0 ROOT
