@<TRIPOS>MOLECULE
4EA
   51    54     1     0     0
SMALL
bcc


@<TRIPOS>ATOM
      1 C1         -0.0640   -1.8940   -0.3720 ce        1 4EA     -0.126200
      2 C2          0.9000   -1.7740    0.5490 cf        1 4EA     -0.072200
      3 C3          1.5130   -0.5450    1.0400 ca        1 4EA     -0.046800
      4 C4          2.7750   -0.1450    0.5770 ca        1 4EA     -0.241800
      5 C7          0.8880    0.2260    2.0290 ca        1 4EA     -0.241800
      6 C8          1.5520    1.3700    2.5080 ca        1 4EA      0.401700
      7 N1          2.7610    1.7690    2.0690 nb        1 4EA     -0.651000
      8 C9          3.3520    1.0160    1.1210 ca        1 4EA      0.401700
      9 C10       -10.6360    2.7390   -5.7390 ca        1 4EA     -0.105000
     10 C11       -10.9390    1.3940   -5.8670 ca        1 4EA     -0.111000
     11 C12        -9.8740    0.4780   -5.8220 ca        1 4EA     -0.047200
     12 C13        -8.5130    0.9230   -5.6330 ca        1 4EA     -0.118800
     13 C14        -8.2500    2.2930   -5.5320 ca        1 4EA     -0.151000
     14 C15        -9.3090    3.1850   -5.5820 ca        1 4EA     -0.117000
     15 N2         -9.8630   -0.9180   -5.9350 na        1 4EA     -0.166400
     16 C16        -8.5510   -1.3590   -5.8400 cc        1 4EA     -0.040100
     17 C17        -7.6920   -0.2720   -5.6300 cd        1 4EA     -0.251400
     18 C18        -1.8520    1.2100   -2.6010 ca        1 4EA      0.380200
     19 N3         -0.5600    1.3290   -2.2490 nb        1 4EA     -0.632000
     20 C19        -0.0080    0.3360   -1.5300 ca        1 4EA      0.419200
     21 C20        -0.7030   -0.8310   -1.1250 ca        1 4EA     -0.137100
     22 C21        -2.0470   -0.9580   -1.5080 ca        1 4EA     -0.085000
     23 C22        -2.6230    0.0830   -2.2450 ca        1 4EA     -0.058200
     24 O1         -3.9870    0.0350   -2.5200 os        1 4EA     -0.376900
     25 C24        -4.2820   -0.1060   -3.9150 c3        1 4EA      0.103400
     26 C23        -5.8100   -0.2460   -4.0110 c3        1 4EA      0.117500
     27 C25        -6.2350   -0.3170   -5.4870 c3        1 4EA     -0.012200
     28 N4         -6.5060    0.8770   -3.2960 n4        1 4EA     -0.833600
     29 H1         -0.4450   -2.9060   -0.6110 ha        1 4EA      0.137000
     30 H2          1.3010   -2.6880    1.0300 ha        1 4EA      0.150000
     31 H4          3.3090   -0.7260   -0.1860 ha        1 4EA      0.148000
     32 H7         -0.0940   -0.0560    2.4300 ha        1 4EA      0.148000
     33 H8          1.0930    2.0010    3.2900 h4        1 4EA      0.031600
     34 H9          4.3460    1.3640    0.7830 h4        1 4EA      0.031600
     35 H14        -7.2150    2.6610   -5.4770 ha        1 4EA      0.116000
     36 H15        -9.1170    4.2680   -5.5170 ha        1 4EA      0.149000
     37 HN2       -10.6500   -1.4780   -6.1430 hn        1 4EA      0.321700
     38 H16        -8.3070   -2.4220   -5.9290 h4        1 4EA      0.184000
     39 H18        -2.2800    2.0420   -3.1840 h4        1 4EA      0.023100
     40 H19         1.0580    0.4740   -1.2550 h4        1 4EA      0.052100
     41 H21        -2.6380   -1.8400   -1.2230 ha        1 4EA      0.155000
     42 H241       -3.9080    0.7900   -4.4750 h1        1 4EA      0.078200
     43 H242       -3.8080   -1.0360   -4.3250 h1        1 4EA      0.078200
     44 H23        -6.1260   -1.1930   -3.4770 hx        1 4EA      0.114700
     45 H251       -5.7650    0.5300   -6.0570 hc        1 4EA      0.086700
     46 H252       -5.8220   -1.2770   -5.9020 hc        1 4EA      0.086700
     47 HN41       -7.5240    0.7660   -3.3980 hn        1 4EA      0.465133
     48 HN42       -6.2340    0.8670   -2.3070 hn        1 4EA      0.465133
     49 H10       -11.4470    3.4840   -5.7760 ha        1 4EA      0.156000
     50 H43        -6.2370    1.7730   -3.7110 hn        1 4EA      0.465133
     51 H11       -11.9750    1.0530   -6.0100 ha        1 4EA      0.156000
@<TRIPOS>BOND
     1    1    2 2   
     2    1   21 1   
     3    1   29 1   
     4    2    3 1   
     5    2   30 1   
     6    3    4 ar  
     7    3    5 ar  
     8    4    8 ar  
     9    4   31 1   
    10    5    6 ar  
    11    5   32 1   
    12    6    7 ar  
    13    6   33 1   
    14    7    8 ar  
    15    8   34 1   
    16    9   10 ar  
    17    9   14 ar  
    18    9   49 1   
    19   10   11 ar  
    20   10   51 1   
    21   11   12 ar  
    22   11   15 1   
    23   12   13 ar  
    24   12   17 1   
    25   13   14 ar  
    26   13   35 1   
    27   14   36 1   
    28   15   16 1   
    29   15   37 1   
    30   16   17 2   
    31   16   38 1   
    32   17   27 1   
    33   18   19 ar  
    34   18   23 ar  
    35   18   39 1   
    36   19   20 ar  
    37   20   21 ar  
    38   20   40 1   
    39   21   22 ar  
    40   22   23 ar  
    41   22   41 1   
    42   23   24 1   
    43   24   25 1   
    44   25   26 1   
    45   25   42 1   
    46   25   43 1   
    47   26   27 1   
    48   26   28 1   
    49   26   44 1   
    50   27   45 1   
    51   27   46 1   
    52   28   47 1   
    53   28   48 1   
    54   28   50 1   
@<TRIPOS>SUBSTRUCTURE
     1 4EA         1 TEMP              0 ****  ****    0 ROOT
