@<TRIPOS>MOLECULE
4EA
   50    53     1     0     0
SMALL
bcc


@<TRIPOS>ATOM
      1 C1          4.5130    0.0810   -0.1350 ce        1 4EA     -0.087200
      2 C2          5.7580   -0.4190   -0.2160 cf        1 4EA     -0.111200
      3 C3          6.9540    0.2920    0.2010 ca        1 4EA     -0.018800
      4 C4          8.1210   -0.4320    0.5010 ca        1 4EA     -0.237800
      5 C7          7.0020    1.6900    0.3100 ca        1 4EA     -0.237800
      6 C8          8.2030    2.2960    0.7190 ca        1 4EA      0.393700
      7 N1          9.3240    1.6110    1.0150 nb        1 4EA     -0.662000
      8 C9          9.2690    0.2690    0.9030 ca        1 4EA      0.393700
      9 C10        -8.2150    1.7410   -0.6860 ca        1 4EA     -0.112000
     10 C11        -8.1110    1.3400    0.6360 ca        1 4EA     -0.141000
     11 C12        -7.0080    0.5470    0.9930 ca        1 4EA     -0.045200
     12 C13        -6.0140    0.1660    0.0120 ca        1 4EA     -0.095800
     13 C14        -6.1620    0.5900   -1.3100 ca        1 4EA     -0.093000
     14 C15        -7.2560    1.3720   -1.6470 ca        1 4EA     -0.152000
     15 N2         -6.6380   -0.0060    2.2210 na        1 4EA     -0.190400
     16 C16        -5.4510   -0.7190    2.0440 cc        1 4EA     -0.093100
     17 C17        -5.0340   -0.6380    0.7140 cd        1 4EA     -0.153400
     18 C18         1.0680   -2.0020   -1.3770 ca        1 4EA      0.325200
     19 N3          2.2650   -2.3880   -1.8570 nb        1 4EA     -0.636000
     20 C19         3.3540   -1.7160   -1.4520 ca        1 4EA      0.369200
     21 C20         3.3160   -0.6250   -0.5490 ca        1 4EA     -0.145100
     22 C21         2.0680   -0.2200   -0.0600 ca        1 4EA     -0.112000
     23 C22         0.9230   -0.9230   -0.4780 ca        1 4EA      0.015800
     24 O1         -0.2690   -0.4990    0.0640 os        1 4EA     -0.308900
     25 C24        -1.4490   -1.0690   -0.5160 c3        1 4EA      0.129400
     26 C23        -2.6320   -0.3020    0.1110 c3        1 4EA      0.164500
     27 C25        -3.8410   -1.2640    0.1320 c3        1 4EA     -0.046200
     28 N4         -2.8630    0.9680   -0.5430 n3        1 4EA     -0.890800
     29 H1          4.3360    1.0880    0.2850 ha        1 4EA      0.133000
     30 H2          5.9360   -1.4390   -0.6020 ha        1 4EA      0.133000
     31 H4          8.1360   -1.5270    0.4280 ha        1 4EA      0.144000
     32 H7          6.1260    2.3080    0.0750 ha        1 4EA      0.144000
     33 H8          8.2730    3.3950    0.8140 h4        1 4EA      0.023100
     34 H9         10.2010   -0.2710    1.1490 h4        1 4EA      0.023100
     35 H11        -8.8640    1.6300    1.3810 ha        1 4EA      0.134000
     36 H14        -5.4180    0.3010   -2.0670 ha        1 4EA      0.130000
     37 H15        -7.3840    1.7130   -2.6850 ha        1 4EA      0.132000
     38 HN2        -7.1340    0.0910    3.0650 hn        1 4EA      0.301700
     39 H16        -4.9830   -1.2380    2.8830 h4        1 4EA      0.168000
     40 H18         0.2000   -2.5830   -1.7330 h4        1 4EA      0.025100
     41 H19         4.3120   -2.0620   -1.8790 h4        1 4EA      0.024100
     42 H21         1.9680    0.6240    0.6380 ha        1 4EA      0.158000
     43 H241       -1.4980   -2.1550   -0.2380 h1        1 4EA      0.043200
     44 H242       -1.4200   -0.9660   -1.6320 h1        1 4EA      0.043200
     45 H23        -2.3540   -0.0660    1.1830 h1        1 4EA      0.080700
     46 H251       -4.0670   -1.5990   -0.9160 hc        1 4EA      0.050700
     47 H252       -3.5620   -2.1740    0.7270 hc        1 4EA      0.050700
     48 HN41       -3.1090    0.8300   -1.5050 hn        1 4EA      0.351800
     49 HN42       -3.6150    1.4500   -0.0880 hn        1 4EA      0.351800
     50 H10        -9.0680    2.3640   -0.9960 ha        1 4EA      0.132000
@<TRIPOS>BOND
     1    1    2 2   
     2    1   21 1   
     3    1   29 1   
     4    2    3 1   
     5    2   30 1   
     6    3    4 ar  
     7    3    5 ar  
     8    4    8 ar  
     9    4   31 1   
    10    5    6 ar  
    11    5   32 1   
    12    6    7 ar  
    13    6   33 1   
    14    7    8 ar  
    15    8   34 1   
    16    9   10 ar  
    17    9   14 ar  
    18    9   50 1   
    19   10   11 ar  
    20   10   35 1   
    21   11   12 ar  
    22   11   15 1   
    23   12   13 ar  
    24   12   17 1   
    25   13   14 ar  
    26   13   36 1   
    27   14   37 1   
    28   15   16 1   
    29   15   38 1   
    30   16   17 2   
    31   16   39 1   
    32   17   27 1   
    33   18   19 ar  
    34   18   23 ar  
    35   18   40 1   
    36   19   20 ar  
    37   20   21 ar  
    38   20   41 1   
    39   21   22 ar  
    40   22   23 ar  
    41   22   42 1   
    42   23   24 1   
    43   24   25 1   
    44   25   26 1   
    45   25   43 1   
    46   25   44 1   
    47   26   27 1   
    48   26   28 1   
    49   26   45 1   
    50   27   46 1   
    51   27   47 1   
    52   28   48 1   
    53   28   49 1   
@<TRIPOS>SUBSTRUCTURE
     1 4EA         1 TEMP              0 ****  ****    0 ROOT
