@<TRIPOS>MOLECULE
4EA
   51    54     1     0     0
SMALL
bcc


@<TRIPOS>ATOM
      1 C1         -0.0720   -1.8730   -0.3440 ce        1 4EA     -0.126200
      2 C2          0.8950   -1.7420    0.5720 cf        1 4EA     -0.072200
      3 C3          1.5190   -0.5090    1.0370 ca        1 4EA     -0.045800
      4 C4          2.7820   -0.1260    0.5630 ca        1 4EA     -0.241800
      5 C7          0.9030    0.2850    2.0140 ca        1 4EA     -0.241800
      6 C8          1.5770    1.4320    2.4700 ca        1 4EA      0.401700
      7 N1          2.7860    1.8150    2.0190 nb        1 4EA     -0.651000
      8 C9          3.3690    1.0410    1.0830 ca        1 4EA      0.401700
      9 C10       -10.6210    2.7470   -5.7660 ca        1 4EA     -0.105000
     10 C11       -10.9390    1.4030   -5.8650 ca        1 4EA     -0.111000
     11 C12        -9.8830    0.4770   -5.8040 ca        1 4EA     -0.047200
     12 C13        -8.5170    0.9120   -5.6290 ca        1 4EA     -0.118800
     13 C14        -8.2390    2.2810   -5.5570 ca        1 4EA     -0.151000
     14 C15        -9.2890    3.1830   -5.6220 ca        1 4EA     -0.117000
     15 N2         -9.8860   -0.9210   -5.8880 na        1 4EA     -0.166400
     16 C16        -8.5790   -1.3730   -5.7890 cc        1 4EA     -0.040100
     17 C17        -7.7080   -0.2900   -5.6050 cd        1 4EA     -0.251400
     18 C18        -1.8460    1.2010   -2.6250 ca        1 4EA      0.380200
     19 N3         -0.5520    1.3170   -2.2800 nb        1 4EA     -0.632000
     20 C19        -0.0040    0.3340   -1.5440 ca        1 4EA      0.419200
     21 C20        -0.7060   -0.8200   -1.1150 ca        1 4EA     -0.137100
     22 C21        -2.0530   -0.9440   -1.4900 ca        1 4EA     -0.085000
     23 C22        -2.6240    0.0870   -2.2450 ca        1 4EA     -0.058200
     24 O1         -3.9900    0.0440   -2.5140 os        1 4EA     -0.376900
     25 C24        -4.2910   -0.1230   -3.9040 c3        1 4EA      0.103400
     26 C23        -5.8200   -0.2510   -3.9920 c3        1 4EA      0.117500
     27 C25        -6.2510   -0.3480   -5.4650 c3        1 4EA     -0.012200
     28 N4         -6.5030    0.8930   -3.2980 nz        1 4EA     -0.833600
     29 H1         -0.4620   -2.8860   -0.5630 ha        1 4EA      0.137000
     30 H2          1.2910   -2.6500    1.0690 ha        1 4EA      0.150000
     31 H4          3.3080   -0.7250   -0.1920 ha        1 4EA      0.148000
     32 H7         -0.0790    0.0170    2.4240 ha        1 4EA      0.148000
     33 H8          1.1250    2.0810    3.2420 h4        1 4EA      0.031600
     34 H9          4.3640    1.3750    0.7340 h4        1 4EA      0.031600
     35 H14        -7.2010    2.6390   -5.5130 ha        1 4EA      0.116000
     36 H15        -9.0870    4.2650   -5.5800 ha        1 4EA      0.149000
     37 HN2       -10.6800   -1.4770   -6.0820 hn        1 4EA      0.321700
     38 H16        -8.3460   -2.4400   -5.8570 h4        1 4EA      0.184000
     39 H18        -2.2700    2.0260   -3.2230 h4        1 4EA      0.023100
     40 H19         1.0630    0.4700   -1.2760 h4        1 4EA      0.052100
     41 H21        -2.6500   -1.8160   -1.1870 ha        1 4EA      0.155000
     42 H241       -3.8260   -1.0650   -4.2980 h1        1 4EA      0.078200
     43 H242       -3.9110    0.7590   -4.4840 h1        1 4EA      0.078200
     44 H23        -6.1420   -1.1840   -3.4380 hx        1 4EA      0.114700
     45 H251       -5.7740    0.4830   -6.0550 hc        1 4EA      0.086700
     46 H252       -5.8490   -1.3200   -5.8620 hc        1 4EA      0.086700
     47 HN41       -6.2280    0.9010   -2.3100 hn        1 4EA      0.465133
     48 HN42       -7.5230    0.7880   -3.3940 hn        1 4EA      0.465133
     49 H10       -11.4250    3.5000   -5.8150 ha        1 4EA      0.156000
     50 H43        -6.2280    1.7780   -3.7320 hn        1 4EA      0.465133
     51 H11       -11.9780    1.0700   -5.9980 ha        1 4EA      0.156000
@<TRIPOS>BOND
     1    1    2 2   
     2    1   21 1   
     3    1   29 1   
     4    2    3 1   
     5    2   30 1   
     6    3    4 ar  
     7    3    5 ar  
     8    4    8 ar  
     9    4   31 1   
    10    5    6 ar  
    11    5   32 1   
    12    6    7 ar  
    13    6   33 1   
    14    7    8 ar  
    15    8   34 1   
    16    9   10 ar  
    17    9   14 ar  
    18    9   49 1   
    19   10   11 ar  
    20   10   51 1   
    21   11   12 ar  
    22   11   15 1   
    23   12   13 ar  
    24   12   17 1   
    25   13   14 ar  
    26   13   35 1   
    27   14   36 1   
    28   15   16 1   
    29   15   37 1   
    30   16   17 2   
    31   16   38 1   
    32   17   27 1   
    33   18   19 ar  
    34   18   23 ar  
    35   18   39 1   
    36   19   20 ar  
    37   20   21 ar  
    38   20   40 1   
    39   21   22 ar  
    40   22   23 ar  
    41   22   41 1   
    42   23   24 1   
    43   24   25 1   
    44   25   26 1   
    45   25   42 1   
    46   25   43 1   
    47   26   27 1   
    48   26   28 1   
    49   26   44 1   
    50   27   45 1   
    51   27   46 1   
    52   28   47 1   
    53   28   48 1   
    54   28   50 1   
@<TRIPOS>SUBSTRUCTURE
     1 4EA         1 TEMP              0 ****  ****    0 ROOT
