@<TRIPOS>MOLECULE
4EA
   50    38     1     0     0
SMALL
bcc


@<TRIPOS>ATOM
      1 C1          3.9700    1.9390   -1.7280 c1        1 4EA     -0.119500
      2 C2          5.2320    1.4720   -1.9530 c1        1 4EA     -0.119500
      3 C3          6.0080    0.7960   -0.8270 c1        1 4EA     -0.012000
      4 C4          6.9550    1.4970   -0.1320 c2        1 4EA     -0.175000
      5 C7          5.8030   -0.5300   -0.5540 c1        1 4EA     -0.165000
      6 C8          6.5560   -1.1620    0.4270 c1        1 4EA     -0.079500
      7 N1          7.5020   -0.4600    1.1210 n1        1 4EA     -0.128000
      8 C9          7.7080    0.8630    0.8500 c1        1 4EA     -0.075000
      9 C10        -7.2050   -3.2360   -1.1500 c1        1 4EA     -0.119500
     10 C11        -7.2450   -1.8660   -1.3970 c1        1 4EA     -0.119500
     11 C12        -6.1430   -1.0530   -1.0520 c1        1 4EA     -0.038500
     12 C13        -5.0290   -1.6160   -0.4710 c1        1 4EA     -0.038500
     13 C14        -4.9890   -3.0050   -0.2210 c1        1 4EA     -0.119500
     14 C15        -6.0770   -3.8060   -0.5620 c1        1 4EA     -0.119500
     15 N2         -5.9170    0.3120   -1.1820 n1        1 4EA     -0.213000
     16 C16        -4.6690    0.5850   -0.6830 c1        1 4EA     -0.077000
     17 C17        -4.1130   -0.6060   -0.2400 c1        1 4EA     -0.152000
     18 C18         2.0710    1.6660    2.0930 c1        1 4EA     -0.115000
     19 N3          3.1140    2.5340    1.9120 n1        1 4EA     -0.128000
     20 C19         3.7470    2.6010    0.7030 c1        1 4EA     -0.079500
     21 C20         3.3330    1.7870   -0.3460 c1        1 4EA     -0.080000
     22 C21         2.2880    0.9160   -0.1660 c1        1 4EA     -0.109000
     23 C22         1.6550    0.8500    1.0450 c1        1 4EA      0.050000
     24 O1          0.5100    0.0150    1.2050 os        1 4EA     -0.205000
     25 C24        -0.7270    0.6920    1.0200 c3        1 4EA     -0.013000
     26 C23        -1.8200   -0.3220    0.7250 c3        1 4EA     -0.065000
     27 C25        -3.0940    0.4080    0.3240 c2        1 4EA     -0.125000
     28 N4         -2.0660   -1.1040    1.8830 n3        1 4EA     -0.339000
     29 H1          3.4700    2.3740   -2.4530 ha        1 4EA      0.131667
     30 H2          5.6410    1.5700   -2.8410 ha        1 4EA      0.131667
     31 H4          7.1030    2.4480   -0.3270 ha        1 4EA      0.142000
     32 H7          5.1230   -1.0350   -1.0520 ha        1 4EA      0.156000
     33 H8          6.4090   -2.1120    0.6230 ha        1 4EA      0.163000
     34 H9          8.3870    1.3660    1.3490 ha        1 4EA      0.158000
     35 H10        -7.9720   -3.8010   -1.3900 ha        1 4EA      0.131667
     36 H11        -8.0400   -1.4650   -1.8120 ha        1 4EA      0.131667
     37 H14        -4.1960   -3.4060    0.1930 ha        1 4EA      0.131667
     38 H15        -6.0490   -4.7720   -0.3880 ha        1 4EA      0.131667
     39 HN2        -6.5010    0.9240   -1.5400 DU        1 4EA      0.208000
     40 H16        -4.2500    1.4730   -0.6290 DU        1 4EA      0.208000
     41 H18         1.6170    1.6190    2.9630 ha        1 4EA      0.156000
     42 H19         4.4950    3.2240    0.5750 ha        1 4EA      0.163000
     43 H21         1.9950    0.3410   -0.9060 ha        1 4EA      0.153000
     44 H241       -0.6490    1.3170    0.2680 h1        1 4EA      0.099000
     45 H242       -0.9540    1.1890    1.8380 h1        1 4EA      0.099000
     46 H23        -1.5320   -0.9080   -0.0110 h1        1 4EA      0.123000
     47 H251       -3.4790    0.8540    1.1130 ha        1 4EA      0.086000
     48 H252       -2.8850    1.0800   -0.3640 ha        1 4EA      0.086000
     49 HN41       -2.5290   -0.6030    2.4970 hn        1 4EA      0.145500
     50 HN42       -2.5610   -1.8430    1.6540 hn        1 4EA      0.145500
@<TRIPOS>BOND
     1    1    2 1   
     2    1   29 1   
     3    2   30 1   
     4    3    4 1   
     5    3    5 1   
     6    4    8 1   
     7    4   31 1   
     8    5   32 1   
     9    6    7 1   
    10    6   33 1   
    11    8   34 1   
    12    9   10 1   
    13    9   35 1   
    14   10   36 1   
    15   11   12 1   
    16   13   14 1   
    17   13   37 1   
    18   14   38 1   
    19   15   16 1   
    20   16   17 1   
    21   18   23 1   
    22   18   41 1   
    23   19   20 1   
    24   20   42 1   
    25   21   22 1   
    26   22   43 1   
    27   23   24 1   
    28   24   25 1   
    29   25   26 1   
    30   25   44 1   
    31   25   45 1   
    32   26   27 1   
    33   26   28 1   
    34   26   46 1   
    35   27   47 1   
    36   27   48 1   
    37   28   49 1   
    38   28   50 1   
@<TRIPOS>SUBSTRUCTURE
     1 4EA         1 TEMP              0 ****  ****    0 ROOT
