@<TRIPOS>MOLECULE
4EA
   51    54     1     0     0
SMALL
bcc


@<TRIPOS>ATOM
      1 C1         -0.0570   -1.8820   -0.3740 ce        1 4EA     -0.126200
      2 C2          0.9100   -1.7560    0.5440 cf        1 4EA     -0.072200
      3 C3          1.5250   -0.5230    1.0240 ca        1 4EA     -0.045800
      4 C4          2.7850   -0.1260    0.5530 ca        1 4EA     -0.241800
      5 C7          0.9040    0.2540    2.0100 ca        1 4EA     -0.241800
      6 C8          1.5690    1.4010    2.4790 ca        1 4EA      0.401700
      7 N1          2.7760    1.7980    2.0330 nb        1 4EA     -0.651000
      8 C9          3.3640    1.0390    1.0870 ca        1 4EA      0.401700
      9 C10       -10.6290    2.7550   -5.7360 ca        1 4EA     -0.105000
     10 C11       -10.9430    1.4110   -5.8480 ca        1 4EA     -0.111000
     11 C12        -9.8860    0.4870   -5.7980 ca        1 4EA     -0.047200
     12 C13        -8.5200    0.9230   -5.6190 ca        1 4EA     -0.118800
     13 C14        -8.2450    2.2920   -5.5340 ca        1 4EA     -0.151000
     14 C15        -9.2970    3.1920   -5.5900 ca        1 4EA     -0.117000
     15 N2         -9.8860   -0.9100   -5.8960 na        1 4EA     -0.166400
     16 C16        -8.5770   -1.3600   -5.8020 cc        1 4EA     -0.040100
     17 C17        -7.7080   -0.2770   -5.6080 cd        1 4EA     -0.251400
     18 C18        -1.8520    1.2080   -2.6160 ca        1 4EA      0.380200
     19 N3         -0.5580    1.3280   -2.2720 nb        1 4EA     -0.632000
     20 C19        -0.0040    0.3390   -1.5480 ca        1 4EA      0.419200
     21 C20        -0.6980   -0.8230   -1.1310 ca        1 4EA     -0.137100
     22 C21        -2.0450   -0.9520   -1.5070 ca        1 4EA     -0.085000
     23 C22        -2.6230    0.0850   -2.2490 ca        1 4EA     -0.058200
     24 O1         -3.9890    0.0360   -2.5170 os        1 4EA     -0.376900
     25 C24        -4.2900   -0.1170   -3.9080 c3        1 4EA      0.103400
     26 C23        -5.8190   -0.2490   -3.9960 c3        1 4EA      0.117500
     27 C25        -6.2510   -0.3330   -5.4690 c3        1 4EA     -0.012200
     28 N4         -6.5060    0.8850   -3.2890 n4        1 4EA     -0.833600
     29 H1         -0.4390   -2.8950   -0.6050 ha        1 4EA      0.137000
     30 H2          1.3130   -2.6670    1.0300 ha        1 4EA      0.150000
     31 H4          3.3160   -0.7120   -0.2080 ha        1 4EA      0.148000
     32 H7         -0.0760   -0.0260    2.4170 ha        1 4EA      0.148000
     33 H8          1.1130    2.0370    3.2600 h4        1 4EA      0.031600
     34 H9          4.3560    1.3840    0.7430 h4        1 4EA      0.031600
     35 H14        -7.2080    2.6520   -5.4870 ha        1 4EA      0.116000
     36 H15        -9.0970    4.2740   -5.5360 ha        1 4EA      0.149000
     37 HN2       -10.6780   -1.4660   -6.0950 hn        1 4EA      0.321700
     38 H16        -8.3420   -2.4260   -5.8810 h4        1 4EA      0.184000
     39 H18        -2.2820    2.0360   -3.2040 h4        1 4EA      0.023100
     40 H19         1.0630    0.4780   -1.2790 h4        1 4EA      0.052100
     41 H21        -2.6350   -1.8310   -1.2130 ha        1 4EA      0.155000
     42 H241       -3.8230   -1.0540   -4.3110 h1        1 4EA      0.078200
     43 H242       -3.9140    0.7710   -4.4800 h1        1 4EA      0.078200
     44 H23        -6.1380   -1.1890   -3.4510 hx        1 4EA      0.114700
     45 H251       -5.7770    0.5050   -6.0510 hc        1 4EA      0.086700
     46 H252       -5.8480   -1.3000   -5.8760 hc        1 4EA      0.086700
     47 HN41       -6.2340    1.7760   -3.7160 hn        1 4EA      0.465133
     48 HN42       -6.2290    0.8850   -2.3030 hn        1 4EA      0.465133
     49 H10       -11.4350    3.5060   -5.7780 ha        1 4EA      0.156000
     50 H43        -7.5250    0.7780   -3.3860 hn        1 4EA      0.465133
     51 H11       -11.9820    1.0770   -5.9840 ha        1 4EA      0.156000
@<TRIPOS>BOND
     1    1    2 2   
     2    1   21 1   
     3    1   29 1   
     4    2    3 1   
     5    2   30 1   
     6    3    4 ar  
     7    3    5 ar  
     8    4    8 ar  
     9    4   31 1   
    10    5    6 ar  
    11    5   32 1   
    12    6    7 ar  
    13    6   33 1   
    14    7    8 ar  
    15    8   34 1   
    16    9   10 ar  
    17    9   14 ar  
    18    9   49 1   
    19   10   11 ar  
    20   10   51 1   
    21   11   12 ar  
    22   11   15 1   
    23   12   13 ar  
    24   12   17 1   
    25   13   14 ar  
    26   13   35 1   
    27   14   36 1   
    28   15   16 1   
    29   15   37 1   
    30   16   17 2   
    31   16   38 1   
    32   17   27 1   
    33   18   19 ar  
    34   18   23 ar  
    35   18   39 1   
    36   19   20 ar  
    37   20   21 ar  
    38   20   40 1   
    39   21   22 ar  
    40   22   23 ar  
    41   22   41 1   
    42   23   24 1   
    43   24   25 1   
    44   25   26 1   
    45   25   42 1   
    46   25   43 1   
    47   26   27 1   
    48   26   28 1   
    49   26   44 1   
    50   27   45 1   
    51   27   46 1   
    52   28   47 1   
    53   28   48 1   
    54   28   50 1   
@<TRIPOS>SUBSTRUCTURE
     1 4EA         1 TEMP              0 ****  ****    0 ROOT
