@<TRIPOS>MOLECULE
4EB
   67    69     1     0     0
SMALL
bcc


@<TRIPOS>ATOM
      1 C1          0.7360    0.1780   -0.7770 c3        1 4EB     -0.061800
      2 C2          2.0690    0.4860   -0.2090 ca        1 4EB     -0.056300
      3 C3          2.4970   -0.1310    0.9720 ca        1 4EB     -0.119000
      4 C4          3.7440    0.1720    1.5110 ca        1 4EB     -0.127000
      5 C5          4.5880    1.0870    0.8790 ca        1 4EB     -0.025100
      6 S6          6.1250    1.5490    1.4470 ss        1 4EB     -0.166000
      7 C7          6.5240    0.3690    2.7000 c3        1 4EB     -0.078300
      8 C8          8.0210    0.5210    2.9180 c3        1 4EB      0.192800
      9 N9          8.5200   -0.3460    3.9740 nh        1 4EB     -0.652600
     10 C10         9.8020   -0.3830    4.3530 ca        1 4EB      0.349600
     11 C11        10.7920    0.4650    3.7130 ca        1 4EB     -0.227000
     12 C12        12.0920    0.4760    4.0980 ca        1 4EB      0.065000
     13 C13        12.5920   -0.3540    5.1560 ca        1 4EB     -0.701500
     14 C14        11.6430   -1.2070    5.7760 ca        1 4EB      0.145000
     15 C15        10.3110   -1.2470    5.4110 ca        1 4EB     -0.289200
     16 N16         9.4380   -2.2010    6.1520 no        1 4EB      0.329200
     17 O17         8.2730   -2.2950    5.8710 o         1 4EB     -0.186500
     18 O18         9.9410   -2.8580    7.0190 o         1 4EB     -0.186500
     19 S19        14.0690   -0.3180    5.5780 s4        1 4EB      1.683300
     20 O20        14.9220    0.4690    4.8660 o         1 4EB     -0.442900
     21 O21        14.5090   -1.2670    6.4470 o         1 4EB     -0.442900
     22 N22        13.9970    1.2880    7.3770 n         1 4EB     -0.721000
     23 C23        13.0210    2.3410    7.2560 c         1 4EB      0.633700
     24 O24        11.8690    2.0910    7.6380 o         1 4EB     -0.523100
     25 C25        13.4380    3.6250    6.6650 ca        1 4EB     -0.203600
     26 C26        12.6910    4.7650    7.0000 ca        1 4EB     -0.076500
     27 C27        13.0460    6.0090    6.4870 ca        1 4EB     -0.132500
     28 C28        14.1450    6.1360    5.6240 cp        1 4EB      0.040000
     29 C29        14.8780    4.9870    5.2810 ca        1 4EB     -0.132500
     30 C30        14.5320    3.7440    5.7960 ca        1 4EB     -0.076500
     31 C31        14.5210    7.4410    5.0870 cp        1 4EB     -0.096000
     32 C32        15.8730    7.7860    4.9460 ca        1 4EB     -0.080500
     33 C33        16.2410    9.0270    4.4400 ca        1 4EB     -0.166000
     34 C34        15.2420    9.9450    4.0600 ca        1 4EB      0.156900
     35 F35        15.5900   11.1530    3.5630 f         1 4EB     -0.122900
     36 C36        13.8820    9.6070    4.1960 ca        1 4EB     -0.166000
     37 C37        13.5340    8.3640    4.7100 ca        1 4EB     -0.080500
     38 C38         4.1650    1.7170   -0.3060 ca        1 4EB     -0.048300
     39 C39         5.0360    2.7120   -0.9730 c3        1 4EB     -0.065800
     40 C40         2.9110    1.4090   -0.8380 ca        1 4EB     -0.116000
     41 H4          0.7480    0.2610   -1.8920 hc        1 4EB      0.053033
     42 H5         -0.0210    0.9020   -0.3820 hc        1 4EB      0.053033
     43 H6          0.4110   -0.8550   -0.5020 hc        1 4EB      0.053033
     44 H1          1.8430   -0.8570    1.4800 ha        1 4EB      0.142000
     45 H2          4.0510   -0.3160    2.4490 ha        1 4EB      0.123000
     46 H10         5.9530    0.5830    3.6390 h1        1 4EB      0.088700
     47 H11         6.2650   -0.6690    2.3740 h1        1 4EB      0.088700
     48 H12         8.2510    1.5930    3.1940 h1        1 4EB      0.087200
     49 H13         8.5640    0.2720    1.9580 h1        1 4EB      0.087200
     50 H14         7.8340   -0.9360    4.4180 hn        1 4EB      0.497800
     51 H16        10.4700    1.1240    2.8880 ha        1 4EB      0.178000
     52 H15        12.8090    1.1440    3.5790 ha        1 4EB      0.174000
     53 H17        12.0000   -1.8780    6.5940 ha        1 4EB      0.200000
     54 H18        14.9330    1.6550    7.4290 hn        1 4EB      0.307500
     55 H22        11.8250    4.6680    7.6760 ha        1 4EB      0.151500
     56 H21        12.4650    6.9010    6.7700 ha        1 4EB      0.158000
     57 H20        15.7340    5.0730    4.5920 ha        1 4EB      0.158000
     58 H19        15.1200    2.8630    5.4890 ha        1 4EB      0.151500
     59 H26        16.6570    7.0750    5.2500 ha        1 4EB      0.140500
     60 H25        17.3010    9.3020    4.3350 ha        1 4EB      0.161500
     61 H24        13.1090   10.3300    3.8960 ha        1 4EB      0.161500
     62 H23        12.4690    8.1010    4.8120 ha        1 4EB      0.140500
     63 H7          6.1110    2.3980   -0.9200 hc        1 4EB      0.055367
     64 H8          4.9350    3.7070   -0.4700 hc        1 4EB      0.055367
     65 H9          4.7580    2.8340   -2.0490 hc        1 4EB      0.055367
     66 H3          2.5820    1.9000   -1.7670 ha        1 4EB      0.144000
     67 H222       13.8090    0.7050    8.1780 hn        1 4EB      0.307500
@<TRIPOS>BOND
     1    1    2 1   
     2    1   41 1   
     3    1   42 1   
     4    1   43 1   
     5    2    3 ar  
     6    2   40 ar  
     7    3    4 ar  
     8    3   44 1   
     9    4    5 ar  
    10    4   45 1   
    11    5    6 1   
    12    5   38 ar  
    13    6    7 1   
    14    7    8 1   
    15    7   46 1   
    16    7   47 1   
    17    8    9 1   
    18    8   48 1   
    19    8   49 1   
    20    9   10 1   
    21    9   50 1   
    22   10   11 ar  
    23   10   15 ar  
    24   11   12 ar  
    25   11   51 1   
    26   12   13 ar  
    27   12   52 1   
    28   13   14 ar  
    29   13   19 1   
    30   14   15 ar  
    31   14   53 1   
    32   15   16 1   
    33   16   17 1   
    34   16   18 1   
    35   19   20 1   
    36   19   21 1   
    37   22   23 1   
    38   22   54 1   
    39   22   67 1   
    40   23   24 2   
    41   23   25 1   
    42   25   26 ar  
    43   25   30 ar  
    44   26   27 ar  
    45   26   55 1   
    46   27   28 ar  
    47   27   56 1   
    48   28   29 ar  
    49   28   31 1   
    50   29   30 ar  
    51   29   57 1   
    52   30   58 1   
    53   31   32 ar  
    54   31   37 ar  
    55   32   33 ar  
    56   32   59 1   
    57   33   34 ar  
    58   33   60 1   
    59   34   35 1   
    60   34   36 ar  
    61   36   37 ar  
    62   36   61 1   
    63   37   62 1   
    64   38   39 1   
    65   38   40 ar  
    66   39   63 1   
    67   39   64 1   
    68   39   65 1   
    69   40   66 1   
@<TRIPOS>SUBSTRUCTURE
     1 4EB         1 TEMP              0 ****  ****    0 ROOT
