@<TRIPOS>MOLECULE
4EB
   66    69     1     0     0
SMALL
bcc


@<TRIPOS>ATOM
      1 C1        -11.5010    3.2700    1.3620 c3        1 4EB     -0.054800
      2 C2        -10.2720    2.6660    0.8000 ca        1 4EB     -0.074300
      3 C3         -9.3410    2.0380    1.6340 ca        1 4EB     -0.118000
      4 C4         -8.1800    1.4840    1.1030 ca        1 4EB     -0.131000
      5 C5         -7.9240    1.5460   -0.2680 ca        1 4EB     -0.014100
      6 S6         -6.5520    0.9150   -1.0450 ss        1 4EB     -0.165000
      7 C7         -5.5590    0.2360    0.2490 c3        1 4EB     -0.068300
      8 C8         -4.3120   -0.3020   -0.4420 c3        1 4EB      0.218800
      9 N9         -3.3800   -0.8970    0.4850 nh        1 4EB     -0.744600
     10 C10        -2.1960   -1.4370    0.0900 ca        1 4EB      0.326600
     11 C11        -1.8270   -1.4460   -1.2960 ca        1 4EB     -0.259000
     12 C12        -0.6460   -2.0000   -1.7230 ca        1 4EB      0.058000
     13 C13         0.2660   -2.5910   -0.8250 ca        1 4EB     -0.480500
     14 C14        -0.0640   -2.6010    0.5270 ca        1 4EB      0.121000
     15 C15        -1.2620   -2.0410    1.0020 ca        1 4EB     -0.307200
     16 N16        -1.4990   -2.1140    2.4600 no        1 4EB      0.327200
     17 O17        -2.3730   -1.4580    2.9740 o         1 4EB     -0.220500
     18 O18        -0.8000   -2.8330    3.1220 o         1 4EB     -0.220500
     19 S19         1.6590   -3.3040   -1.3990 sy        1 4EB      1.525900
     20 O20         1.5590   -3.4380   -2.8040 o         1 4EB     -0.642300
     21 O21         1.9440   -4.4680   -0.6760 o         1 4EB     -0.642300
     22 N22         2.8320   -2.1580   -1.1570 n         1 4EB     -0.673300
     23 C23         3.3310   -1.6650    0.0490 c         1 4EB      0.708700
     24 O24         2.7800   -1.9890    1.1170 o         1 4EB     -0.578100
     25 C25         4.4920   -0.7380    0.0100 ca        1 4EB     -0.151600
     26 C26         4.5640    0.2680    0.9820 ca        1 4EB     -0.082500
     27 C27         5.6360    1.1550    0.9910 ca        1 4EB     -0.130000
     28 C28         6.6590    1.0420    0.0380 cp        1 4EB     -0.002000
     29 C29         6.5900    0.0210   -0.9210 ca        1 4EB     -0.130000
     30 C30         5.5140   -0.8630   -0.9370 ca        1 4EB     -0.082500
     31 C31         7.7860    1.9720    0.0480 cp        1 4EB     -0.066000
     32 C32         9.0890    1.5120   -0.1930 ca        1 4EB     -0.089000
     33 C33        10.1670    2.3890   -0.1840 ca        1 4EB     -0.166500
     34 C34         9.9450    3.7570    0.0660 ca        1 4EB      0.134900
     35 F35        10.9890    4.6190    0.0740 f         1 4EB     -0.136900
     36 C36         8.6420    4.2290    0.3080 ca        1 4EB     -0.166500
     37 C37         7.5770    3.3360    0.2990 ca        1 4EB     -0.089000
     38 C38        -8.8570    2.1750   -1.1160 ca        1 4EB     -0.059300
     39 C39        -8.5980    2.2360   -2.5730 c3        1 4EB     -0.063800
     40 C40       -10.0190    2.7280   -0.5750 ca        1 4EB     -0.116000
     41 H4        -11.3270    4.3540    1.5820 hc        1 4EB      0.046033
     42 H5        -12.3500    3.1930    0.6390 hc        1 4EB      0.046033
     43 H6        -11.7990    2.7630    2.3130 hc        1 4EB      0.046033
     44 H1         -9.5280    1.9790    2.7170 ha        1 4EB      0.136000
     45 H2         -7.4640    0.9950    1.7820 ha        1 4EB      0.129000
     46 H10        -5.2930    1.0180    1.0020 h1        1 4EB      0.081200
     47 H11        -6.1030   -0.5810    0.7830 h1        1 4EB      0.081200
     48 H12        -4.6190   -1.0780   -1.2050 h1        1 4EB      0.065200
     49 H13        -3.8020    0.5450   -0.9910 h1        1 4EB      0.065200
     50 H14        -3.6180   -0.8570    1.4550 hn        1 4EB      0.477800
     51 H16        -2.5060   -1.0010   -2.0400 ha        1 4EB      0.152000
     52 H15        -0.4020   -1.9990   -2.8040 ha        1 4EB      0.166000
     53 H17         0.6490   -3.0610    1.2510 ha        1 4EB      0.205000
     54 H18         3.2660   -1.7660   -1.9670 hn        1 4EB      0.337500
     55 H22         3.7710    0.3410    1.7440 ha        1 4EB      0.149500
     56 H21         5.6880    1.9420    1.7600 ha        1 4EB      0.144500
     57 H20         7.3900   -0.0810   -1.6700 ha        1 4EB      0.144500
     58 H19         5.4930   -1.6660   -1.6900 ha        1 4EB      0.149500
     59 H26         9.2630    0.4410   -0.3820 ha        1 4EB      0.142500
     60 H25        11.1890    2.0280   -0.3680 ha        1 4EB      0.152500
     61 H24         8.4780    5.2990    0.5010 ha        1 4EB      0.152500
     62 H23         6.5570    3.7070    0.4850 ha        1 4EB      0.142500
     63 H7         -8.6790    1.2120   -3.0200 hc        1 4EB      0.053033
     64 H8         -9.3290    2.9050   -3.0890 hc        1 4EB      0.053033
     65 H9         -7.5630    2.6200   -2.7690 hc        1 4EB      0.053033
     66 H3        -10.7460    3.2190   -1.2400 ha        1 4EB      0.136000
@<TRIPOS>BOND
     1    1    2 1   
     2    1   41 1   
     3    1   42 1   
     4    1   43 1   
     5    2    3 ar  
     6    2   40 ar  
     7    3    4 ar  
     8    3   44 1   
     9    4    5 ar  
    10    4   45 1   
    11    5    6 1   
    12    5   38 ar  
    13    6    7 1   
    14    7    8 1   
    15    7   46 1   
    16    7   47 1   
    17    8    9 1   
    18    8   48 1   
    19    8   49 1   
    20    9   10 1   
    21    9   50 1   
    22   10   11 ar  
    23   10   15 ar  
    24   11   12 ar  
    25   11   51 1   
    26   12   13 ar  
    27   12   52 1   
    28   13   14 ar  
    29   13   19 1   
    30   14   15 ar  
    31   14   53 1   
    32   15   16 1   
    33   16   17 1   
    34   16   18 1   
    35   19   20 2   
    36   19   21 2   
    37   19   22 1   
    38   22   23 1   
    39   22   54 1   
    40   23   24 2   
    41   23   25 1   
    42   25   26 ar  
    43   25   30 ar  
    44   26   27 ar  
    45   26   55 1   
    46   27   28 ar  
    47   27   56 1   
    48   28   29 ar  
    49   28   31 1   
    50   29   30 ar  
    51   29   57 1   
    52   30   58 1   
    53   31   32 ar  
    54   31   37 ar  
    55   32   33 ar  
    56   32   59 1   
    57   33   34 ar  
    58   33   60 1   
    59   34   35 1   
    60   34   36 ar  
    61   36   37 ar  
    62   36   61 1   
    63   37   62 1   
    64   38   39 1   
    65   38   40 ar  
    66   39   63 1   
    67   39   64 1   
    68   39   65 1   
    69   40   66 1   
@<TRIPOS>SUBSTRUCTURE
     1 4EB         1 TEMP              0 ****  ****    0 ROOT
