@<TRIPOS>MOLECULE
4EB
   67    69     1     0     0
SMALL
bcc


@<TRIPOS>ATOM
      1 C1          0.6420    0.2900   -0.5930 c3        1 4EB     -0.061800
      2 C2          2.0020    0.5620   -0.0730 ca        1 4EB     -0.056300
      3 C3          2.4710   -0.0950    1.0710 ca        1 4EB     -0.118000
      4 C4          3.7440    0.1750    1.5640 ca        1 4EB     -0.127000
      5 C5          4.5730    1.0970    0.9240 ca        1 4EB     -0.024100
      6 S6          6.1410    1.5230    1.4340 ss        1 4EB     -0.166000
      7 C7          6.5600    0.3320    2.6690 c3        1 4EB     -0.078300
      8 C8          8.0580    0.4910    2.8740 c3        1 4EB      0.192800
      9 N9          8.5750   -0.3890    3.9090 nu        1 4EB     -0.652600
     10 C10         9.8600   -0.4190    4.2770 ca        1 4EB      0.349600
     11 C11        10.8360    0.4500    3.6440 ca        1 4EB     -0.227000
     12 C12        12.1390    0.4690    4.0180 ca        1 4EB      0.065000
     13 C13        12.6560   -0.3730    5.0600 ca        1 4EB     -0.701500
     14 C14        11.7210   -1.2470    5.6720 ca        1 4EB      0.145000
     15 C15        10.3870   -1.2960    5.3160 ca        1 4EB     -0.289200
     16 N16         9.5300   -2.2720    6.0470 no        1 4EB      0.329200
     17 O17         8.3640   -2.3730    5.7740 o         1 4EB     -0.186500
     18 O18        10.0470   -2.9390    6.8980 o         1 4EB     -0.186500
     19 S19        14.1350   -0.3270    5.4720 s4        1 4EB      1.683300
     20 O20        14.9750    0.4820    4.7670 o         1 4EB     -0.442900
     21 O21        14.5930   -1.2850    6.3220 o         1 4EB     -0.442900
     22 N22        14.0570    1.2480    7.2980 nt        1 4EB     -0.721000
     23 C23        13.0670    2.2900    7.2020 c         1 4EB      0.633700
     24 O24        11.9210    2.0190    7.5880 o         1 4EB     -0.523100
     25 C25        13.4620    3.5890    6.6280 ca        1 4EB     -0.203600
     26 C26        12.7030    4.7130    6.9870 ca        1 4EB     -0.076500
     27 C27        13.0370    5.9690    6.4910 ca        1 4EB     -0.132500
     28 C28        14.1290    6.1260    5.6230 cp        1 4EB      0.040000
     29 C29        14.8750    4.9920    5.2570 ca        1 4EB     -0.132500
     30 C30        14.5480    3.7360    5.7540 ca        1 4EB     -0.076500
     31 C31        14.4830    7.4430    5.1040 cp        1 4EB     -0.096000
     32 C32        15.8300    7.8090    4.9590 ca        1 4EB     -0.080500
     33 C33        16.1770    9.0630    4.4710 ca        1 4EB     -0.166000
     34 C34        15.1640    9.9730    4.1120 ca        1 4EB      0.156900
     35 F35        15.4920   11.1930    3.6320 f         1 4EB     -0.122900
     36 C36        13.8090    9.6140    4.2520 ca        1 4EB     -0.166000
     37 C37        13.4810    8.3590    4.7490 ca        1 4EB     -0.080500
     38 C38         4.1090    1.7680   -0.2240 ca        1 4EB     -0.049300
     39 C39         4.9680    2.7690   -0.8990 c3        1 4EB     -0.065800
     40 C40         2.8300    1.4920   -0.7110 ca        1 4EB     -0.116000
     41 H4         -0.0860    1.0140   -0.1480 hc        1 4EB      0.052700
     42 H5          0.6090    0.4000   -1.7050 hc        1 4EB      0.052700
     43 H6          0.3110   -0.7450   -0.3290 hc        1 4EB      0.052700
     44 H1          1.8290   -0.8270    1.5840 ha        1 4EB      0.142000
     45 H2          4.0840   -0.3460    2.4710 ha        1 4EB      0.123000
     46 H10         5.9970    0.5290    3.6160 h1        1 4EB      0.088700
     47 H11         6.3050   -0.7050    2.3330 h1        1 4EB      0.088700
     48 H12         8.5920    0.2630    1.9040 h1        1 4EB      0.087200
     49 H13         8.2820    1.5610    3.1650 h1        1 4EB      0.087200
     50 H14         7.8990   -0.9940    4.3490 hn        1 4EB      0.497800
     51 H16        10.5000    1.1190    2.8320 ha        1 4EB      0.178000
     52 H15        12.8450    1.1530    3.5060 ha        1 4EB      0.174000
     53 H17        12.0920   -1.9280    6.4750 ha        1 4EB      0.200000
     54 H18        14.9880    1.6270    7.3490 hn        1 4EB      0.307500
     55 H22        11.8430    4.5940    7.6680 ha        1 4EB      0.151500
     56 H21        12.4470    6.8490    6.7930 ha        1 4EB      0.158000
     57 H20        15.7240    5.1000    4.5630 ha        1 4EB      0.158000
     58 H19        15.1460    2.8680    5.4290 ha        1 4EB      0.151500
     59 H26        16.6250    7.1030    5.2470 ha        1 4EB      0.140500
     60 H25        17.2330    9.3530    4.3630 ha        1 4EB      0.161500
     61 H24        13.0240   10.3320    3.9690 ha        1 4EB      0.161500
     62 H23        12.4210    8.0810    4.8540 ha        1 4EB      0.140500
     63 H7          4.9140    3.7470   -0.3560 hc        1 4EB      0.055367
     64 H8          4.6390    2.9360   -1.9540 hc        1 4EB      0.055367
     65 H9          6.0370    2.4310   -0.9110 hc        1 4EB      0.055367
     66 H3          2.4700    2.0140   -1.6110 ha        1 4EB      0.144000
     67 H222       13.8830    0.6490    8.0900 hn        1 4EB      0.307500
@<TRIPOS>BOND
     1    1    2 1   
     2    1   41 1   
     3    1   42 1   
     4    1   43 1   
     5    2    3 ar  
     6    2   40 ar  
     7    3    4 ar  
     8    3   44 1   
     9    4    5 ar  
    10    4   45 1   
    11    5    6 1   
    12    5   38 ar  
    13    6    7 1   
    14    7    8 1   
    15    7   46 1   
    16    7   47 1   
    17    8    9 1   
    18    8   48 1   
    19    8   49 1   
    20    9   10 1   
    21    9   50 1   
    22   10   11 ar  
    23   10   15 ar  
    24   11   12 ar  
    25   11   51 1   
    26   12   13 ar  
    27   12   52 1   
    28   13   14 ar  
    29   13   19 1   
    30   14   15 ar  
    31   14   53 1   
    32   15   16 1   
    33   16   17 1   
    34   16   18 1   
    35   19   20 1   
    36   19   21 1   
    37   22   23 1   
    38   22   54 1   
    39   22   67 1   
    40   23   24 2   
    41   23   25 1   
    42   25   26 ar  
    43   25   30 ar  
    44   26   27 ar  
    45   26   55 1   
    46   27   28 ar  
    47   27   56 1   
    48   28   29 ar  
    49   28   31 1   
    50   29   30 ar  
    51   29   57 1   
    52   30   58 1   
    53   31   32 ar  
    54   31   37 ar  
    55   32   33 ar  
    56   32   59 1   
    57   33   34 ar  
    58   33   60 1   
    59   34   35 1   
    60   34   36 ar  
    61   36   37 ar  
    62   36   61 1   
    63   37   62 1   
    64   38   39 1   
    65   38   40 ar  
    66   39   63 1   
    67   39   64 1   
    68   39   65 1   
    69   40   66 1   
@<TRIPOS>SUBSTRUCTURE
     1 4EB         1 TEMP              0 ****  ****    0 ROOT
