@<TRIPOS>MOLECULE
4EB
   66    58     1     0     0
SMALL
bcc


@<TRIPOS>ATOM
      1 C1        -10.7620   -0.8480   -0.7480 c3        1 4EB     -0.180000
      2 C2         -9.3930   -0.8090   -1.4540 c2        1 4EB     -0.066000
      3 C3         -9.0900    0.2340   -2.3230 c2        1 4EB     -0.119000
      4 C4         -7.8330    0.2990   -2.9200 c1        1 4EB     -0.132000
      5 C5         -6.8820   -0.6770   -2.6490 c1        1 4EB     -0.241000
      6 S6         -5.2410   -0.5670   -3.3870 ss        1 4EB      0.234000
      7 C7         -4.6450    1.1180   -3.2720 c3        1 4EB     -0.326000
      8 C8         -3.1230    1.1440   -3.5200 c3        1 4EB     -0.015000
      9 N9         -2.5000    2.0820   -2.6070 n3        1 4EB     -0.297000
     10 C10        -1.0690    2.0080   -2.3560 c2        1 4EB      0.243000
     11 C11        -0.1770    2.0300   -3.4210 c2        1 4EB     -0.258000
     12 C12         1.1950    2.0640   -3.1800 c1        1 4EB      0.056000
     13 C13         1.6730    2.0760   -1.8720 c1        1 4EB     -0.921000
     14 C14         0.7810    2.0540   -0.8070 c1        1 4EB      0.100000
     15 C15        -0.5920    2.0190   -1.0470 c1        1 4EB     -0.261000
     16 N16        -1.5050    1.9200    0.0470 no        1 4EB      0.582000
     17 O17        -1.1220    2.3310    1.2980 o         1 4EB     -0.369000
     18 O18        -2.6300    1.4790   -0.1340 o         1 4EB     -0.369000
     19 S19         3.4340    2.2190   -1.5630 s4        1 4EB      2.089800
     20 O20         3.7420    3.4250   -0.8450 o         1 4EB     -0.523900
     21 O21         4.1610    2.4290   -2.7830 o         1 4EB     -0.523900
     22 N22         3.9860    0.8830   -0.7570 n2        1 4EB     -0.858000
     23 C23         5.3900    0.6950   -0.5610 c2        1 4EB      0.373000
     24 O24         6.1670    0.9270   -1.4680 o         1 4EB     -0.317000
     25 C25         5.9050    0.1140    0.7560 c2        1 4EB     -0.127000
     26 C26         6.3640    0.9620    1.7570 c2        1 4EB     -0.070000
     27 C27         6.7730    0.4380    2.9770 c1        1 4EB     -0.128000
     28 C28         6.7230   -0.9310    3.1970 c1        1 4EB     -0.035000
     29 C29         6.2640   -1.7780    2.1960 c1        1 4EB     -0.110000
     30 C30         5.8550   -1.2550    0.9750 c1        1 4EB     -0.099000
     31 C31         7.1510   -1.4590    4.4180 c1        1 4EB     -0.035000
     32 C32         8.4830   -1.8110    4.5940 c1        1 4EB     -0.127000
     33 C33         8.9220   -2.2720    5.8250 c1        1 4EB     -0.127000
     34 C34         8.0320   -2.3820    6.8820 c1        1 4EB      0.099000
     35 F35         8.4590   -2.8140    8.0740 f         1 4EB     -0.102000
     36 C36         6.7010   -2.0300    6.7080 c1        1 4EB     -0.167000
     37 C37         6.2610   -1.5680    5.4750 c1        1 4EB     -0.110000
     38 C38        -7.1850   -1.7210   -1.7790 c1        1 4EB     -0.049000
     39 C39        -6.1360   -2.7810   -1.4670 c2        1 4EB     -0.189000
     40 C40        -8.4420   -1.7870   -1.1810 c2        1 4EB     -0.116000
     41 H4        -11.3350   -0.1300   -1.1050 hc        1 4EB      0.085667
     42 H5        -10.6370   -0.7170    0.2160 hc        1 4EB      0.085667
     43 H6        -11.1890   -1.7210   -0.9090 hc        1 4EB      0.085667
     44 H1         -9.7590    0.9220   -2.5140 ha        1 4EB      0.135000
     45 H2         -7.6200    1.0320   -3.5310 ha        1 4EB      0.126000
     46 H10        -5.0960    1.6710   -3.9450 h1        1 4EB      0.123500
     47 H11        -4.8350    1.4690   -2.3850 h1        1 4EB      0.123500
     48 H12        -2.9470    1.4200   -4.4410 h1        1 4EB      0.102500
     49 H13        -2.7530    0.2500   -3.3710 h1        1 4EB      0.102500
     50 H14        -2.9910    2.7660   -2.2510 hn        1 4EB      0.280000
     51 H16        -0.5100    2.0220   -4.3360 ha        1 4EB      0.151000
     52 H15         1.8240    2.0800   -3.9320 ha        1 4EB      0.170000
     53 H17         1.1160    2.0620    0.1110 ha        1 4EB      0.187000
     54 H18         3.3940    0.2750   -0.4240 hn        1 4EB      0.246000
     55 H22         6.4000    1.9240    1.6030 ha        1 4EB      0.161000
     56 H21         7.0960    1.0360    3.6810 ha        1 4EB      0.146000
     57 H20         6.2290   -2.7430    2.3510 ha        1 4EB      0.141500
     58 H19         5.5340   -1.8490    0.2740 ha        1 4EB      0.135000
     59 H26         9.1120   -1.7340    3.8470 ha        1 4EB      0.148500
     60 H25         9.8600   -2.5200    5.9490 ha        1 4EB      0.148500
     61 H24         6.0760   -2.1070    7.4510 ha        1 4EB      0.152000
     62 H23         5.3250   -1.3210    5.3530 ha        1 4EB      0.141500
     63 H7         -6.4700   -3.3740   -0.7550 ha        1 4EB      0.093000
     64 H8         -5.3120   -2.3460   -1.1700 ha        1 4EB      0.093000
     65 H9         -5.9550   -3.3090   -2.2750 ha        1 4EB      0.093000
     66 H3         -8.6550   -2.5190   -0.5710 ha        1 4EB      0.136000
@<TRIPOS>BOND
     1    1    2 1   
     2    1   41 1   
     3    1   42 1   
     4    1   43 1   
     5    2    3 1   
     6    2   40 1   
     7    3    4 1   
     8    3   44 1   
     9    4   45 1   
    10    5    6 1   
    11    5   38 1   
    12    6    7 1   
    13    7    8 1   
    14    7   46 1   
    15    7   47 1   
    16    8    9 1   
    17    8   48 1   
    18    8   49 1   
    19    9   10 1   
    20    9   50 1   
    21   10   11 1   
    22   10   15 1   
    23   11   12 1   
    24   11   51 1   
    25   12   52 1   
    26   13   14 1   
    27   13   19 1   
    28   14   53 1   
    29   15   16 1   
    30   16   17 1   
    31   16   18 1   
    32   19   20 1   
    33   19   21 1   
    34   22   23 1   
    35   22   54 1   
    36   23   24 1   
    37   23   25 1   
    38   25   26 1   
    39   25   30 1   
    40   26   27 1   
    41   26   55 1   
    42   27   56 1   
    43   28   29 1   
    44   29   57 1   
    45   30   58 1   
    46   31   37 1   
    47   32   33 1   
    48   32   59 1   
    49   33   60 1   
    50   34   35 1   
    51   34   36 1   
    52   36   61 1   
    53   37   62 1   
    54   38   40 1   
    55   39   63 1   
    56   39   64 1   
    57   39   65 1   
    58   40   66 1   
@<TRIPOS>SUBSTRUCTURE
     1 4EB         1 TEMP              0 ****  ****    0 ROOT
