@<TRIPOS>MOLECULE
4EB
   66    69     1     0     0
SMALL
bcc


@<TRIPOS>ATOM
      1 C1         -0.2860   -0.4730   -0.4690 c3        1 4EB     -0.054800
      2 C2          1.1710   -0.3600   -0.2300 ca        1 4EB     -0.074300
      3 C3          1.6730   -0.2550    1.0710 ca        1 4EB     -0.118000
      4 C4          3.0450   -0.1640    1.2920 ca        1 4EB     -0.131000
      5 C5          3.9400   -0.1770    0.2210 ca        1 4EB     -0.014100
      6 S6          5.6310   -0.0730    0.3490 ss        1 4EB     -0.165000
      7 C7          5.9610   -0.0130    2.0830 c3        1 4EB     -0.068300
      8 C8          7.4790    0.0330    2.2010 c3        1 4EB      0.218800
      9 N9          7.9250    0.1060    3.5720 nh        1 4EB     -0.744600
     10 C10         9.2390    0.1620    3.9140 ca        1 4EB      0.326600
     11 C11        10.2560    0.1380    2.9020 ca        1 4EB     -0.259000
     12 C12        11.5900    0.1760    3.2210 ca        1 4EB      0.058000
     13 C13        12.0340    0.2400    4.5580 ca        1 4EB     -0.480500
     14 C14        11.0730    0.2620    5.5640 ca        1 4EB      0.121000
     15 C15         9.6980    0.2270    5.2760 ca        1 4EB     -0.307200
     16 N16         8.7750    0.2550    6.4310 no        1 4EB      0.327200
     17 O17         7.5960    0.4660    6.2710 o         1 4EB     -0.220500
     18 O18         9.2230    0.0710    7.5310 o         1 4EB     -0.220500
     19 S19        13.6660    0.2240    4.8970 sy        1 4EB      1.525900
     20 O20        14.3730   -0.1400    3.7270 o         1 4EB     -0.642300
     21 O21        13.9180   -0.5360    6.0440 o         1 4EB     -0.642300
     22 N22        14.0450    1.8170    5.1520 n         1 4EB     -0.673300
     23 C23        13.6230    2.6570    6.1840 c         1 4EB      0.708700
     24 O24        12.7510    2.2610    6.9780 o         1 4EB     -0.578100
     25 C25        14.2170    4.0160    6.2780 ca        1 4EB     -0.151600
     26 C26        13.4070    5.0560    6.7540 ca        1 4EB     -0.082500
     27 C27        13.9200    6.3450    6.8670 ca        1 4EB     -0.130000
     28 C28        15.2530    6.6120    6.5210 cp        1 4EB     -0.002000
     29 C29        16.0630    5.5620    6.0620 ca        1 4EB     -0.130000
     30 C30        15.5490    4.2730    5.9390 ca        1 4EB     -0.082500
     31 C31        15.7930    7.9640    6.6410 cp        1 4EB     -0.066000
     32 C32        17.0900    8.1690    7.1310 ca        1 4EB     -0.089000
     33 C33        17.6110    9.4530    7.2500 ca        1 4EB     -0.166500
     34 C34        16.8260   10.5570    6.8700 ca        1 4EB      0.134900
     35 F35        17.3260   11.8110    6.9790 f         1 4EB     -0.136900
     36 C36        15.5230   10.3620    6.3760 ca        1 4EB     -0.166500
     37 C37        15.0180    9.0720    6.2680 ca        1 4EB     -0.089000
     38 C38         3.4430   -0.2800   -1.0940 ca        1 4EB     -0.059300
     39 C39         4.3860   -0.2840   -2.2360 c3        1 4EB     -0.063800
     40 C40         2.0670   -0.3710   -1.3050 ca        1 4EB     -0.116000
     41 H4         -0.5810   -1.5520   -0.5220 hc        1 4EB      0.046033
     42 H5         -0.5720    0.0140   -1.4330 hc        1 4EB      0.046033
     43 H6         -0.8670    0.0070    0.3560 hc        1 4EB      0.046033
     44 H1          0.9810   -0.2430    1.9260 ha        1 4EB      0.136000
     45 H2          3.4130   -0.0820    2.3260 ha        1 4EB      0.129000
     46 H10         5.5460   -0.9120    2.6020 h1        1 4EB      0.081200
     47 H11         5.4960    0.8920    2.5460 h1        1 4EB      0.081200
     48 H12         7.8650    0.9320    1.6350 h1        1 4EB      0.065200
     49 H13         7.9140   -0.8940    1.7220 h1        1 4EB      0.065200
     50 H14         7.2170    0.1620    4.2760 hn        1 4EB      0.477800
     51 H16         9.9640    0.0840    1.8420 ha        1 4EB      0.152000
     52 H15        12.3470    0.1420    2.4120 ha        1 4EB      0.166000
     53 H17        11.4070    0.3160    6.6260 ha        1 4EB      0.205000
     54 H18        14.6670    2.2510    4.5030 hn        1 4EB      0.337500
     55 H22        12.3670    4.8400    7.0490 ha        1 4EB      0.149500
     56 H21        13.2800    7.1560    7.2450 ha        1 4EB      0.144500
     57 H20        17.1120    5.7590    5.7920 ha        1 4EB      0.144500
     58 H19        16.2120    3.4640    5.5940 ha        1 4EB      0.149500
     59 H26        17.7030    7.3060    7.4350 ha        1 4EB      0.142500
     60 H25        18.6270    9.6140    7.6380 ha        1 4EB      0.152500
     61 H24        14.9170   11.2310    6.0800 ha        1 4EB      0.152500
     62 H23        13.9990    8.9190    5.8780 ha        1 4EB      0.142500
     63 H7          5.2090   -1.0240   -2.0580 hc        1 4EB      0.053367
     64 H8          3.8690   -0.5510   -3.1900 hc        1 4EB      0.053367
     65 H9          4.8490    0.7290   -2.3540 hc        1 4EB      0.053367
     66 H3          1.6810   -0.4520   -2.3330 ha        1 4EB      0.136000
@<TRIPOS>BOND
     1    1    2 1   
     2    1   41 1   
     3    1   42 1   
     4    1   43 1   
     5    2    3 ar  
     6    2   40 ar  
     7    3    4 ar  
     8    3   44 1   
     9    4    5 ar  
    10    4   45 1   
    11    5    6 1   
    12    5   38 ar  
    13    6    7 1   
    14    7    8 1   
    15    7   46 1   
    16    7   47 1   
    17    8    9 1   
    18    8   48 1   
    19    8   49 1   
    20    9   10 1   
    21    9   50 1   
    22   10   11 ar  
    23   10   15 ar  
    24   11   12 ar  
    25   11   51 1   
    26   12   13 ar  
    27   12   52 1   
    28   13   14 ar  
    29   13   19 1   
    30   14   15 ar  
    31   14   53 1   
    32   15   16 1   
    33   16   17 1   
    34   16   18 1   
    35   19   20 2   
    36   19   21 2   
    37   19   22 1   
    38   22   23 1   
    39   22   54 1   
    40   23   24 2   
    41   23   25 1   
    42   25   26 ar  
    43   25   30 ar  
    44   26   27 ar  
    45   26   55 1   
    46   27   28 ar  
    47   27   56 1   
    48   28   29 ar  
    49   28   31 1   
    50   29   30 ar  
    51   29   57 1   
    52   30   58 1   
    53   31   32 ar  
    54   31   37 ar  
    55   32   33 ar  
    56   32   59 1   
    57   33   34 ar  
    58   33   60 1   
    59   34   35 1   
    60   34   36 ar  
    61   36   37 ar  
    62   36   61 1   
    63   37   62 1   
    64   38   39 1   
    65   38   40 ar  
    66   39   63 1   
    67   39   64 1   
    68   39   65 1   
    69   40   66 1   
@<TRIPOS>SUBSTRUCTURE
     1 4EB         1 TEMP              0 ****  ****    0 ROOT
