@<TRIPOS>MOLECULE
4ED
   33    34     1     0     0
SMALL
bcc


@<TRIPOS>ATOM
      1 C10         0.4730    0.1890   -0.1620 c3        1 4ED     -0.021000
      2 C17         4.7620    0.5900   -5.8000 ca        1 4ED     -0.089000
      3 C02         7.1550    0.1910   -6.0200 ca        1 4ED     -0.076000
      4 C03         7.2570   -0.1290   -4.6730 ca        1 4ED     -0.076000
      5 C04         6.1010   -0.0930   -3.8680 ca        1 4ED     -0.059000
      6 N05         6.0540   -0.3900   -2.4940 n2        1 4ED     -0.099000
      7 C06         4.8070   -0.2490   -2.0830 c2        1 4ED     -0.248000
      8 C07         4.2400   -0.4460   -0.7220 c3        1 4ED     -0.164000
      9 C08         2.8170   -0.1230   -0.8630 c1        1 4ED     -0.024000
     10 C09         1.8910   -0.1280    0.2120 c2        1 4ED     -0.428000
     11 C11        -0.4730    0.2060    0.9770 c2        1 4ED     -0.227000
     12 C12        -0.1780   -0.1850    2.1990 c1        1 4ED     -0.050000
     13 N13         0.0090   -0.7060    3.3050 n2        1 4ED     -0.146000
     14 C14         2.2650   -0.3830    1.4680 c1        1 4ED      0.303000
     15 S15         3.6290    0.2330   -3.2560 ss        1 4ED      0.539000
     16 C16         4.8340    0.2720   -4.4400 ca        1 4ED     -0.368000
     17 C18         5.9070    0.5490   -6.5750 ca        1 4ED     -0.121000
     18 C19         8.3390   -0.9880   -7.8640 c3        1 4ED     -0.208000
     19 H1          0.1280   -0.5700   -0.9190 hc        1 4ED      0.117500
     20 H2          3.7970    0.8710   -6.2470 ha        1 4ED      0.134000
     21 H3          8.4150    1.1350   -7.4670 hc        1 4ED      0.086000
     22 H4          8.3330   -1.9610   -7.3180 hc        1 4ED      0.075333
     23 H5          9.2900    0.1080   -6.2640 hc        1 4ED      0.086000
     24 H6          8.2240   -0.4080   -4.2290 ha        1 4ED      0.147000
     25 H7          4.7680    0.2130    0.0240 hc        1 4ED      0.140500
     26 H8          4.3970   -1.5100   -0.3840 hc        1 4ED      0.140500
     27 H9          0.4610    1.1950   -0.6680 hc        1 4ED      0.117500
     28 H10        -1.4940    0.5550    0.7490 ha        1 4ED      0.167000
     29 H11         0.3550   -0.1450    4.0580 hn        1 4ED      0.191000
     30 H12         5.8550    0.7980   -7.6460 ha        1 4ED      0.132000
     31 H13         7.4290   -0.9420   -8.5090 hc        1 4ED      0.075333
     32 H14         9.2420   -0.9550   -8.5210 hc        1 4ED      0.075333
     33 C01         8.3620    0.1690   -6.8940 c3        1 4ED     -0.123000
@<TRIPOS>BOND
     1    1   10 1   
     2    1   11 1   
     3    1   19 1   
     4    1   27 1   
     5    2   16 1   
     6    2   17 1   
     7    2   20 1   
     8    3    4 1   
     9    3   17 1   
    10    3   33 1   
    11    4    5 1   
    12    4   24 1   
    13    5    6 1   
    14    5   16 1   
    15    6    7 1   
    16    7    8 1   
    17    7   15 1   
    18    8    9 1   
    19    8   25 1   
    20    8   26 1   
    21    9   10 1   
    22   10   14 1   
    23   11   12 1   
    24   11   28 1   
    25   12   13 1   
    26   13   29 1   
    27   15   16 1   
    28   17   30 1   
    29   18   22 1   
    30   18   31 1   
    31   18   32 1   
    32   18   33 1   
    33   21   33 1   
    34   23   33 1   
@<TRIPOS>SUBSTRUCTURE
     1 4ED         1 TEMP              0 ****  ****    0 ROOT
