@<TRIPOS>MOLECULE
4EE
   44    41     1     0     0
SMALL
bcc


@<TRIPOS>ATOM
      1 C10        -0.0840    0.8020    1.6700 c2        1 4EE     -0.133000
      2 N12         2.1260    0.3430    2.2490 na        1 4EE     -0.089000
      3 C13         3.4990    0.6920    2.0120 c2        1 4EE      0.005000
      4 C20         3.4580    2.7890    0.7080 c2        1 4EE     -0.130000
      5 C21         3.0540    3.3430   -0.4360 c2        1 4EE     -0.193000
      6 C22         6.3990    0.8370   -1.9330 c1        1 4EE      0.075000
      7 C24         4.8680    0.8760   -0.0040 c2        1 4EE      0.041000
      8 C26         6.0740   -1.1090   -0.4990 c1        1 4EE      0.072000
      9 C01        -1.7550   -1.3080   -9.6590 c3        1 4EE     -0.271000
     10 C02        -0.1870   -1.0310   -6.3140 c1        1 4EE     -0.079000
     11 C04        -1.7950   -0.0380   -4.8950 c3        1 4EE      0.063000
     12 C05        -3.3400    2.2160    1.1310 c1        1 4EE      0.207000
     13 C06        -2.2120    1.6670    0.8860 c1        1 4EE     -0.564000
     14 C07        -1.0540    1.0990    0.6000 c2        1 4EE      0.193000
     15 C08        -0.7370    0.1690   -2.6030 c1        1 4EE      0.153000
     16 C09        -0.7510   -0.1640   -3.8620 c2        1 4EE     -0.520000
     17 N11         1.1690    0.6120    1.3590 n2        1 4EE      0.006000
     18 N14         4.2370    0.2340    3.0620 n2        1 4EE     -0.057000
     19 N15         3.4480   -0.3780    3.9160 n2        1 4EE     -0.055000
     20 C16         2.1510   -0.3560    3.4910 c2        1 4EE     -0.523000
     21 S17         0.9680   -1.2440    4.4080 ss        1 4EE      1.373000
     22 C18        -0.3360   -0.9320    4.2750 c1        1 4EE     -1.031000
     23 C19         3.9730    1.4340    0.8430 c2        1 4EE      0.001000
     24 C23         5.5400    1.4670   -1.1430 c2        1 4EE     -0.451000
     25 H2          3.4050    3.3480    1.6610 ha        1 4EE      0.143000
     26 H3          3.0630    2.8110   -1.3970 ha        1 4EE      0.122500
     27 H4          2.6700    4.3710   -0.4740 ha        1 4EE      0.122500
     28 H5          8.0040   -1.1210    0.8890 ha        1 4EE      0.006000
     29 H6          8.1670   -0.5690    0.5290 ha        1 4EE      0.006000
     30 H7          6.5830   -0.5620   -1.4340 ha        1 4EE      0.109000
     31 H8         -0.0450   -1.3650   -7.3720 ha        1 4EE      0.067000
     32 H9         -1.8470   -0.4590  -10.3710 hc        1 4EE      0.067750
     33 H10        -2.4780   -2.1050   -9.9380 hc        1 4EE      0.067750
     34 H11        -1.9730   -0.9530   -8.6270 hc        1 4EE      0.067750
     35 H12        -0.7210   -1.7150   -9.7000 hc        1 4EE      0.067750
     36 H13        -2.7080   -0.6410   -4.6410 h1        1 4EE      0.114000
     37 H14        -2.0680    1.0350   -5.0840 h1        1 4EE      0.114000
     38 H15        -0.7810    0.8200   -0.4460 ha        1 4EE      0.190000
     39 H16         0.1960   -0.6400   -4.2650 ha        1 4EE      0.269000
     40 H18        -0.5160    0.7690    2.6950 h4        1 4EE      0.169000
     41 H19        -1.3800   -0.7250    4.2150 ha        1 4EE      0.218000
     42 H20         5.3120    2.5370   -1.3270 ha        1 4EE      0.214000
     43 O25         5.2450   -0.4940    0.2430 os        1 4EE     -0.056000
     44 O03        -1.3910   -0.5390   -6.2040 os        1 4EE     -0.172000
@<TRIPOS>BOND
     1    1   14 1   
     2    1   17 1   
     3    1   40 1   
     4    2    3 1   
     5    2   17 1   
     6    2   20 1   
     7    3   18 1   
     8    3   23 1   
     9    4    5 1   
    10    4   23 1   
    11    4   25 1   
    12    5   26 1   
    13    5   27 1   
    14    6   24 1   
    15    7   23 1   
    16    7   24 1   
    17    7   43 1   
    18    8   30 1   
    19    8   43 1   
    20    9   32 1   
    21    9   33 1   
    22    9   34 1   
    23    9   35 1   
    24   10   31 1   
    25   10   44 1   
    26   11   16 1   
    27   11   36 1   
    28   11   37 1   
    29   11   44 1   
    30   12   13 1   
    31   13   14 1   
    32   14   38 1   
    33   15   16 1   
    34   16   39 1   
    35   18   19 1   
    36   19   20 1   
    37   20   21 1   
    38   21   22 1   
    39   22   41 1   
    40   24   42 1   
    41   28   29 1   
@<TRIPOS>SUBSTRUCTURE
     1 4EE         1 TEMP              0 ****  ****    0 ROOT
