@<TRIPOS>MOLECULE
4EE
   44    47     1     0     0
SMALL
bcc


@<TRIPOS>ATOM
      1 C10         0.3090   -0.3290   -0.0810 ce        1 4EE      0.437900
      2 N12         2.2840   -0.4870    1.0720 na        1 4EE     -0.130600
      3 C13         3.6790   -0.3070    1.3390 cc        1 4EE      0.504000
      4 C20         4.7750   -0.2840   -0.8790 ca        1 4EE     -0.057000
      5 C21         5.7040    0.2420   -1.7740 ca        1 4EE     -0.175000
      6 C22         6.4850    1.3370   -1.4060 ca        1 4EE     -0.075000
      7 C24         5.4030    1.3950    0.7530 ca        1 4EE      0.169100
      8 C26         6.0730    2.9160    2.4570 c3        1 4EE      0.112700
      9 C01        -3.0480    0.4220   -7.1620 c3        1 4EE     -0.101100
     10 C02        -2.0460    0.0100   -6.1090 c3        1 4EE      0.127400
     11 C04        -1.7860    0.2640   -3.7500 ca        1 4EE      0.151100
     12 C05        -2.3030    0.7920   -2.5490 ca        1 4EE     -0.188500
     13 C06        -1.6100    0.5940   -1.3650 ca        1 4EE     -0.062000
     14 C07        -0.4030   -0.1240   -1.3540 ca        1 4EE     -0.176900
     15 C08         0.1050   -0.6370   -2.5530 ca        1 4EE     -0.062000
     16 C09        -0.5830   -0.4510   -3.7510 ca        1 4EE     -0.188500
     17 N11         1.6250   -0.2620   -0.0660 n2        1 4EE     -0.475100
     18 N14         3.9130   -0.7560    2.6040 nd        1 4EE     -0.324000
     19 N15         2.7980   -1.1970    3.1570 nd        1 4EE     -0.306000
     20 C16         1.7670   -1.0650    2.2770 cc        1 4EE      0.383800
     21 S17         0.1560   -1.5150    2.4270 ss        1 4EE     -0.138400
     22 C18        -0.5700   -0.5800    1.1080 c3        1 4EE     -0.135600
     23 C19         4.6190    0.2750    0.3930 ca        1 4EE     -0.159500
     24 C23         6.3410    1.9180   -0.1490 ca        1 4EE     -0.214000
     25 H2          4.1600   -1.1510   -1.1690 ha        1 4EE      0.144000
     26 H3          5.8210   -0.2090   -2.7700 ha        1 4EE      0.137000
     27 H4          7.2220    1.7480   -2.1120 ha        1 4EE      0.134000
     28 H5          5.7380    3.1070    3.5090 h1        1 4EE      0.047367
     29 H6          5.9890    3.8450    1.8420 h1        1 4EE      0.047367
     30 H7          7.1190    2.5260    2.4410 h1        1 4EE      0.047367
     31 H8         -2.7030    0.0540   -8.1570 hc        1 4EE      0.051033
     32 H9         -3.1460    1.5340   -7.1950 hc        1 4EE      0.051033
     33 H10        -4.0520   -0.0120   -6.9380 hc        1 4EE      0.051033
     34 H11        -1.0380    0.4600   -6.3070 h1        1 4EE      0.041200
     35 H12        -1.9560   -1.1070   -6.0480 h1        1 4EE      0.041200
     36 H13        -3.2470    1.3550   -2.5690 ha        1 4EE      0.149000
     37 H14        -2.0100    1.0120   -0.4280 ha        1 4EE      0.142500
     38 H15         1.0540   -1.1960   -2.5600 ha        1 4EE      0.142500
     39 H16        -0.1680   -0.8660   -4.6810 ha        1 4EE      0.149000
     40 H18        -0.9180    0.4120    1.5000 h1        1 4EE      0.100200
     41 H19        -1.4760   -1.1630    0.8000 h1        1 4EE      0.100200
     42 H20         6.9600    2.7830    0.1270 ha        1 4EE      0.141000
     43 O25         5.1540    1.9310    1.9970 os        1 4EE     -0.307900
     44 O03        -2.5550    0.5120   -4.8640 os        1 4EE     -0.326900
@<TRIPOS>BOND
     1    1   14 1   
     2    1   17 2   
     3    1   22 1   
     4    2    3 1   
     5    2   17 1   
     6    2   20 1   
     7    3   18 2   
     8    3   23 1   
     9    4    5 ar  
    10    4   23 ar  
    11    4   25 1   
    12    5    6 ar  
    13    5   26 1   
    14    6   24 ar  
    15    6   27 1   
    16    7   23 ar  
    17    7   24 ar  
    18    7   43 1   
    19    8   28 1   
    20    8   29 1   
    21    8   30 1   
    22    8   43 1   
    23    9   10 1   
    24    9   31 1   
    25    9   32 1   
    26    9   33 1   
    27   10   34 1   
    28   10   35 1   
    29   10   44 1   
    30   11   12 ar  
    31   11   16 ar  
    32   11   44 1   
    33   12   13 ar  
    34   12   36 1   
    35   13   14 ar  
    36   13   37 1   
    37   14   15 ar  
    38   15   16 ar  
    39   15   38 1   
    40   16   39 1   
    41   18   19 1   
    42   19   20 2   
    43   20   21 1   
    44   21   22 1   
    45   22   40 1   
    46   22   41 1   
    47   24   42 1   
@<TRIPOS>SUBSTRUCTURE
     1 4EE         1 TEMP              0 ****  ****    0 ROOT
