@<TRIPOS>MOLECULE
4EE
   44    41     1     0     0
SMALL
bcc


@<TRIPOS>ATOM
      1 C10         0.1510   -0.7180    0.4310 c2        1 4EE     -0.087000
      2 N12         1.7330    0.7340    1.3210 na        1 4EE     -0.076000
      3 C13         2.9390    1.4380    1.0240 c2        1 4EE     -0.003000
      4 C20         3.3520    1.1180   -1.3910 c2        1 4EE     -0.139000
      5 C21         3.6020    0.2150   -2.3410 c2        1 4EE     -0.197000
      6 C22         7.5000    0.1750   -0.2380 c1        1 4EE      0.067000
      7 C24         5.1620    0.7660    0.2670 c2        1 4EE      0.035000
      8 C26         6.6940    0.4220    2.0500 c1        1 4EE      0.068000
      9 C01        -2.2740    2.2890   -7.0480 c3        1 4EE     -0.280000
     10 C02        -1.7860   -0.4190   -6.9200 c1        1 4EE      0.051000
     11 C04        -1.0410   -0.8290   -4.6870 c2        1 4EE      0.221000
     12 C05        -2.4160   -1.9470   -1.5770 c1        1 4EE     -0.207000
     13 C06        -1.3880   -1.9720   -0.9640 c1        1 4EE     -0.171000
     14 C07        -0.1540   -2.0330   -0.2380 c3        1 4EE     -0.026000
     15 C08         1.4230   -0.0590   -4.9400 c1        1 4EE      0.228000
     16 C09         0.2100   -0.4310   -4.8450 c1        1 4EE     -0.650000
     17 N11         1.3870   -0.4060    0.6990 n2        1 4EE     -0.039000
     18 N14         3.0320    2.4960    1.8870 n2        1 4EE     -0.062000
     19 N15         2.0000    2.4940    2.6910 n2        1 4EE     -0.054000
     20 C16         1.1640    1.4450    2.4120 c2        1 4EE     -0.546000
     21 S17        -0.1920    1.1480    3.4440 ss        1 4EE      1.384000
     22 C18        -1.2140    0.4110    2.9640 c1        1 4EE     -1.053000
     23 C19         3.8800    1.0720   -0.0350 c2        1 4EE      0.008000
     24 C23         6.2710    0.4900   -0.6240 c2        1 4EE     -0.448000
     25 H2          2.6880    1.9790   -1.5870 ha        1 4EE      0.139000
     26 H3          4.2350   -0.6680   -2.1750 ha        1 4EE      0.132000
     27 H4          3.1670    0.2970   -3.3500 ha        1 4EE      0.132000
     28 H5          7.4950    2.5640    2.7010 ha        1 4EE      0.005500
     29 H6          7.7660    2.5660    2.0780 ha        1 4EE      0.005500
     30 H7          7.5590    0.1890    1.2560 ha        1 4EE      0.108000
     31 H8         -0.7730   -0.0620   -7.2130 ha        1 4EE      0.053000
     32 H9         -1.9800    1.8990   -6.0480 hc        1 4EE      0.072500
     33 H10        -2.8380    3.2390   -6.9160 hc        1 4EE      0.072500
     34 H11        -2.9210    1.5460   -7.5680 hc        1 4EE      0.072500
     35 H12        -1.3620    2.4810   -7.6540 hc        1 4EE      0.072500
     36 H13        -1.4970   -1.2220   -3.7550 h4        1 4EE      0.183000
     37 H14        -3.3390   -1.9350   -2.1010 ha        1 4EE      0.231000
     38 H15         0.6780   -2.3440   -0.9320 hc        1 4EE      0.132500
     39 H16        -0.2290   -2.8220    0.5670 hc        1 4EE      0.132500
     40 H18        -0.7450   -0.1070    0.6770 h4        1 4EE      0.155000
     41 H19        -2.0510   -0.1610    2.6370 ha        1 4EE      0.212000
     42 H20         6.0450    0.5820   -1.7060 ha        1 4EE      0.215000
     43 O25         5.5180    0.7130    1.6650 os        1 4EE     -0.054000
     44 O03        -1.9990   -0.8120   -5.7050 os        1 4EE     -0.097000
@<TRIPOS>BOND
     1    1   14 1   
     2    1   17 1   
     3    1   40 1   
     4    2    3 1   
     5    2   17 1   
     6    2   20 1   
     7    3   18 1   
     8    3   23 1   
     9    4    5 1   
    10    4   23 1   
    11    4   25 1   
    12    5   26 1   
    13    5   27 1   
    14    6   24 1   
    15    7   23 1   
    16    7   24 1   
    17    7   43 1   
    18    8   30 1   
    19    8   43 1   
    20    9   32 1   
    21    9   33 1   
    22    9   34 1   
    23    9   35 1   
    24   10   31 1   
    25   10   44 1   
    26   11   16 1   
    27   11   36 1   
    28   11   44 1   
    29   12   13 1   
    30   12   37 1   
    31   13   14 1   
    32   14   38 1   
    33   14   39 1   
    34   15   16 1   
    35   18   19 1   
    36   19   20 1   
    37   20   21 1   
    38   21   22 1   
    39   22   41 1   
    40   24   42 1   
    41   28   29 1   
@<TRIPOS>SUBSTRUCTURE
     1 4EE         1 TEMP              0 ****  ****    0 ROOT
