@<TRIPOS>MOLECULE
4EH
   44    47     1     0     0
SMALL
bcc


@<TRIPOS>ATOM
      1 O3'        -0.8420   -0.2770    0.2110 oh        1 4EH     -0.590800
      2 C3'         0.5440    0.0140    0.2070 c3        1 4EH      0.122100
      3 C4'         1.0680   -0.2160    1.6400 c3        1 4EH     -0.085700
      4 C5'         2.1340   -1.2840    1.6560 c3        1 4EH     -0.025300
      5 S           2.4390   -1.6860    3.3540 ss        1 4EH     -0.231400
      6 C2'         0.8290    1.5050   -0.1080 c3        1 4EH      0.118800
      7 N1'         1.6390    2.0880    0.9580 n3        1 4EH     -0.696600
      8 C1'         1.5960    1.1640    2.0950 c3        1 4EH      0.152800
      9 C10         3.0020    2.4400    0.5690 c3        1 4EH      0.233000
     10 C9          3.0830    3.4750   -0.4850 cc        1 4EH     -0.249000
     11 C4          3.1180    4.9120   -0.2670 ca        1 4EH      0.466100
     12 N3          3.0940    5.6660    0.8600 nb        1 4EH     -0.665000
     13 C2          3.1590    6.9960    0.6390 ca        1 4EH      0.637900
     14 C8          3.1720    3.2740   -1.8640 cd        1 4EH     -0.092100
     15 N7          3.2040    4.4930   -2.5450 na        1 4EH     -0.162400
     16 C5          3.2140    5.5110   -1.5910 ca        1 4EH     -0.325800
     17 C6          3.2620    6.9380   -1.6920 ca        1 4EH      0.649200
     18 N1          3.2280    7.6740   -0.5460 nb        1 4EH     -0.748000
     19 N6          3.4240    7.5390   -2.9530 nh        1 4EH     -0.915500
     20 C6'         3.6280   -2.8890    3.3370 ca        1 4EH      0.366300
     21 C9'         4.0320   -3.3930    4.6140 ca        1 4EH      0.290900
     22 N3'         4.9660   -4.3470    4.7440 nb        1 4EH     -0.614000
     23 C8'         5.5140   -4.8160    3.6020 ca        1 4EH      0.260900
     24 C7'         5.1200   -4.3230    2.3330 ca        1 4EH      0.299900
     25 N2'         4.1840   -3.3650    2.1950 nb        1 4EH     -0.658000
     26 H1         -1.1980    0.0410   -0.6270 ho        1 4EH      0.403000
     27 H2          1.0580   -0.6540   -0.5360 h1        1 4EH      0.039700
     28 H3          0.2100   -0.5270    2.2970 hc        1 4EH      0.097700
     29 H4          1.7840   -2.1910    1.1040 h1        1 4EH      0.080700
     30 H5          3.0690   -0.9260    1.1610 h1        1 4EH      0.080700
     31 H6          1.3200    1.6060   -1.1120 h1        1 4EH      0.055200
     32 H7         -0.1420    2.0730   -0.1320 h1        1 4EH      0.055200
     33 H9          2.5950    1.0600    2.5980 h1        1 4EH      0.064200
     34 H10         0.8770    1.6090    2.8370 h1        1 4EH      0.064200
     35 H11         3.5860    1.5330    0.2240 h1        1 4EH      0.046200
     36 H12         3.5070    2.8450    1.4950 h1        1 4EH      0.046200
     37 H13         3.1450    7.6440    1.5420 h5        1 4EH      0.053100
     38 H14         3.1960    2.3320   -2.4190 h4        1 4EH      0.169000
     39 H15         3.5100    4.6090   -3.4760 hn        1 4EH      0.300700
     40 H16         3.4130    8.5380   -2.9420 hn        1 4EH      0.397800
     41 H17         2.8100    7.1580   -3.6410 hn        1 4EH      0.397800
     42 H18         3.5780   -3.0040    5.5430 h4        1 4EH      0.043100
     43 H19         6.2810   -5.6000    3.7040 h4        1 4EH      0.035100
     44 H20         5.5690   -4.7080    1.4010 h4        1 4EH      0.033100
@<TRIPOS>BOND
     1    1    2 1   
     2    1   26 1   
     3    2    3 1   
     4    2    6 1   
     5    2   27 1   
     6    3    4 1   
     7    3    8 1   
     8    3   28 1   
     9    4    5 1   
    10    4   29 1   
    11    4   30 1   
    12    5   20 1   
    13    6    7 1   
    14    6   31 1   
    15    6   32 1   
    16    7    8 1   
    17    7    9 1   
    18    8   33 1   
    19    8   34 1   
    20    9   10 1   
    21    9   35 1   
    22    9   36 1   
    23   10   11 1   
    24   10   14 2   
    25   11   12 ar  
    26   11   16 ar  
    27   12   13 ar  
    28   13   18 ar  
    29   13   37 1   
    30   14   15 1   
    31   14   38 1   
    32   15   16 1   
    33   15   39 1   
    34   16   17 ar  
    35   17   18 ar  
    36   17   19 1   
    37   19   40 1   
    38   19   41 1   
    39   20   21 ar  
    40   20   25 ar  
    41   21   22 ar  
    42   21   42 1   
    43   22   23 ar  
    44   23   24 ar  
    45   23   43 1   
    46   24   25 ar  
    47   24   44 1   
@<TRIPOS>SUBSTRUCTURE
     1 4EH         1 TEMP              0 ****  ****    0 ROOT
