@<TRIPOS>MOLECULE
4EH
   44    47     1     0     0
SMALL
bcc


@<TRIPOS>ATOM
      1 O3'        -0.8230   -0.3450    0.1550 oh        1 4EH     -0.590800
      2 C3'         0.5580   -0.0270    0.1720 c3        1 4EH      0.122100
      3 C4'         1.0640   -0.2500    1.6120 c3        1 4EH     -0.085700
      4 C5'         2.1520   -1.2950    1.6410 c3        1 4EH     -0.025300
      5 S           2.4410   -1.6940    3.3430 ss        1 4EH     -0.231400
      6 C2'         0.8180    1.4700   -0.1360 c3        1 4EH      0.119800
      7 N1'         1.5980    2.0670    0.9440 n3        1 4EH     -0.695600
      8 C1'         1.5560    1.1390    2.0790 c3        1 4EH      0.152800
      9 C10         2.9590    2.4490    0.5790 c3        1 4EH      0.233000
     10 C9          3.0370    3.4850   -0.4740 cc        1 4EH     -0.249000
     11 C4          3.0420    4.9220   -0.2580 ca        1 4EH      0.466100
     12 N3          2.9580    5.6780    0.8660 nb        1 4EH     -0.665000
     13 C2          2.9920    7.0080    0.6440 ca        1 4EH      0.636900
     14 C8          3.1570    3.2840   -1.8510 cd        1 4EH     -0.091100
     15 N7          3.2870    4.5020   -2.5230 na        1 4EH     -0.163400
     16 C5          3.1770    5.5220   -1.5780 ca        1 4EH     -0.325800
     17 C6          3.2150    6.9490   -1.6790 ca        1 4EH      0.649200
     18 N1          3.1200    7.6860   -0.5370 nb        1 4EH     -0.748000
     19 N6          3.2670    7.5540   -2.9470 nv        1 4EH     -0.915500
     20 C6'         3.6550   -2.8720    3.3410 ca        1 4EH      0.366300
     21 C9'         4.0510   -3.3710    4.6220 ca        1 4EH      0.290900
     22 N3'         5.0030   -4.3060    4.7640 nb        1 4EH     -0.614000
     23 C8'         5.5760   -4.7620    3.6280 ca        1 4EH      0.260900
     24 C7'         5.1910   -4.2740    2.3550 ca        1 4EH      0.299900
     25 N2'         4.2370   -3.3360    2.2060 nb        1 4EH     -0.658000
     26 H1         -1.1750   -0.0270   -0.6850 ho        1 4EH      0.403000
     27 H2          1.0940   -0.6840   -0.5650 h1        1 4EH      0.039700
     28 H3          0.2030   -0.5820    2.2550 hc        1 4EH      0.097700
     29 H4          3.0860   -0.9160    1.1600 h1        1 4EH      0.080700
     30 H5          1.8290   -2.2090    1.0830 h1        1 4EH      0.080700
     31 H6          1.3250    1.5810   -1.1320 h1        1 4EH      0.054700
     32 H7         -0.1630    2.0190   -0.1760 h1        1 4EH      0.054700
     33 H9          0.8150    1.5680    2.8090 h1        1 4EH      0.064200
     34 H10         2.5490    1.0550    2.5980 h1        1 4EH      0.064200
     35 H11         3.4380    2.8650    1.5150 h1        1 4EH      0.046200
     36 H12         3.5700    1.5560    0.2460 h1        1 4EH      0.046200
     37 H13         2.9140    7.6570    1.5430 h5        1 4EH      0.053100
     38 H14         3.1970    2.3420   -2.4050 h4        1 4EH      0.168000
     39 H15         3.1490    4.6280   -3.4920 hn        1 4EH      0.300700
     40 H16         3.3250    8.5510   -2.9300 hn        1 4EH      0.397800
     41 H17         3.9550    7.1410   -3.5410 hn        1 4EH      0.397800
     42 H18         3.5770   -2.9940    5.5450 h4        1 4EH      0.043100
     43 H19         6.3580   -5.5300    3.7410 h4        1 4EH      0.035100
     44 H20         5.6600   -4.6480    1.4290 h4        1 4EH      0.033100
@<TRIPOS>BOND
     1    1    2 1   
     2    1   26 1   
     3    2    3 1   
     4    2    6 1   
     5    2   27 1   
     6    3    4 1   
     7    3    8 1   
     8    3   28 1   
     9    4    5 1   
    10    4   29 1   
    11    4   30 1   
    12    5   20 1   
    13    6    7 1   
    14    6   31 1   
    15    6   32 1   
    16    7    8 1   
    17    7    9 1   
    18    8   33 1   
    19    8   34 1   
    20    9   10 1   
    21    9   35 1   
    22    9   36 1   
    23   10   11 1   
    24   10   14 2   
    25   11   12 ar  
    26   11   16 ar  
    27   12   13 ar  
    28   13   18 ar  
    29   13   37 1   
    30   14   15 1   
    31   14   38 1   
    32   15   16 1   
    33   15   39 1   
    34   16   17 ar  
    35   17   18 ar  
    36   17   19 1   
    37   19   40 1   
    38   19   41 1   
    39   20   21 ar  
    40   20   25 ar  
    41   21   22 ar  
    42   21   42 1   
    43   22   23 ar  
    44   23   24 ar  
    45   23   43 1   
    46   24   25 ar  
    47   24   44 1   
@<TRIPOS>SUBSTRUCTURE
     1 4EH         1 TEMP              0 ****  ****    0 ROOT
