@<TRIPOS>MOLECULE
4EJ
   40    43     1     0     0
SMALL
bcc


@<TRIPOS>ATOM
      1 C1          0.0000    0.0000    0.0000 ca        1 4EJ     -0.014000
      2 C2          1.3990    0.0000    0.0000 ca        1 4EJ     -0.049000
      3 C3          2.0810    0.0000    1.1820 ca        1 4EJ     -0.117500
      4 C11         6.0640    0.2660    4.7280 cc        1 4EJ     -0.302300
      5 C12         5.7730    0.3140    3.3520 cc        1 4EJ      0.639200
      6 C13         6.5160    0.4990    0.9990 c3        1 4EJ      0.109100
      7 C14         7.8020    0.6450    0.2270 ca        1 4EJ     -0.137300
      8 C15         8.4900   -0.4790   -0.1890 ca        1 4EJ     -0.094000
      9 C16         9.6690   -0.3450   -0.8970 ca        1 4EJ     -0.089500
     10 C17        10.1620    0.9140   -1.1880 ca        1 4EJ     -0.128000
     11 C18         9.4730    2.0380   -0.7710 ca        1 4EJ     -0.089500
     12 C19         8.2910    1.9040   -0.0690 ca        1 4EJ     -0.094000
     13 C          -0.7160   -0.0000   -1.2400 cg        1 4EJ      0.236800
     14 C6         -0.6990   -0.0050    1.2120 ca        1 4EJ     -0.049000
     15 C5         -0.0170   -0.0100    2.3940 ca        1 4EJ     -0.117500
     16 C4          1.3830    0.0000    2.3940 ca        1 4EJ      0.006200
     17 C7          2.1200   -0.0050    3.6710 cc        1 4EJ     -0.334300
     18 N4          3.4780    0.0990    3.8330 na        1 4EJ      0.753200
     19 C9          3.7280    0.0500    5.1770 cd        1 4EJ     -0.347300
     20 N1          2.5700   -0.0800    5.8170 nc        1 4EJ     -0.177600
     21 C8          1.5780   -0.1160    4.9350 cd        1 4EJ      0.032600
     22 N3          4.5340    0.2340    2.9260 nd        1 4EJ     -0.755800
     23 C10         5.0570    0.1360    5.6330 cd        1 4EJ      0.054000
     24 H           1.6620   -0.4510   -0.9490 ha        1 4EJ      0.113500
     25 H1          3.1020   -0.0570    1.5410 ha        1 4EJ      0.137500
     26 H6          7.0270    0.4230    5.1980 ha        1 4EJ      0.132000
     27 H9          5.6030    0.2590    0.4670 h1        1 4EJ      0.042700
     28 H8          6.3080    1.5610    1.0470 h1        1 4EJ      0.042700
     29 H10         8.3300   -1.5080    0.1100 ha        1 4EJ      0.122500
     30 H11        10.0320   -1.1430   -1.5330 ha        1 4EJ      0.108000
     31 H12        10.9170    0.4840   -1.8350 ha        1 4EJ      0.137000
     32 H13         9.8910    2.9980   -1.0490 ha        1 4EJ      0.108000
     33 H14         7.8810    2.3330    0.8380 ha        1 4EJ      0.122500
     34 H3         -1.7810    0.0040    1.1540 ha        1 4EJ      0.113500
     35 H2         -0.4620   -0.4420    3.2820 ha        1 4EJ      0.137500
     36 H4          0.5170   -0.2980    4.8160 h4        1 4EJ      0.159000
     37 H5          5.0550    0.2310    6.7120 ha        1 4EJ      0.132000
     38 H7          7.7720    0.3440    2.1800 hn        1 4EJ      0.360800
     39 N2          6.8100    0.4480    2.4340 nu        1 4EJ     -0.516900
     40 N          -1.2970   -0.0140   -2.2160 n1        1 4EJ     -0.387800
@<TRIPOS>BOND
     1    1    2 ar  
     2    1   13 1   
     3    1   14 ar  
     4    2    3 ar  
     5    2   24 1   
     6    3   16 ar  
     7    3   25 1   
     8    4    5 1   
     9    4   23 2   
    10    4   26 1   
    11    5   22 2   
    12    5   39 1   
    13    6    7 1   
    14    6   27 1   
    15    6   28 1   
    16    6   39 1   
    17    7    8 ar  
    18    7   12 ar  
    19    8    9 ar  
    20    8   29 1   
    21    9   10 ar  
    22    9   30 1   
    23   10   11 ar  
    24   10   31 1   
    25   11   12 ar  
    26   11   32 1   
    27   12   33 1   
    28   13   40 3   
    29   14   15 ar  
    30   14   34 1   
    31   15   16 ar  
    32   15   35 1   
    33   16   17 1   
    34   17   18 1   
    35   17   21 2   
    36   18   19 1   
    37   18   22 1   
    38   19   20 2   
    39   19   23 1   
    40   20   21 1   
    41   21   36 1   
    42   23   37 1   
    43   38   39 1   
@<TRIPOS>SUBSTRUCTURE
     1 4EJ         1 TEMP              0 ****  ****    0 ROOT
