@<TRIPOS>MOLECULE
4EJ
   40    43     1     0     0
SMALL
bcc


@<TRIPOS>ATOM
      1 C1         -0.0640   -0.1720   -0.0450 ca        1 4EJ     -0.020000
      2 C2          1.2250   -0.7210   -0.0020 ca        1 4EJ     -0.092000
      3 C3          1.9530   -0.7040    1.1850 ca        1 4EJ     -0.119000
      4 C11         6.0450    0.3550    4.7820 cc        1 4EJ     -0.269300
      5 C12         5.7170    0.3910    3.3530 cc        1 4EJ      0.611200
      6 C13         6.5590    0.5260    1.0380 c3        1 4EJ      0.241100
      7 C14         7.8320    0.7140    0.2640 ca        1 4EJ     -0.115300
      8 C15         8.3130   -0.3170   -0.5490 ca        1 4EJ     -0.114000
      9 C16         9.4740   -0.1300   -1.2980 ca        1 4EJ     -0.131500
     10 C17        10.1620    1.0820   -1.2340 ca        1 4EJ     -0.119000
     11 C18         9.6850    2.1100   -0.4200 ca        1 4EJ     -0.131500
     12 C19         8.5220    1.9290    0.3270 ca        1 4EJ     -0.114000
     13 C          -0.8060   -0.1890   -1.2570 cg        1 4EJ      0.234800
     14 C6         -0.6200    0.3930    1.1120 ca        1 4EJ     -0.092000
     15 C5          0.1100    0.4110    2.2950 ca        1 4EJ     -0.119000
     16 C4          1.4050   -0.1360    2.3430 ca        1 4EJ      0.016200
     17 C7          2.1130   -0.1170    3.6030 cc        1 4EJ     -0.091300
     18 N4          3.4970    0.0400    3.7950 na        1 4EJ      0.216200
     19 C9          3.7090    0.0070    5.2240 cd        1 4EJ     -0.103300
     20 N1          2.5270   -0.1720    5.8880 nc        1 4EJ     -0.254600
     21 C8          1.5620   -0.2440    4.9150 cd        1 4EJ      0.012600
     22 N3          4.4510    0.2130    2.8890 nd        1 4EJ     -0.555800
     23 C10         5.0530    0.1660    5.6950 cd        1 4EJ     -0.018000
     24 H           1.6630   -1.1680   -0.9080 ha        1 4EJ      0.145500
     25 H1          2.9590   -1.1490    1.2030 ha        1 4EJ      0.148500
     26 H6          7.0900    0.4910    5.0940 ha        1 4EJ      0.154000
     27 H9          5.8080    1.3010    0.7020 h1        1 4EJ      0.061700
     28 H8          6.1240   -0.4900    0.8040 h1        1 4EJ      0.061700
     29 H10         7.7740   -1.2740   -0.6040 ha        1 4EJ      0.138500
     30 H11         9.8470   -0.9410   -1.9410 ha        1 4EJ      0.136000
     31 H12        11.0780    1.2270   -1.8250 ha        1 4EJ      0.135000
     32 H13        10.2250    3.0670   -0.3690 ha        1 4EJ      0.136000
     33 H14         8.1410    2.7420    0.9630 ha        1 4EJ      0.138500
     34 H3         -1.6320    0.8250    1.0820 ha        1 4EJ      0.145500
     35 H2         -0.3240    0.8600    3.2010 ha        1 4EJ      0.148500
     36 H4          0.5080   -0.3910    5.1590 h4        1 4EJ      0.186000
     37 H5          5.2340    0.1330    6.7800 ha        1 4EJ      0.170000
     38 H7          7.6570    0.4370    2.7990 hn        1 4EJ      0.419800
     39 N2          6.7520    0.6940    2.4640 nh        1 4EJ     -0.830900
     40 N          -1.4130   -0.2030   -2.2490 n1        1 4EJ     -0.365800
@<TRIPOS>BOND
     1    1    2 ar  
     2    1   13 1   
     3    1   14 ar  
     4    2    3 ar  
     5    2   24 1   
     6    3   16 ar  
     7    3   25 1   
     8    4    5 1   
     9    4   23 2   
    10    4   26 1   
    11    5   22 2   
    12    5   39 1   
    13    6    7 1   
    14    6   27 1   
    15    6   28 1   
    16    6   39 1   
    17    7    8 ar  
    18    7   12 ar  
    19    8    9 ar  
    20    8   29 1   
    21    9   10 ar  
    22    9   30 1   
    23   10   11 ar  
    24   10   31 1   
    25   11   12 ar  
    26   11   32 1   
    27   12   33 1   
    28   13   40 3   
    29   14   15 ar  
    30   14   34 1   
    31   15   16 ar  
    32   15   35 1   
    33   16   17 1   
    34   17   18 1   
    35   17   21 2   
    36   18   19 1   
    37   18   22 1   
    38   19   20 2   
    39   19   23 1   
    40   20   21 1   
    41   21   36 1   
    42   23   37 1   
    43   38   39 1   
@<TRIPOS>SUBSTRUCTURE
     1 4EJ         1 TEMP              0 ****  ****    0 ROOT
