@<TRIPOS>MOLECULE
4EK
   45    49     1     0     0
SMALL
bcc


@<TRIPOS>ATOM
      1 C2         -0.1340    1.1350   -0.1120 ca        1 4EK      0.120900
      2 C3          1.2210    0.8050   -0.3040 ca        1 4EK     -0.160000
      3 C11        -3.0490   -0.3630    4.0380 c3        1 4EK      0.185800
      4 C13        -1.8970   -2.3510    3.1940 cc        1 4EK      0.611200
      5 C16        -1.8820   -5.1100    2.8890 cd        1 4EK     -0.096300
      6 C17        -3.1460   -4.4380    2.9370 cd        1 4EK     -0.026000
      7 C18        -3.1620   -3.0840    3.0880 cc        1 4EK     -0.259300
      8 C20        -0.1830   -6.4800    2.7940 cc        1 4EK      0.043600
      9 C21         0.3930   -5.1810    2.9240 cd        1 4EK     -0.207900
     10 C22         1.8070   -4.8410    2.9940 ca        1 4EK      0.499100
     11 C23         2.2950   -3.6370    2.4420 ca        1 4EK     -0.225300
     12 C24         3.6640   -3.3680    2.5130 ca        1 4EK     -0.100000
     13 C25         4.5100   -4.2950    3.1170 ca        1 4EK     -0.248300
     14 C26         3.9390   -5.4760    3.6300 ca        1 4EK      0.397200
     15 F1         -0.8200    1.7640   -1.0970 f         1 4EK     -0.141900
     16 C4          1.9100    0.1550    0.7150 ca        1 4EK     -0.111000
     17 C5          1.2730   -0.1670    1.9130 ca        1 4EK     -0.134000
     18 C6         -0.0710    0.1700    2.1080 ca        1 4EK     -0.054300
     19 C7         -0.7810    0.8180    1.0950 ca        1 4EK     -0.143000
     20 C8         -0.7320   -0.1530    3.4230 c3        1 4EK      0.246800
     21 C9         -1.1280    1.1450    4.1710 c3        1 4EK     -0.088400
     22 C10        -2.5380    0.9230    4.7000 c3        1 4EK     -0.093400
     23 N12        -1.9620   -0.9450    3.2510 nh        1 4EK     -0.733300
     24 N14        -0.6920   -2.9760    3.1550 nd        1 4EK     -0.546800
     25 N15        -0.6940   -4.2910    2.9880 na        1 4EK      0.211200
     26 N19        -1.5550   -6.4310    2.7660 nc        1 4EK     -0.262600
     27 N27         2.6290   -5.7590    3.5820 nb        1 4EK     -0.659000
     28 H1          1.7160    1.0590   -1.2520 ha        1 4EK      0.149000
     29 H2         -3.8910   -0.1340    3.3280 h1        1 4EK      0.052700
     30 H3         -3.4330   -1.0780    4.8160 h1        1 4EK      0.052700
     31 H4         -4.0620   -5.0420    2.8500 ha        1 4EK      0.169000
     32 H5         -4.1090   -2.5270    3.1100 ha        1 4EK      0.156000
     33 H6          0.3680   -7.4210    2.7250 h4        1 4EK      0.196000
     34 H7          1.6180   -2.9210    1.9540 ha        1 4EK      0.162000
     35 H8          4.0640   -2.4340    2.0910 ha        1 4EK      0.135000
     36 H9          5.5910   -4.1210    3.1920 ha        1 4EK      0.143000
     37 H10         4.5700   -6.2440    4.1140 h4        1 4EK      0.023100
     38 H11         2.9680   -0.1120    0.5710 ha        1 4EK      0.136000
     39 H12         1.8290   -0.6960    2.7030 ha        1 4EK      0.142000
     40 H13        -1.8420    1.0740    1.2280 ha        1 4EK      0.154000
     41 H14         0.0120   -0.7110    4.0680 h1        1 4EK      0.070700
     42 H15        -1.0980    2.0200    3.4760 hc        1 4EK      0.061200
     43 H16        -0.4060    1.3370    5.0010 hc        1 4EK      0.061200
     44 H17        -2.5340    0.8100    5.8120 hc        1 4EK      0.056200
     45 H18        -3.2040    1.7830    4.4460 hc        1 4EK      0.056200
@<TRIPOS>BOND
     1    1    2 ar  
     2    1   15 1   
     3    1   19 ar  
     4    2   16 ar  
     5    2   28 1   
     6    3   22 1   
     7    3   23 1   
     8    3   29 1   
     9    3   30 1   
    10    4    7 1   
    11    4   23 1   
    12    4   24 2   
    13    5    6 1   
    14    5   25 1   
    15    5   26 2   
    16    6    7 2   
    17    6   31 1   
    18    7   32 1   
    19    8    9 2   
    20    8   26 1   
    21    8   33 1   
    22    9   10 1   
    23    9   25 1   
    24   10   11 ar  
    25   10   27 ar  
    26   11   12 ar  
    27   11   34 1   
    28   12   13 ar  
    29   12   35 1   
    30   13   14 ar  
    31   13   36 1   
    32   14   27 ar  
    33   14   37 1   
    34   16   17 ar  
    35   16   38 1   
    36   17   18 ar  
    37   17   39 1   
    38   18   19 ar  
    39   18   20 1   
    40   19   40 1   
    41   20   21 1   
    42   20   23 1   
    43   20   41 1   
    44   21   22 1   
    45   21   42 1   
    46   21   43 1   
    47   22   44 1   
    48   22   45 1   
    49   24   25 1   
@<TRIPOS>SUBSTRUCTURE
     1 4EK         1 TEMP              0 ****  ****    0 ROOT
