@<TRIPOS>MOLECULE
4EK
   45    49     1     0     0
SMALL
bcc


@<TRIPOS>ATOM
      1 C2         -0.1170    1.1270   -0.1190 ca        1 4EK      0.120900
      2 C3          1.2360    0.7920   -0.3080 ca        1 4EK     -0.160000
      3 C11        -3.0450   -0.3490    4.0310 c3        1 4EK      0.185800
      4 C13        -1.8990   -2.3420    3.1930 cc        1 4EK      0.611200
      5 C16        -1.8950   -5.1020    2.8950 cd        1 4EK     -0.096300
      6 C17        -3.1560   -4.4260    2.9400 cd        1 4EK     -0.026000
      7 C18        -3.1660   -3.0710    3.0880 cc        1 4EK     -0.259300
      8 C20        -0.2010   -6.4790    2.8050 cc        1 4EK      0.043600
      9 C21         0.3800   -5.1820    2.9320 cd        1 4EK     -0.207900
     10 C22         1.7950   -4.8480    3.0020 ca        1 4EK      0.499100
     11 C23         2.2880   -3.6460    2.4480 ca        1 4EK     -0.225300
     12 C24         3.6580   -3.3820    2.5190 ca        1 4EK     -0.100000
     13 C25         4.5010   -4.3110    3.1250 ca        1 4EK     -0.248300
     14 C26         3.9250   -5.4890    3.6410 ca        1 4EK      0.397200
     15 F1         -0.8000    1.7560   -1.1070 f         1 4EK     -0.141900
     16 C4          1.9210    0.1420    0.7140 ca        1 4EK     -0.111000
     17 C5          1.2810   -0.1740    1.9120 ca        1 4EK     -0.134000
     18 C6         -0.0620    0.1680    2.1030 ca        1 4EK     -0.054300
     19 C7         -0.7680    0.8150    1.0880 ca        1 4EK     -0.143000
     20 C8         -0.7260   -0.1490    3.4180 c3        1 4EK      0.246800
     21 C9         -1.1190    1.1520    4.1630 c3        1 4EK     -0.088400
     22 C10        -2.5290    0.9380    4.6900 c3        1 4EK     -0.093400
     23 N12        -1.9590   -0.9360    3.2470 nh        1 4EK     -0.733300
     24 N14        -0.6960   -2.9730    3.1570 nd        1 4EK     -0.546800
     25 N15        -0.7030   -4.2870    2.9930 na        1 4EK      0.211200
     26 N19        -1.5730   -6.4260    2.7760 nc        1 4EK     -0.262600
     27 N27         2.6140   -5.7670    3.5920 nb        1 4EK     -0.659000
     28 H1          1.7340    1.0420   -1.2550 ha        1 4EK      0.149000
     29 H2         -3.4320   -1.0600    4.8110 h1        1 4EK      0.052700
     30 H3         -3.8850   -0.1180    3.3190 h1        1 4EK      0.052700
     31 H4         -4.0740   -5.0260    2.8540 ha        1 4EK      0.169000
     32 H5         -4.1110   -2.5110    3.1080 ha        1 4EK      0.156000
     33 H6          0.3470   -7.4220    2.7390 h4        1 4EK      0.196000
     34 H7          1.6150   -2.9290    1.9580 ha        1 4EK      0.162000
     35 H8          4.0620   -2.4510    2.0950 ha        1 4EK      0.135000
     36 H9          5.5820   -4.1410    3.2010 ha        1 4EK      0.143000
     37 H10         4.5530   -6.2580    4.1260 h4        1 4EK      0.023100
     38 H11         2.9790   -0.1290    0.5720 ha        1 4EK      0.136000
     39 H12         1.8340   -0.7030    2.7040 ha        1 4EK      0.142000
     40 H13        -1.8290    1.0760    1.2180 ha        1 4EK      0.154000
     41 H14         0.0150   -0.7080    4.0670 h1        1 4EK      0.070700
     42 H15        -0.3970    1.3450    4.9930 hc        1 4EK      0.061200
     43 H16        -1.0850    2.0260    3.4650 hc        1 4EK      0.061200
     44 H17        -2.5280    0.8270    5.8030 hc        1 4EK      0.056200
     45 H18        -3.1920    1.7990    4.4330 hc        1 4EK      0.056200
@<TRIPOS>BOND
     1    1    2 ar  
     2    1   15 1   
     3    1   19 ar  
     4    2   16 ar  
     5    2   28 1   
     6    3   22 1   
     7    3   23 1   
     8    3   29 1   
     9    3   30 1   
    10    4    7 1   
    11    4   23 1   
    12    4   24 2   
    13    5    6 1   
    14    5   25 1   
    15    5   26 2   
    16    6    7 2   
    17    6   31 1   
    18    7   32 1   
    19    8    9 2   
    20    8   26 1   
    21    8   33 1   
    22    9   10 1   
    23    9   25 1   
    24   10   11 ar  
    25   10   27 ar  
    26   11   12 ar  
    27   11   34 1   
    28   12   13 ar  
    29   12   35 1   
    30   13   14 ar  
    31   13   36 1   
    32   14   27 ar  
    33   14   37 1   
    34   16   17 ar  
    35   16   38 1   
    36   17   18 ar  
    37   17   39 1   
    38   18   19 ar  
    39   18   20 1   
    40   19   40 1   
    41   20   21 1   
    42   20   23 1   
    43   20   41 1   
    44   21   22 1   
    45   21   42 1   
    46   21   43 1   
    47   22   44 1   
    48   22   45 1   
    49   24   25 1   
@<TRIPOS>SUBSTRUCTURE
     1 4EK         1 TEMP              0 ****  ****    0 ROOT
