@<TRIPOS>MOLECULE
4EL
   55    56     1     0     0
SMALL
bcc


@<TRIPOS>ATOM
      1 C10        -1.4720    0.9740    0.4760 ca        1 4EL     -0.068000
      2 C15        -3.6940   -2.1480   -0.9900 c2        1 4EL     -0.217000
      3 C17        -5.7570   -2.0940    0.4120 c2        1 4EL     -0.755000
      4 C24        -5.4140   -1.4300    3.5830 c2        1 4EL     -0.365000
      5 C01         2.8540   -0.4490   -3.1950 c1        1 4EL     -0.039000
      6 C03         1.4710    1.2430   -2.1440 c3        1 4EL     -0.045000
      7 C04         2.1440   -2.3440   -0.0420 c1        1 4EL      0.154000
      8 C05         1.1640   -1.5580   -0.2080 c1        1 4EL     -0.609000
      9 C06         0.1270   -0.7310   -0.3790 c2        1 4EL      0.337000
     10 C07        -0.2920   -0.4150   -1.7800 c2        1 4EL     -0.030000
     11 N08         0.1060    0.8320   -2.3140 n3        1 4EL     -0.280000
     12 C09        -0.6240   -0.1300    0.7000 ca        1 4EL     -0.153000
     13 C11        -2.1550    1.5600    1.5340 ca        1 4EL     -0.172000
     14 C12        -1.0780   -1.2830   -2.4760 c2        1 4EL     -0.174000
     15 N13        -1.4920   -2.5620   -2.0240 n3        1 4EL     -0.147000
     16 C14        -2.5860   -2.9700   -1.4380 c1        1 4EL     -0.115000
     17 C16        -4.6180   -2.7450   -0.2110 c2        1 4EL      0.015000
     18 C18        -6.1760   -0.9030    0.0560 c1        1 4EL      0.056000
     19 C19        -6.6150    0.2690   -0.2770 c2        1 4EL     -0.195000
     20 O21        -7.8530   -2.5860    1.7850 o         1 4EL     -0.932000
     21 O22        -6.3490   -4.3670    1.3900 o         1 4EL     -0.932000
     22 N23        -5.5730   -2.6580    2.9490 n3        1 4EL     -0.771000
     23 N25        -6.3390   -0.4080    3.4510 n2        1 4EL     -0.164000
     24 N26        -6.0030    0.6450    4.1200 n2        1 4EL     -0.075000
     25 C27        -4.8100    0.5410    4.7710 c2        1 4EL     -0.433000
     26 S29        -4.0270   -0.9540    4.5180 s4        1 4EL      0.770000
     27 C30        -2.0510    1.0240    2.8200 ca        1 4EL     -0.043000
     28 C31        -1.2560   -0.1010    3.0520 ca        1 4EL     -0.148000
     29 C32        -0.5180   -0.6560    2.0040 ca        1 4EL     -0.007000
     30 C33        -1.2000   -0.7130    4.4230 c2        1 4EL      0.368000
     31 O34        -0.1540   -1.2430    4.8460 o         1 4EL     -0.433000
     32 O35        -2.2610   -0.6670    5.1780 os        1 4EL     -0.551000
     33 H1         -1.6000    1.3870   -0.5350 ha        1 4EL      0.140000
     34 H2         -4.5210   -3.8300    0.0110 ha        1 4EL      0.169000
     35 H3         -4.9050    1.7810    6.5140 hc        1 4EL      0.083333
     36 H4         -4.1840    2.5790    5.0580 hc        1 4EL      0.083333
     37 H5         -3.2310    1.3240    5.9720 hc        1 4EL      0.083333
     38 H6          0.8750   -1.3570   -4.3120 ha        1 4EL      0.003500
     39 H7          1.3590   -1.4760   -4.7730 ha        1 4EL      0.003500
     40 H8          2.5940   -1.1590   -2.3770 ha        1 4EL      0.054000
     41 H9          1.8710    0.9300   -1.1430 h2        1 4EL      0.126500
     42 H10         1.5290    2.3580   -2.2860 h2        1 4EL      0.126500
     43 H11        -0.2240    0.9710   -3.2500 hn        1 4EL      0.196000
     44 H12        -1.4380   -1.0350   -3.4940 h4        1 4EL      0.137000
     45 H13        -2.7950    2.4360    1.3570 ha        1 4EL      0.134000
     46 H14        -0.8040   -3.2720   -2.1920 hn        1 4EL      0.250000
     47 H15        -3.7650   -1.0790   -1.2510 ha        1 4EL      0.099000
     48 H16        -6.2520    1.1840    0.2180 ha        1 4EL      0.158500
     49 H17        -7.3970    0.4100   -1.0360 ha        1 4EL      0.158500
     50 H18        -4.9700   -3.3590    3.3190 hn        1 4EL      0.258000
     51 H19        -2.6120    1.4720    3.6590 ha        1 4EL      0.161000
     52 H20         0.1440   -1.5170    2.2050 ha        1 4EL      0.174000
     53 O02         2.3770    0.7330   -3.1970 os        1 4EL     -0.132000
     54 C28        -4.2540    1.6130    5.6190 c3        1 4EL     -0.142000
     55 S20        -6.5130   -2.9840    1.6750 s6        1 4EL      2.827000
@<TRIPOS>BOND
     1    1   12 1   
     2    1   13 1   
     3    1   33 1   
     4    2   16 1   
     5    2   17 1   
     6    2   47 1   
     7    3   17 1   
     8    3   18 1   
     9    3   55 1   
    10    4   22 1   
    11    4   23 1   
    12    4   26 1   
    13    5   40 1   
    14    5   53 1   
    15    6   11 1   
    16    6   41 1   
    17    6   42 1   
    18    6   53 1   
    19    7    8 1   
    20    8    9 1   
    21    9   10 1   
    22    9   12 1   
    23   10   11 1   
    24   10   14 1   
    25   11   43 1   
    26   12   29 1   
    27   13   27 1   
    28   13   45 1   
    29   14   15 1   
    30   14   44 1   
    31   15   16 1   
    32   15   46 1   
    33   17   34 1   
    34   18   19 1   
    35   19   48 1   
    36   19   49 1   
    37   20   55 1   
    38   21   55 1   
    39   22   50 1   
    40   22   55 1   
    41   23   24 1   
    42   24   25 1   
    43   25   26 1   
    44   25   54 1   
    45   26   32 1   
    46   27   28 1   
    47   27   51 1   
    48   28   29 1   
    49   28   30 1   
    50   29   52 1   
    51   30   31 1   
    52   30   32 1   
    53   35   54 1   
    54   36   54 1   
    55   37   54 1   
    56   38   39 1   
@<TRIPOS>SUBSTRUCTURE
     1 4EL         1 TEMP              0 ****  ****    0 ROOT
