@<TRIPOS>MOLECULE
4EL
   55    53     1     0     0
SMALL
bcc


@<TRIPOS>ATOM
      1 C10         2.5520    1.5670   -0.6180 ca        1 4EL     -0.107000
      2 C15        -6.1410   -2.6590    2.0970 c1        1 4EL     -0.065000
      3 C17        -8.5800   -3.4470    2.5940 c2        1 4EL     -0.642000
      4 C24        -8.7320   -1.5550    5.2460 c2        1 4EL     -0.133000
      5 C01         7.9790    0.8270   -4.5190 c1        1 4EL     -0.062000
      6 C03         5.6610    1.2520   -4.2400 c2        1 4EL     -0.414000
      7 C04         1.9320   -1.9890   -3.9060 c1        1 4EL     -0.175000
      8 C05         2.4040   -1.1320   -3.2170 c1        1 4EL     -0.145000
      9 C06         2.9600   -0.1130   -2.4020 c2        1 4EL      0.217000
     10 C07         4.1810    0.3330   -2.6360 c1        1 4EL     -0.330000
     11 N08         5.3430    0.4700   -3.1860 n7        1 4EL      0.153000
     12 C09         2.1540    0.4030   -1.2950 ca        1 4EL     -0.092000
     13 C11         1.7890    2.0550    0.4380 ca        1 4EL     -0.171000
     14 C12        -4.3480   -1.9270   -0.1080 c1        1 4EL     -0.105000
     15 N13        -4.0080   -1.8650    1.1960 n7        1 4EL     -0.150000
     16 C14        -4.8260   -2.2160    2.1960 c1        1 4EL      0.050000
     17 C16        -7.2650   -3.0370    2.3390 c1        1 4EL     -0.177000
     18 C18        -9.5170   -3.3600    1.6730 c1        1 4EL      0.069000
     19 C19       -10.4320   -3.2560    0.7640 c2        1 4EL     -0.185000
     20 O21       -10.2380   -4.2100    4.3750 o         1 4EL     -0.916000
     21 O22        -8.0820   -5.1760    4.4160 o         1 4EL     -0.916000
     22 N23        -8.2420   -2.8360    5.1240 nu        1 4EL     -0.749000
     23 N25        -9.8520   -1.0830    4.6020 n2        1 4EL     -0.118000
     24 N26       -10.1210    0.1550    4.8830 n2        1 4EL     -0.030000
     25 C27        -9.2540    0.7350    5.7430 c2        1 4EL     -0.338000
     26 S29        -8.0010   -0.3340    6.2480 ss        1 4EL      0.430000
     27 C30         0.6270    1.3910    0.8320 ca        1 4EL     -0.077000
     28 C31         0.2210    0.2310    0.1660 ca        1 4EL     -0.110000
     29 C32         0.9840   -0.2590   -0.8970 ca        1 4EL     -0.066000
     30 C33        -1.0310   -0.4900    0.5910 c2        1 4EL      0.350000
     31 O34        -1.3840   -1.5440   -0.0200 o         1 4EL     -0.578000
     32 O35        -1.7150   -0.0320    1.5560 o         1 4EL     -0.578000
     33 H1          3.4690    2.0900   -0.9300 ha        1 4EL      0.123000
     34 H2         -1.2280   -2.8090    2.8210 ha        1 4EL      0.000000
     35 H3        -10.3220    2.3340    6.6870 hc        1 4EL      0.096667
     36 H4         -9.2100    2.8360    5.3440 hc        1 4EL      0.096667
     37 H5         -8.5240    2.3400    6.9520 hc        1 4EL      0.096667
     38 H6          7.8030   -0.2610   -4.3630 ha        1 4EL      0.009000
     39 H7          6.2620    3.7310   -5.3280 ha        1 4EL      0.000000
     40 H8          6.2300    4.3270   -5.6490 ha        1 4EL      0.000000
     41 H9          1.4940   -2.7480   -4.5030 ha        1 4EL      0.224000
     42 H10         4.9460    1.9150   -4.7360 h5        1 4EL      0.209000
     43 H11         6.1070   -0.0150   -2.7320 hn        1 4EL      0.227000
     44 H12        -3.5350   -1.6030   -0.7980 ha        1 4EL      0.082000
     45 H13         2.1040    2.9680    0.9630 ha        1 4EL      0.116000
     46 H14        -3.0810   -1.5340    1.4970 hn        1 4EL      0.294000
     47 H15        -1.2170   -2.3170    2.3530 ha        1 4EL      0.000000
     48 H16       -10.6660   -4.0770    0.0690 ha        1 4EL      0.162500
     49 H17       -11.0340   -2.3400    0.6500 ha        1 4EL      0.162500
     50 H18        -7.3590   -2.9770    5.5680 hn        1 4EL      0.266000
     51 H19         0.0090    1.7610    1.6670 ha        1 4EL      0.156000
     52 H20         0.6420   -1.1760   -1.4080 ha        1 4EL      0.163000
     53 O02         7.0030    1.6510   -4.4480 os        1 4EL     -0.017000
     54 C28        -9.3310    2.1320    6.2070 c3        1 4EL     -0.145000
     55 S20        -8.8640   -4.0340    4.1600 s6        1 4EL      2.836000
@<TRIPOS>BOND
     1    1   12 1   
     2    1   13 1   
     3    1   33 1   
     4    2   16 1   
     5    2   17 1   
     6    3   17 1   
     7    3   18 1   
     8    3   55 1   
     9    4   22 1   
    10    4   23 1   
    11    4   26 1   
    12    5   38 1   
    13    5   53 1   
    14    6   11 1   
    15    6   42 1   
    16    6   53 1   
    17    7    8 1   
    18    7   41 1   
    19    8    9 1   
    20    9   10 1   
    21    9   12 1   
    22   10   11 1   
    23   11   43 1   
    24   12   29 1   
    25   13   27 1   
    26   13   45 1   
    27   14   15 1   
    28   14   44 1   
    29   15   16 1   
    30   15   46 1   
    31   18   19 1   
    32   19   48 1   
    33   19   49 1   
    34   20   55 1   
    35   21   55 1   
    36   22   50 1   
    37   22   55 1   
    38   23   24 1   
    39   24   25 1   
    40   25   26 1   
    41   25   54 1   
    42   27   28 1   
    43   27   51 1   
    44   28   29 1   
    45   28   30 1   
    46   29   52 1   
    47   30   31 1   
    48   30   32 1   
    49   34   47 1   
    50   35   54 1   
    51   36   54 1   
    52   37   54 1   
    53   39   40 1   
@<TRIPOS>SUBSTRUCTURE
     1 4EL         1 TEMP              0 ****  ****    0 ROOT
