@<TRIPOS>MOLECULE
4EW
   50    55     1     0     0
SMALL
bcc


@<TRIPOS>ATOM
      1 C23         0.3300    0.0500   -0.0300 c3        1 4EW     -0.011400
      2 C24         1.8290    0.2790    0.1230 c3        1 4EW     -0.098400
      3 C25         2.0810    0.0610    1.6110 c3        1 4EW     -0.081700
      4 C26         1.7490   -1.4620    1.8430 c3        1 4EW     -0.098400
      5 C27         0.2320   -1.8100    1.4970 c3        1 4EW     -0.011400
      6 C28        -1.1870    2.0200    1.4810 cc        1 4EW      0.394800
      7 C1          2.3760    8.0830    5.3650 ca        1 4EW     -0.031000
      8 C2          2.3800    9.4720    5.4610 ca        1 4EW     -0.130900
      9 C3          2.0040   10.2770    4.3480 ca        1 4EW      0.422200
     10 N4          1.6300    9.7960    3.1610 nb        1 4EW     -0.654000
     11 C5          1.6250    8.4320    3.0650 ca        1 4EW      0.408800
     12 C6          1.9930    7.5230    4.1440 ca        1 4EW     -0.147100
     13 C7          1.8430    6.1860    3.6110 cc        1 4EW     -0.223000
     14 C8          1.4110    6.3190    2.2810 cd        1 4EW     -0.034100
     15 N9          1.2820    7.6550    1.9420 na        1 4EW     -0.270100
     16 C11         2.0840    4.9220    4.2990 ca        1 4EW      0.790800
     17 N12         2.6690    4.9680    5.5410 nb        1 4EW     -0.715000
     18 C13         2.8830    3.7940    6.1540 ca        1 4EW      0.450200
     19 C14         2.5390    2.5550    5.5750 ca        1 4EW     -0.199700
     20 C15         1.9190    2.5810    4.2670 ca        1 4EW      0.684200
     21 N16         1.7010    3.7780    3.6430 nb        1 4EW     -0.801000
     22 N17         1.5030    1.3860    3.6940 nh        1 4EW     -0.865900
     23 C18         1.1850    1.2260    2.3050 c3        1 4EW      0.196500
     24 C20        -0.4390    0.9150    2.1230 c3        1 4EW      0.002000
     25 C22        -0.2370   -0.3600    1.3330 c3        1 4EW     -0.241700
     26 N29        -0.9180    3.3960    1.6350 na        1 4EW     -0.186400
     27 N31        -1.8640    4.0820    0.9800 nc        1 4EW     -0.210800
     28 N32        -2.6670    3.2290    0.4540 nd        1 4EW     -0.053000
     29 N33        -2.3250    1.9710    0.7170 nd        1 4EW     -0.363000
     30 H1         -0.1690    0.9720   -0.4170 hc        1 4EW      0.057450
     31 H2          0.1200   -0.7550   -0.7800 hc        1 4EW      0.057450
     32 H3          2.1270    1.3070   -0.2000 hc        1 4EW      0.048200
     33 H4          2.4210   -0.4460   -0.4890 hc        1 4EW      0.048200
     34 H5          3.1440    0.2370    1.9010 hc        1 4EW      0.062700
     35 H6          2.4320   -2.0590    1.1940 hc        1 4EW      0.048200
     36 H7          1.9440   -1.7300    2.9090 hc        1 4EW      0.048200
     37 H8          0.1520   -2.3910    0.5500 hc        1 4EW      0.057450
     38 H9         -0.2510   -2.4000    2.3110 hc        1 4EW      0.057450
     39 H10         2.6660    7.4520    6.2190 ha        1 4EW      0.177000
     40 H11         2.0090   11.3800    4.4320 h4        1 4EW      0.039100
     41 H12         1.1980    5.5380    1.5450 h4        1 4EW      0.180000
     42 H13         0.9670    8.0140    1.0770 hn        1 4EW      0.321700
     43 H14         3.3550    3.8330    7.1530 h4        1 4EW      0.044100
     44 H15         1.7930    0.5620    4.1770 hn        1 4EW      0.441800
     45 H16         1.4250    2.1560    1.7240 h1        1 4EW      0.082700
     46 H17        -0.9320    0.7750    3.1290 hc        1 4EW      0.091700
     47 H18         0.2550   -0.5140    2.4990 hc        1 4EW      0.071700
     48 H19        -0.2010    3.8390    2.1670 hn        1 4EW      0.348700
     49 F34         2.7780    1.3920    6.2210 f         1 4EW     -0.129900
     50 CL3         2.8320   10.2330    6.9060 cl        1 4EW     -0.077400
@<TRIPOS>BOND
     1    1    2 1   
     2    1   25 1   
     3    1   30 1   
     4    1   31 1   
     5    2    3 1   
     6    2   32 1   
     7    2   33 1   
     8    3    4 1   
     9    3   23 1   
    10    3   34 1   
    11    4    5 1   
    12    4   35 1   
    13    4   36 1   
    14    5   25 1   
    15    5   37 1   
    16    5   38 1   
    17    6   24 1   
    18    6   26 1   
    19    6   29 2   
    20    7    8 ar  
    21    7   12 ar  
    22    7   39 1   
    23    8    9 ar  
    24    8   50 1   
    25    9   10 ar  
    26    9   40 1   
    27   10   11 ar  
    28   11   12 ar  
    29   11   15 1   
    30   12   13 1   
    31   13   14 2   
    32   13   16 1   
    33   14   15 1   
    34   14   41 1   
    35   15   42 1   
    36   16   17 ar  
    37   16   21 ar  
    38   17   18 ar  
    39   18   19 ar  
    40   18   43 1   
    41   19   20 ar  
    42   19   49 1   
    43   20   21 ar  
    44   20   22 1   
    45   22   23 1   
    46   22   44 1   
    47   23   24 1   
    48   23   45 1   
    49   24   25 1   
    50   24   46 1   
    51   25   47 1   
    52   26   27 1   
    53   26   48 1   
    54   27   28 2   
    55   28   29 1   
@<TRIPOS>SUBSTRUCTURE
     1 4EW         1 TEMP              0 ****  ****    0 ROOT
