@<TRIPOS>MOLECULE
4EW
   50    47     1     0     0
SMALL
bcc


@<TRIPOS>ATOM
      1 C23        -1.4520   -2.0920    1.4260 c3        1 4EW     -0.147000
      2 C24         3.4610    4.3990   -1.5770 c2        1 4EW      0.226000
      3 C25         3.3840    4.6870   -0.2870 c1        1 4EW     -0.502000
      4 C26         1.2120   -1.7940    4.1530 c3        1 4EW     -0.277000
      5 C27        -3.5510   -1.0720    2.1630 c1        1 4EW      0.248000
      6 C28        -1.1120    1.0990    1.4440 c1        1 4EW      0.017000
      7 C1          3.4380    6.8660    6.0270 c2        1 4EW     -0.105000
      8 C2          4.2810    7.6280    6.7690 c2        1 4EW     -0.165000
      9 C3          4.5470    9.0400    6.4580 c1        1 4EW      0.014000
     10 N4          3.8990    9.5460    5.3730 n7        1 4EW     -0.198000
     11 C5          3.0380    8.8890    4.5610 c1        1 4EW     -0.011000
     12 C6          2.7740    7.4700    4.8810 c2        1 4EW     -0.176000
     13 C7          1.9250    6.8230    4.0550 c2        1 4EW      0.016000
     14 C8          0.0300    6.4410    1.4710 c1        1 4EW      0.036000
     15 N9         -0.5140    5.9170    0.5720 n2        1 4EW     -0.334000
     16 C11         1.5030    5.4080    4.2310 c2        1 4EW      0.134000
     17 N12         0.7220    5.0390    5.2920 n7        1 4EW     -0.133000
     18 C13         0.2630    3.7540    5.4720 c1        1 4EW     -0.175000
     19 C14         0.5880    2.8060    4.5180 c2        1 4EW     -0.122000
     20 C15         1.3850    3.1390    3.3080 c2        1 4EW      0.135000
     21 N16         1.8690    4.5000    3.2930 n7        1 4EW     -0.268000
     22 N17         1.6050    2.2950    2.3440 n2        1 4EW     -0.354000
     23 C18         3.2110    4.8860    0.9440 c1        1 4EW      0.067000
     24 C20        -1.4520    0.1920    2.5140 c3        1 4EW      0.018000
     25 C22        -2.2360   -0.9810    2.0330 c2        1 4EW     -0.437000
     26 N29         1.4740    2.4780   -1.1790 n2        1 4EW     -0.293000
     27 N31         0.4030    3.0450   -0.9890 n2        1 4EW      0.046000
     28 N32        -0.6490    2.8420   -0.2470 n2        1 4EW     -0.250000
     29 N33        -0.8140    1.8710    0.6200 n2        1 4EW      0.087000
     30 H1         -0.6750   -2.4420    2.1530 hc        1 4EW      0.092333
     31 H2         -0.9420   -1.7330    0.4990 hc        1 4EW      0.092333
     32 H3         -2.1080   -2.9570    1.1590 hc        1 4EW      0.092333
     33 H4          2.8580    4.9350   -2.3320 ha        1 4EW      0.137500
     34 H5          4.1190    3.5990   -1.9610 ha        1 4EW      0.137500
     35 H6          1.4410   -1.8060    3.0650 hc        1 4EW      0.069750
     36 H7          1.1230   -0.7410    4.5030 hc        1 4EW      0.069750
     37 H8          2.0330   -2.2990    4.7080 hc        1 4EW      0.069750
     38 H9          0.2560   -2.3320    4.3380 hc        1 4EW      0.069750
     39 H10         3.2450    5.8050    6.2540 ha        1 4EW      0.157000
     40 H11         4.0780   10.5090    5.1570 hn        1 4EW      0.273000
     41 H12         1.4640    7.3260    3.1730 ha        1 4EW      0.224000
     42 H13        -0.9520    5.4570   -0.1630 hn        1 4EW      0.301000
     43 H14         0.4530    5.7260    5.9640 hn        1 4EW      0.273000
     44 H15         2.4730    4.8060    2.4870 hn        1 4EW      0.328000
     45 H16         2.1800    2.6080    1.5900 hn        1 4EW      0.140000
     46 H17        -2.0130    0.7730    3.3030 hc        1 4EW      0.162500
     47 H18        -0.4840   -0.1580    2.9930 hc        1 4EW      0.162500
     48 H19         1.6930    1.6220   -0.6830 hn        1 4EW      0.112000
     49 F34         0.1770    1.5240    4.6610 f         1 4EW     -0.103000
     50 Cl3         5.0970    7.0110    8.1110 cl        1 4EW      0.039000
@<TRIPOS>BOND
     1    1   25 1   
     2    1   30 1   
     3    1   31 1   
     4    1   32 1   
     5    2    3 1   
     6    2   33 1   
     7    2   34 1   
     8    3   23 1   
     9    4   35 1   
    10    4   36 1   
    11    4   37 1   
    12    4   38 1   
    13    5   25 1   
    14    6   24 1   
    15    6   29 1   
    16    7    8 1   
    17    7   12 1   
    18    7   39 1   
    19    8    9 1   
    20    8   50 1   
    21    9   10 1   
    22   10   11 1   
    23   10   40 1   
    24   11   12 1   
    25   12   13 1   
    26   13   16 1   
    27   13   41 1   
    28   14   15 1   
    29   15   42 1   
    30   16   17 1   
    31   16   21 1   
    32   17   18 1   
    33   17   43 1   
    34   18   19 1   
    35   19   20 1   
    36   19   49 1   
    37   20   21 1   
    38   20   22 1   
    39   21   44 1   
    40   22   45 1   
    41   24   25 1   
    42   24   46 1   
    43   24   47 1   
    44   26   27 1   
    45   26   48 1   
    46   27   28 1   
    47   28   29 1   
@<TRIPOS>SUBSTRUCTURE
     1 4EW         1 TEMP              0 ****  ****    0 ROOT
