@<TRIPOS>MOLECULE
4EZ
   44    45     1     0     0
SMALL
bcc


@<TRIPOS>ATOM
      1 C1'        -0.2910    0.1990   -0.1410 c3        1 4EZ      0.327600
      2 N1'         1.2220    0.0600   -0.1050 n4        1 4EZ     -0.738400
      3 C11         1.7650    0.0880    1.2860 c3        1 4EZ      0.099800
      4 C12         1.3980    1.3410    2.0710 c3        1 4EZ     -0.104400
      5 C13         2.2160    1.3970    3.3460 c3        1 4EZ     -0.080400
      6 C15         2.6470    2.6670    5.4520 c3        1 4EZ     -0.079400
      7 C16         2.2630    3.8600    6.2880 c3        1 4EZ     -0.096100
      8 C10         1.6510   -1.2110   -0.7960 c3        1 4EZ      0.233000
      9 C9          1.4910   -1.1350   -2.2510 cc        1 4EZ     -0.398000
     10 C4          2.0710   -0.1120   -3.0980 ca        1 4EZ      0.472100
     11 N3          2.7550    1.0220   -2.7950 nb        1 4EZ     -0.762000
     12 C8          0.8690   -2.0670   -3.1020 cd        1 4EZ     -0.017100
     13 N7          1.0360   -1.6950   -4.4200 na        1 4EZ     -0.128400
     14 C5          1.7650   -0.5020   -4.4590 ca        1 4EZ     -0.352800
     15 C6          2.2240    0.3470   -5.5280 ca        1 4EZ      0.730200
     16 N6          1.9030    0.0690   -6.8390 nh        1 4EZ     -0.939500
     17 N1          2.9280    1.4750   -5.1970 nb        1 4EZ     -0.749000
     18 C2          3.1350    1.7380   -3.8770 ca        1 4EZ      0.696900
     19 O1         -0.6460    1.5440   -0.2700 oh        1 4EZ     -0.550800
     20 C14         1.8260    2.5990    4.1810 c3        1 4EZ     -0.080400
     21 H1         -0.7150   -0.2910    0.7780 hx        1 4EZ      0.110700
     22 H2         -0.6580   -0.2950   -1.0930 hx        1 4EZ      0.110700
     23 H4          2.8900    0.0170    1.2110 hx        1 4EZ      0.098700
     24 H5          1.3880   -0.8260    1.8270 hx        1 4EZ      0.098700
     25 H6          0.3060    1.3240    2.3320 hc        1 4EZ      0.059700
     26 H7          1.5930    2.2650    1.4620 hc        1 4EZ      0.059700
     27 H8          2.0560    0.4590    3.9410 hc        1 4EZ      0.055700
     28 H9          3.3080    1.4530    3.0940 hc        1 4EZ      0.055700
     29 H10         2.4970    1.7260    6.0450 hc        1 4EZ      0.044700
     30 H11         3.7370    2.7250    5.1910 hc        1 4EZ      0.044700
     31 H12         2.4290    4.8090    5.7240 hc        1 4EZ      0.041700
     32 H13         1.1860    3.8080    6.5810 hc        1 4EZ      0.041700
     33 H14         2.8790    3.8920    7.2190 hc        1 4EZ      0.041700
     34 H15         2.7440   -1.3650   -0.5450 hx        1 4EZ      0.095200
     35 H16         1.0520   -2.0600   -0.3590 hx        1 4EZ      0.095200
     36 H17         0.3320   -2.9840   -2.8370 h4        1 4EZ      0.187000
     37 H18         0.6730   -2.1700   -5.2070 hn        1 4EZ      0.321700
     38 H19         2.2870    0.6470   -7.5540 hn        1 4EZ      0.439300
     39 H20         1.7250   -0.8760   -7.0790 hn        1 4EZ      0.439300
     40 H21         3.7050    2.6730   -3.6760 h5        1 4EZ      0.068100
     41 H22        -0.7220    1.9480    0.6090 ho        1 4EZ      0.434000
     42 H23         0.7360    2.5430    4.4410 hc        1 4EZ      0.046700
     43 H24         1.9790    3.5380    3.5850 hc        1 4EZ      0.046700
     44 H1'1        1.6140    0.8660   -0.6220 hn        1 4EZ      0.481800
@<TRIPOS>BOND
     1    1    2 1   
     2    1   19 1   
     3    1   21 1   
     4    1   22 1   
     5    2    3 1   
     6    2    8 1   
     7    2   44 1   
     8    3    4 1   
     9    3   23 1   
    10    3   24 1   
    11    4    5 1   
    12    4   25 1   
    13    4   26 1   
    14    5   20 1   
    15    5   27 1   
    16    5   28 1   
    17    6    7 1   
    18    6   20 1   
    19    6   29 1   
    20    6   30 1   
    21    7   31 1   
    22    7   32 1   
    23    7   33 1   
    24    8    9 1   
    25    8   34 1   
    26    8   35 1   
    27    9   10 1   
    28    9   12 2   
    29   10   11 ar  
    30   10   14 ar  
    31   11   18 ar  
    32   12   13 1   
    33   12   36 1   
    34   13   14 1   
    35   13   37 1   
    36   14   15 ar  
    37   15   16 1   
    38   15   17 ar  
    39   16   38 1   
    40   16   39 1   
    41   17   18 ar  
    42   18   40 1   
    43   19   41 1   
    44   20   42 1   
    45   20   43 1   
@<TRIPOS>SUBSTRUCTURE
     1 4EZ         1 TEMP              0 ****  ****    0 ROOT
