@<TRIPOS>MOLECULE
4EZ
   44    45     1     0     0
SMALL
bcc


@<TRIPOS>ATOM
      1 C1'        -0.3010    0.2440   -0.1500 c3        1 4EZ      0.327600
      2 N1'         1.2080    0.0710   -0.1050 nx        1 4EZ     -0.738400
      3 C11         1.7440    0.0910    1.2890 c3        1 4EZ      0.099800
      4 C12         1.4010    1.3550    2.0670 c3        1 4EZ     -0.104400
      5 C13         2.2120    1.3960    3.3480 c3        1 4EZ     -0.080400
      6 C15         2.6600    2.6620    5.4520 c3        1 4EZ     -0.079400
      7 C16         2.2990    3.8670    6.2820 c3        1 4EZ     -0.096100
      8 C10         1.6110   -1.2120   -0.7890 c3        1 4EZ      0.233000
      9 C9          1.4610   -1.1380   -2.2450 cc        1 4EZ     -0.398000
     10 C4          2.0690   -0.1320   -3.0930 ca        1 4EZ      0.472100
     11 N3          2.7770    0.9870   -2.7900 nb        1 4EZ     -0.762000
     12 C8          0.8230   -2.0590   -3.0960 cd        1 4EZ     -0.017100
     13 N7          1.0050   -1.6950   -4.4150 na        1 4EZ     -0.128400
     14 C5          1.7600   -0.5190   -4.4540 ca        1 4EZ     -0.352800
     15 C6          2.2440    0.3150   -5.5230 ca        1 4EZ      0.730200
     16 N6          1.9240    0.0400   -6.8350 nv        1 4EZ     -0.939500
     17 N1          2.9720    1.4280   -5.1930 nb        1 4EZ     -0.749000
     18 C2          3.1790    1.6910   -3.8730 ca        1 4EZ      0.696900
     19 O1         -0.6240    1.5960   -0.2850 oh        1 4EZ     -0.550800
     20 C14         1.8460    2.6100    4.1760 c3        1 4EZ     -0.080400
     21 H1         -0.6740   -0.2450   -1.1020 hx        1 4EZ      0.110700
     22 H2         -0.7420   -0.2330    0.7690 hx        1 4EZ      0.110700
     23 H4          1.3430   -0.8120    1.8310 hx        1 4EZ      0.098700
     24 H5          2.8680   -0.0070    1.2200 hx        1 4EZ      0.098700
     25 H6          0.3080    1.3640    2.3220 hc        1 4EZ      0.059700
     26 H7          1.6210    2.2720    1.4570 hc        1 4EZ      0.059700
     27 H8          2.0260    0.4640    3.9450 hc        1 4EZ      0.055700
     28 H9          3.3070    1.4250    3.1030 hc        1 4EZ      0.055700
     29 H10         3.7530    2.6920    5.1990 hc        1 4EZ      0.044700
     30 H11         2.4820    1.7280    6.0480 hc        1 4EZ      0.044700
     31 H12         1.2200    3.8440    6.5660 hc        1 4EZ      0.041700
     32 H13         2.9100    3.8870    7.2170 hc        1 4EZ      0.041700
     33 H14         2.4930    4.8100    5.7150 hc        1 4EZ      0.041700
     34 H15         2.6990   -1.3900   -0.5320 hx        1 4EZ      0.095200
     35 H16         0.9920   -2.0460   -0.3520 hx        1 4EZ      0.095200
     36 H17         0.2630   -2.9620   -2.8310 h4        1 4EZ      0.187000
     37 H18         0.6350   -2.1650   -5.2020 hn        1 4EZ      0.321700
     38 H19         1.7260   -0.9010   -7.0720 hn        1 4EZ      0.439300
     39 H20         2.3250    0.6070   -7.5500 hn        1 4EZ      0.439300
     40 H21         3.7690    2.6140   -3.6720 h5        1 4EZ      0.068100
     41 H22        -0.6960    2.0050    0.5910 ho        1 4EZ      0.434000
     42 H23         2.0260    3.5430    3.5780 hc        1 4EZ      0.046700
     43 H24         0.7540    2.5820    4.4280 hc        1 4EZ      0.046700
     44 H1'1        1.6210    0.8660   -0.6220 hn        1 4EZ      0.481800
@<TRIPOS>BOND
     1    1    2 1   
     2    1   19 1   
     3    1   21 1   
     4    1   22 1   
     5    2    3 1   
     6    2    8 1   
     7    2   44 1   
     8    3    4 1   
     9    3   23 1   
    10    3   24 1   
    11    4    5 1   
    12    4   25 1   
    13    4   26 1   
    14    5   20 1   
    15    5   27 1   
    16    5   28 1   
    17    6    7 1   
    18    6   20 1   
    19    6   29 1   
    20    6   30 1   
    21    7   31 1   
    22    7   32 1   
    23    7   33 1   
    24    8    9 1   
    25    8   34 1   
    26    8   35 1   
    27    9   10 1   
    28    9   12 2   
    29   10   11 ar  
    30   10   14 ar  
    31   11   18 ar  
    32   12   13 1   
    33   12   36 1   
    34   13   14 1   
    35   13   37 1   
    36   14   15 ar  
    37   15   16 1   
    38   15   17 ar  
    39   16   38 1   
    40   16   39 1   
    41   17   18 ar  
    42   18   40 1   
    43   19   41 1   
    44   20   42 1   
    45   20   43 1   
@<TRIPOS>SUBSTRUCTURE
     1 4EZ         1 TEMP              0 ****  ****    0 ROOT
