@<TRIPOS>MOLECULE
4F0
   39    41     1     0     0
SMALL
bcc


@<TRIPOS>ATOM
      1 C2          0.4800    0.9050    0.1240 ca        1 4F0      0.634900
      2 C4          0.0660    0.1850    2.2400 ca        1 4F0      0.465100
      3 C5          1.5000    0.1830    2.4940 ca        1 4F0     -0.325800
      4 C6          2.3820    0.5630    1.4330 ca        1 4F0      0.647200
      5 CS5        -8.1780   -3.9400    4.1370 c3        1 4F0     -0.043000
      6 S          -7.0110   -2.7380    4.6480 ss        1 4F0     -0.293200
      7 C5'        -5.4810   -3.6210    4.5040 c3        1 4F0     -0.005300
      8 C4'        -4.3590   -2.6580    4.7920 c3        1 4F0     -0.116700
      9 C1'        -4.0020   -1.7710    3.5760 c3        1 4F0      0.163800
     10 N1'        -2.5460   -1.7060    3.4190 n3        1 4F0     -0.702600
     11 C9         -0.5560   -0.2430    3.4820 cc        1 4F0     -0.251000
     12 C8          0.4770   -0.4620    4.3970 cd        1 4F0     -0.086100
     13 N7          1.7220   -0.2500    3.8010 na        1 4F0     -0.164400
     14 N6          3.7660    0.6350    1.6730 nh        1 4F0     -0.915500
     15 N1          1.8430    0.9210    0.2340 nb        1 4F0     -0.750000
     16 N3         -0.4470    0.5550    1.0400 nb        1 4F0     -0.667000
     17 C2'        -1.9690   -2.7970    4.2000 c3        1 4F0      0.156800
     18 C3'        -3.0460   -3.3910    5.1420 c3        1 4F0      0.118100
     19 O3'        -2.6270   -3.1260    6.4700 oh        1 4F0     -0.599800
     20 H1          0.0930    1.2170   -0.8690 h5        1 4F0      0.051100
     21 H2         -7.9980   -4.2760    3.0920 h1        1 4F0      0.063367
     22 H3         -9.1760   -3.4470    4.1940 h1        1 4F0      0.063367
     23 H4         -8.1760   -4.8320    4.8020 h1        1 4F0      0.063367
     24 H5         -5.4680   -4.4620    5.2400 h1        1 4F0      0.060700
     25 H6         -5.3800   -4.0660    3.4840 h1        1 4F0      0.060700
     26 H7         -4.6480   -1.9990    5.6570 hc        1 4F0      0.076700
     27 H8         -4.4620   -0.7540    3.6940 h1        1 4F0      0.060200
     28 H9         -4.4060   -2.2260    2.6300 h1        1 4F0      0.060200
     29 H11        -2.5490    0.3480    3.0560 h1        1 4F0      0.048700
     30 H12        -2.2160   -0.0880    4.8000 h1        1 4F0      0.048700
     31 H13         0.4090   -0.7770    5.4420 h4        1 4F0      0.176000
     32 H14         2.5680   -0.1180    4.2920 hn        1 4F0      0.300700
     33 H15         4.1140   -0.1700    2.1480 hn        1 4F0      0.396300
     34 H16         4.3150    0.8710    0.8720 hn        1 4F0      0.396300
     35 H17        -1.0750   -2.4720    4.7970 h1        1 4F0      0.062200
     36 H18        -1.6440   -3.5900    3.4730 h1        1 4F0      0.062200
     37 H19        -3.1400   -4.4990    4.9940 h1        1 4F0      0.043700
     38 H20        -3.3250   -3.4460    7.0540 ho        1 4F0      0.402000
     39 C10        -2.0080   -0.3830    3.7270 c3        1 4F0      0.234000
@<TRIPOS>BOND
     1    1   15 ar  
     2    1   16 ar  
     3    1   20 1   
     4    2    3 ar  
     5    2   11 1   
     6    2   16 ar  
     7    3    4 ar  
     8    3   13 1   
     9    4   14 1   
    10    4   15 ar  
    11    5    6 1   
    12    5   21 1   
    13    5   22 1   
    14    5   23 1   
    15    6    7 1   
    16    7    8 1   
    17    7   24 1   
    18    7   25 1   
    19    8    9 1   
    20    8   18 1   
    21    8   26 1   
    22    9   10 1   
    23    9   27 1   
    24    9   28 1   
    25   10   17 1   
    26   10   39 1   
    27   11   12 2   
    28   11   39 1   
    29   12   13 1   
    30   12   31 1   
    31   13   32 1   
    32   14   33 1   
    33   14   34 1   
    34   17   18 1   
    35   17   35 1   
    36   17   36 1   
    37   18   19 1   
    38   18   37 1   
    39   19   38 1   
    40   29   39 1   
    41   30   39 1   
@<TRIPOS>SUBSTRUCTURE
     1 4F0         1 TEMP              0 ****  ****    0 ROOT
