@<TRIPOS>MOLECULE
4F0
   39    40     1     0     0
SMALL
bcc


@<TRIPOS>ATOM
      1 C2          0.5720    1.3800    0.4590 c1        1 4F0      0.197400
      2 C4          0.2300    1.0150    2.7860 c2        1 4F0      0.020700
      3 C5          1.4180    0.2240    2.8200 ce        1 4F0     -0.219000
      4 C6          2.1620    0.0470    1.5910 ce        1 4F0      0.624600
      5 CS5        -8.3450   -4.6330    3.2970 c3        1 4F0     -0.046500
      6 S          -6.9080   -3.8250    3.8940 ss        1 4F0     -0.303200
      7 C5'        -5.9360   -5.1500    4.5070 c3        1 4F0     -0.046500
      8 C4'        -3.8600   -2.1200    3.5310 c2        1 4F0     -0.289200
      9 C1'        -3.4480   -0.8460    3.3220 c2        1 4F0      0.022000
     10 N1'        -2.0720   -0.6360    3.6340 nh        1 4F0     -0.629400
     11 C9         -0.3180    1.0440    4.2020 c3        1 4F0     -0.142800
     12 C8          0.7050    0.1350    4.8980 c2        1 4F0      0.353200
     13 N7          1.6670   -0.2940    4.1190 ne        1 4F0     -0.492300
     14 N6          3.3030   -0.6980    1.5840 nv        1 4F0     -0.498100
     15 N1          1.6880    0.6530    0.4450 ne        1 4F0     -0.735700
     16 N3         -0.1820    1.5800    1.6310 nu        1 4F0     -0.201600
     17 C2'        -1.5720   -1.8910    4.2230 c3        1 4F0      0.121800
     18 C3'        -2.7310   -2.9370    4.1130 c3        1 4F0      0.163300
     19 O3'        -3.0360   -3.5330    5.3540 oh        1 4F0     -0.594800
     20 H1         -1.0250    2.1040    1.5810 hn        1 4F0      0.299700
     21 H2         -8.1040   -5.3690    2.4980 h1        1 4F0      0.065867
     22 H3         -8.8920   -5.1590    4.1100 h1        1 4F0      0.065867
     23 H4         -8.9990   -3.8360    2.8740 h1        1 4F0      0.065867
     24 H5         -6.4040   -5.6310    5.3940 h1        1 4F0      0.065867
     25 H6         -5.7590   -5.9280    3.7330 h1        1 4F0      0.065867
     26 H7         -4.9550   -4.7030    4.8060 h1        1 4F0      0.065867
     27 H8         -4.8350   -2.5580    3.3100 ha        1 4F0      0.180000
     28 H9         -4.0190   -0.0130    2.8960 h4        1 4F0      0.159000
     29 H11        -1.9740    0.4920    5.4550 h1        1 4F0      0.044700
     30 H12        -2.4270    1.4020    3.9390 h1        1 4F0      0.044700
     31 H13        -0.2320    2.0820    4.6230 hc        1 4F0      0.102700
     32 H14         0.6300   -0.1110    5.9610 h4        1 4F0      0.045800
     33 H15         3.6120   -1.1300    2.4180 hn        1 4F0      0.295200
     34 H16         3.8120   -0.8310    0.7440 hn        1 4F0      0.295200
     35 H17        -0.6880   -2.2240    3.6200 h1        1 4F0      0.063200
     36 H18        -1.2560   -1.7670    5.2930 h1        1 4F0      0.063200
     37 H19        -2.4370   -3.7950    3.4510 h1        1 4F0      0.095700
     38 H20        -3.4440   -2.8590    5.9110 ho        1 4F0      0.402000
     39 C10        -1.7640    0.5840    4.3470 c3        1 4F0      0.207800
@<TRIPOS>BOND
     1    1   15 2   
     2    1   16 2   
     3    2    3 2   
     4    2   11 1   
     5    2   16 1   
     6    3    4 1   
     7    3   13 1   
     8    4   14 2   
     9    4   15 1   
    10    5    6 1   
    11    5   21 1   
    12    5   22 1   
    13    5   23 1   
    14    6    7 1   
    15    7   24 1   
    16    7   25 1   
    17    7   26 1   
    18    8    9 2   
    19    8   18 1   
    20    8   27 1   
    21    9   10 1   
    22    9   28 1   
    23   10   17 1   
    24   10   39 1   
    25   11   12 1   
    26   11   31 1   
    27   11   39 1   
    28   12   13 2   
    29   12   32 1   
    30   14   33 1   
    31   14   34 1   
    32   16   20 1   
    33   17   18 1   
    34   17   35 1   
    35   17   36 1   
    36   18   19 1   
    37   18   37 1   
    38   19   38 1   
    39   29   39 1   
    40   30   39 1   
@<TRIPOS>SUBSTRUCTURE
     1 4F0         1 TEMP              0 ****  ****    0 ROOT
