@<TRIPOS>MOLECULE
4F2
   64    67     1     0     0
SMALL
bcc


@<TRIPOS>ATOM
      1 C10         0.0170    0.2340    0.6370 c3        1 4F2     -0.106400
      2 C11         1.5140    0.0790    0.3020 c3        1 4F2      0.220500
      3 C12         2.3010    0.0390    1.6260 c3        1 4F2     -0.106400
      4 C13         1.8540   -1.1320    2.4840 c3        1 4F2     -0.103900
      5 C18         5.4460    0.7490   -2.7910 ca        1 4F2     -0.379400
      6 C19         6.6260    0.6370   -3.5990 cc        1 4F2     -0.031200
      7 C20         7.1390    1.7320   -4.1880 cd        1 4F2     -0.214200
      8 C21         6.5190    3.0580   -4.0260 c         1 4F2      0.692700
      9 C24         4.6800    4.4680   -3.1000 c3        1 4F2      0.091700
     10 C25         4.2180    5.1020   -4.4310 c3        1 4F2     -0.090400
     11 C26         4.1730    6.6010   -4.1700 c3        1 4F2     -0.076400
     12 C28         5.5470    5.5510   -2.4200 c3        1 4F2     -0.090400
     13 C29         4.8020    2.0320   -2.6260 ca        1 4F2      0.627200
     14 C15         3.1820    0.9770   -1.2910 ca        1 4F2      0.879900
     15 C01        -2.7570   -3.8900    2.3750 c3        1 4F2     -0.158100
     16 C02        -3.3650   -3.3010    3.6310 c3        1 4F2      0.156500
     17 C03        -4.4170   -4.2240    4.2220 c3        1 4F2     -0.158100
     18 N04        -2.2790   -3.0350    4.6990 n4        1 4F2     -0.675800
     19 O06        -1.7680   -0.7490    4.6010 o         1 4F2     -0.291100
     20 N07        -0.0990   -2.1510    3.6750 n4        1 4F2     -0.662800
     21 C08         0.3590   -0.9740    2.7740 c3        1 4F2      0.142500
     22 C09        -0.4530   -0.9380    1.4830 c3        1 4F2     -0.103900
     23 N14         1.9330    1.1030   -0.6210 nh        1 4F2     -0.822900
     24 N16         3.7710   -0.2840   -1.3750 nb        1 4F2     -0.795000
     25 C17         4.8730   -0.3530   -2.1290 ca        1 4F2      0.508200
     26 N23         5.3320    3.1630   -3.2400 n         1 4F2     -0.411300
     27 C27         4.9990    6.8800   -2.9200 c3        1 4F2     -0.076400
     28 N30         3.6660    2.1290   -1.8500 nb        1 4F2     -0.783000
     29 H101       -0.1700    1.1990    1.1770 hc        1 4F2      0.091700
     30 H102       -0.5870    0.2510   -0.3110 hc        1 4F2      0.091700
     31 H111        1.6470   -0.9230   -0.2110 h1        1 4F2      0.095700
     32 H121        3.3970   -0.0920    1.4090 hc        1 4F2      0.091700
     33 H122        2.1780    1.0020    2.1870 hc        1 4F2      0.091700
     34 H131        2.4480   -1.1340    3.4370 hc        1 4F2      0.071200
     35 H132        2.0540   -2.0890    1.9330 hc        1 4F2      0.071200
     36 H191        7.0850   -0.3580   -3.7170 ha        1 4F2      0.153000
     37 H201        8.0410    1.7190   -4.8210 ha        1 4F2      0.183000
     38 H241        3.7550    4.3430   -2.4640 h1        1 4F2      0.080700
     39 H252        4.9350    4.8790   -5.2610 hc        1 4F2      0.059200
     40 H251        3.2160    4.7050   -4.7230 hc        1 4F2      0.059200
     41 H262        3.1170    6.9400   -4.0210 hc        1 4F2      0.050200
     42 H261        4.5820    7.1590   -5.0480 hc        1 4F2      0.050200
     43 H281        5.4730    5.4670   -1.3080 hc        1 4F2      0.059200
     44 H282        6.6250    5.4480   -2.7050 hc        1 4F2      0.059200
     45 H013       -3.5970   -4.1030    1.6560 hc        1 4F2      0.099867
     46 H012       -2.0640   -3.1750    1.8670 hc        1 4F2      0.099867
     47 H011       -2.2380   -4.8620    2.5660 hc        1 4F2      0.099867
     48 H021       -3.8210   -2.2850    3.4170 hx        1 4F2      0.131700
     49 H033       -4.0140   -5.2480    4.4200 hc        1 4F2      0.099867
     50 H031       -4.8700   -3.8110    5.1570 hc        1 4F2      0.099867
     51 H032       -5.2450   -4.3220    3.4660 hc        1 4F2      0.099867
     52 H041       -1.7510   -3.9020    4.8600 hn        1 4F2      0.493300
     53 H071       -0.1410   -2.9970    3.0880 hn        1 4F2      0.486800
     54 H081        0.1800   -0.0330    3.3780 hx        1 4F2      0.136700
     55 H091       -0.3150   -1.8880    0.8990 hc        1 4F2      0.071200
     56 H092       -1.5450   -0.8090    1.7090 hc        1 4F2      0.071200
     57 H141        1.7070    2.0370   -0.3420 hn        1 4F2      0.431800
     58 H171        5.3380   -1.3550   -2.2120 h4        1 4F2      0.037100
     59 H271        4.3650    7.3620   -2.1340 hc        1 4F2      0.050200
     60 H272        5.8390    7.5830   -3.1480 hc        1 4F2      0.050200
     61 C05        -1.4010   -1.8840    4.3380 c         1 4F2      0.492100
     62 H042       -2.7720   -2.7850    5.5800 hn        1 4F2      0.493300
     63 H072        0.6240   -2.2800    4.4040 hn        1 4F2      0.486800
     64 O22         7.0000    4.0740   -4.5510 o         1 4F2     -0.572500
@<TRIPOS>BOND
     1    1    2 1   
     2    1   22 1   
     3    1   29 1   
     4    1   30 1   
     5    2    3 1   
     6    2   23 1   
     7    2   31 1   
     8    3    4 1   
     9    3   32 1   
    10    3   33 1   
    11    4   21 1   
    12    4   34 1   
    13    4   35 1   
    14    5    6 1   
    15    5   13 ar  
    16    5   25 ar  
    17    6    7 2   
    18    6   36 1   
    19    7    8 1   
    20    7   37 1   
    21    8   26 1   
    22    8   64 2   
    23    9   10 1   
    24    9   12 1   
    25    9   26 1   
    26    9   38 1   
    27   10   11 1   
    28   10   39 1   
    29   10   40 1   
    30   11   27 1   
    31   11   41 1   
    32   11   42 1   
    33   12   27 1   
    34   12   43 1   
    35   12   44 1   
    36   13   26 1   
    37   13   28 ar  
    38   14   23 1   
    39   14   24 ar  
    40   14   28 ar  
    41   15   16 1   
    42   15   45 1   
    43   15   46 1   
    44   15   47 1   
    45   16   17 1   
    46   16   18 1   
    47   16   48 1   
    48   17   49 1   
    49   17   50 1   
    50   17   51 1   
    51   18   52 1   
    52   18   61 1   
    53   18   62 1   
    54   19   61 2   
    55   20   21 1   
    56   20   53 1   
    57   20   61 1   
    58   20   63 1   
    59   21   22 1   
    60   21   54 1   
    61   22   55 1   
    62   22   56 1   
    63   23   57 1   
    64   24   25 ar  
    65   25   58 1   
    66   27   59 1   
    67   27   60 1   
@<TRIPOS>SUBSTRUCTURE
     1 4F2         1 TEMP              0 ****  ****    0 ROOT
