@<TRIPOS>MOLECULE
4F3
   44    35     1     0     0
SMALL
bcc


@<TRIPOS>ATOM
      1 C1          0.8930   -1.4770    3.1180 c1        1 4F3     -0.048000
      2 C2          2.2950   -1.6180    3.1110 c1        1 4F3      0.130000
      3 C3          3.0120   -1.4840    4.2920 c1        1 4F3     -0.213000
      4 C4          2.3480   -1.2110    5.4820 c1        1 4F3     -0.136500
      5 C5          0.9660   -1.0720    5.4910 c1        1 4F3     -0.136500
      6 C6          0.2370   -1.2080    4.2930 c1        1 4F3     -0.048000
      7 C7         -0.0350   -1.4530    2.0990 c1        1 4F3     -0.142000
      8 C8         -1.2700   -1.1660    2.6530 c1        1 4F3     -0.044000
      9 N9         -1.1040   -1.0160    4.0000 n1        1 4F3     -0.209000
     10 F10         3.3110   -1.8880    2.2850 f         1 4F3     -0.113000
     11 C11        -0.1220   -2.1540    0.7450 c2        1 4F3      0.005000
     12 C12        -0.0520   -1.1030   -0.3880 c2        1 4F3     -0.178000
     13 N13        -1.0670   -0.3390   -0.8100 n2        1 4F3     -0.145000
     14 C14        -0.6620    0.3180   -1.9350 c1        1 4F3     -0.110000
     15 N15         0.6200   -0.0530   -2.2010 n2        1 4F3     -0.117000
     16 C16         1.0040   -0.9250   -1.2570 c1        1 4F3      0.077000
     17 O17         2.2820   -1.5050   -1.1380 o         1 4F3     -0.265000
     18 C18         1.4320    0.4210   -3.3010 c2        1 4F3     -0.129000
     19 C           2.7140    1.0370   -2.7590 c2        1 4F3      0.331000
     20 O           3.6550    1.3210   -3.5440 o         1 4F3     -0.559500
     21 C22        -1.5380    1.1690   -2.8260 c2        1 4F3      0.021000
     22 C23        -2.2780    2.1840   -1.9860 c3        1 4F3      0.007000
     23 O24        -1.3770    2.8030   -1.0960 oh        1 4F3     -0.334000
     24 C25        -2.8930    3.2270   -2.8840 c3        1 4F3     -0.217000
     25 N          -2.4770    0.3380   -3.5040 n3        1 4F3     -0.335000
     26 OXT         2.8060    1.3210   -1.5430 o         1 4F3     -0.559500
     27 H3          3.9850   -1.5810    4.2860 ha        1 4F3      0.131000
     28 H4          2.8550   -1.0990    6.3100 ha        1 4F3      0.122500
     29 H5          0.5020   -0.8820    6.3230 ha        1 4F3      0.122500
     30 H8         -2.1160   -1.1420    2.1770 DU        1 4F3      0.240000
     31 H9         -1.7650   -0.8210    4.6050 DU        1 4F3      0.240000
     32 H111        0.6230   -2.7810    0.6550 ha        1 4F3      0.095000
     33 H112       -0.9660   -2.6410    0.6850 ha        1 4F3      0.095000
     34 H17         2.2940   -2.2880   -1.5600 ho        1 4F3      0.272000
     35 H181        1.6550   -0.3320   -3.8920 ha        1 4F3      0.099500
     36 H182        0.9340    1.0970   -3.8070 ha        1 4F3      0.099500
     37 H22        -0.9840    1.6320   -3.4800 h4        1 4F3      0.121000
     38 H23        -2.9830    1.7340   -1.4770 h1        1 4F3      0.089000
     39 HO42       -1.8320    3.2620   -0.4860 ho        1 4F3      0.225000
     40 H251       -3.0230    4.0590   -2.3790 hc        1 4F3      0.077333
     41 H252       -2.2950    3.3960   -3.6480 hc        1 4F3      0.077333
     42 H253       -3.7590    2.9050   -3.2130 hc        1 4F3      0.077333
     43 H          -2.5260    0.5870   -4.3840 hn        1 4F3      0.142000
     44 HN2        -3.3020    0.4280   -3.1140 hn        1 4F3      0.142000
@<TRIPOS>BOND
     1    1    6 1   
     2    2    3 1   
     3    2   10 1   
     4    3   27 1   
     5    4    5 1   
     6    4   28 1   
     7    5   29 1   
     8    7    8 1   
     9    8    9 1   
    10   11   12 1   
    11   11   32 1   
    12   11   33 1   
    13   12   13 1   
    14   12   16 1   
    15   13   14 1   
    16   14   15 1   
    17   15   16 1   
    18   17   34 1   
    19   18   19 1   
    20   18   35 1   
    21   18   36 1   
    22   19   20 1   
    23   19   26 1   
    24   21   22 1   
    25   21   25 1   
    26   21   37 1   
    27   22   23 1   
    28   22   24 1   
    29   22   38 1   
    30   23   39 1   
    31   24   40 1   
    32   24   41 1   
    33   24   42 1   
    34   25   43 1   
    35   25   44 1   
@<TRIPOS>SUBSTRUCTURE
     1 4F3         1 TEMP              0 ****  ****    0 ROOT
