@<TRIPOS>MOLECULE
4F3
   44    46     1     0     0
SMALL
bcc


@<TRIPOS>ATOM
      1 C1         -4.9600    1.5080    1.7270 ca        1 4F3     -0.113800
      2 C2         -5.0850    0.1930    1.2440 ca        1 4F3      0.164900
      3 C3         -5.8090   -0.0460    0.0690 ca        1 4F3     -0.213000
      4 C4         -6.4090    1.0100   -0.6320 ca        1 4F3     -0.111000
      5 C5         -6.3140    2.3230   -0.2000 ca        1 4F3     -0.162000
      6 C6         -5.5910    2.5780    0.9760 ca        1 4F3     -0.039200
      7 C7         -4.3120    2.1280    2.8620 cc        1 4F3     -0.134400
      8 C8         -4.5580    3.5020    2.7710 cd        1 4F3     -0.071100
      9 N9         -5.3350    3.7740    1.6420 na        1 4F3     -0.186400
     10 F10        -4.5150   -0.8460    1.9010 f         1 4F3     -0.147900
     11 C11        -3.5480    1.4400    3.9220 c3        1 4F3     -0.006500
     12 C12        -2.5950    2.3580    4.5850 cc        1 4F3      0.244600
     13 N13        -1.2200    2.3920    4.3720 nc        1 4F3     -0.671000
     14 C14        -0.7540    3.4850    5.0370 cd        1 4F3      0.335800
     15 N15        -1.7810    4.1410    5.7490 na        1 4F3     -0.161900
     16 C16        -2.9540    3.4300    5.4460 cd        1 4F3      0.032500
     17 O17        -4.1740    3.6730    5.9930 oh        1 4F3     -0.511100
     18 C18        -1.7800    5.4670    6.2970 c3        1 4F3     -0.119700
     19 C          -2.6250    6.5150    5.5030 c         1 4F3      0.911600
     20 O          -3.6430    6.1150    4.8620 o         1 4F3     -0.824800
     21 C22         0.7020    3.8810    5.1010 c3        1 4F3      0.124200
     22 C23         1.3270    3.7430    3.6800 c3        1 4F3      0.118100
     23 O24         0.7160    4.6490    2.7750 oh        1 4F3     -0.606800
     24 C25         2.8060    4.0940    3.6860 c3        1 4F3     -0.099100
     25 N           1.3840    3.1360    6.1440 n3        1 4F3     -0.902800
     26 OXT        -2.2500    7.7090    5.5920 o         1 4F3     -0.824800
     27 H3         -5.9040   -1.0740   -0.3050 ha        1 4F3      0.131000
     28 H4         -6.9680    0.7820   -1.5510 ha        1 4F3      0.119000
     29 H5         -6.7860    3.1400   -0.7590 ha        1 4F3      0.126000
     30 H8         -4.2350    4.3150    3.4440 h4        1 4F3      0.228000
     31 H9         -5.6080    4.6700    1.3390 hn        1 4F3      0.301700
     32 H111       -4.2670    1.0490    4.6950 hc        1 4F3      0.055700
     33 H112       -3.0120    0.5560    3.4800 hc        1 4F3      0.055700
     34 H17        -4.3820    4.6260    5.8630 ho        1 4F3      0.473000
     35 H181       -0.7250    5.8430    6.3720 h1        1 4F3      0.060200
     36 H182       -2.2150    5.4100    7.3340 h1        1 4F3      0.060200
     37 H22         0.7820    4.9770    5.3770 h1        1 4F3      0.081700
     38 H23         1.1880    2.6920    3.2980 h1        1 4F3      0.049700
     39 HO42       -0.2410    4.5420    2.8630 ho        1 4F3      0.426000
     40 H251        3.4070    3.2300    4.0530 hc        1 4F3      0.038033
     41 H252        2.9990    4.9810    4.3350 hc        1 4F3      0.038033
     42 H253        3.1320    4.3430    2.6470 hc        1 4F3      0.038033
     43 H           2.3760    3.1900    6.0120 hn        1 4F3      0.346800
     44 HN2         1.1070    2.1740    6.1370 hn        1 4F3      0.346800
@<TRIPOS>BOND
     1    1    2 ar  
     2    1    6 ar  
     3    1    7 1   
     4    2    3 ar  
     5    2   10 1   
     6    3    4 ar  
     7    3   27 1   
     8    4    5 ar  
     9    4   28 1   
    10    5    6 ar  
    11    5   29 1   
    12    6    9 1   
    13    7    8 2   
    14    7   11 1   
    15    8    9 1   
    16    8   30 1   
    17    9   31 1   
    18   11   12 1   
    19   11   32 1   
    20   11   33 1   
    21   12   13 1   
    22   12   16 2   
    23   13   14 2   
    24   14   15 1   
    25   14   21 1   
    26   15   16 1   
    27   15   18 1   
    28   16   17 1   
    29   17   34 1   
    30   18   19 1   
    31   18   35 1   
    32   18   36 1   
    33   19   20 1   
    34   19   26 1   
    35   21   22 1   
    36   21   25 1   
    37   21   37 1   
    38   22   23 1   
    39   22   24 1   
    40   22   38 1   
    41   23   39 1   
    42   24   40 1   
    43   24   41 1   
    44   24   42 1   
    45   25   43 1   
    46   25   44 1   
@<TRIPOS>SUBSTRUCTURE
     1 4F3         1 TEMP              0 ****  ****    0 ROOT
