@<TRIPOS>MOLECULE
4F4
   52    56     1     0     0
SMALL
bcc


@<TRIPOS>ATOM
      1 C10        -0.1950   -0.2110    0.1150 ca        1 4F4      0.013600
      2 O01         1.1160   -0.2140   -2.3290 o         1 4F4     -0.565100
      3 C02        -0.1250   -0.1580   -2.3300 c         1 4F4      0.639100
      4 N03        -0.8630   -0.2020   -1.1430 n         1 4F4     -0.381000
      5 C04        -2.2790    0.1040   -1.1340 c3        1 4F4      0.160300
      6 C05        -2.6390    1.5320   -1.3620 cc        1 4F4     -0.159300
      7 C06        -3.5880    1.9700   -2.2670 cd        1 4F4     -0.179100
      8 S07        -3.7770    3.6230   -2.2040 ss        1 4F4      0.054200
      9 C08        -2.6290    3.8270   -1.0090 cd        1 4F4     -0.171100
     10 C09        -2.0750    2.6260   -0.6260 cc        1 4F4     -0.135000
     11 C11         0.9100    0.6230    0.3750 ca        1 4F4     -0.106500
     12 C12         1.5470    0.5940    1.6070 ca        1 4F4     -0.159500
     13 C13         1.1020   -0.2700    2.6360 ca        1 4F4      0.067600
     14 N14         1.7940   -0.2710    3.8570 ns        1 4F4     -0.472100
     15 C15         1.3690   -0.8320    5.0590 c         1 4F4      0.718700
     16 C16         2.2880   -0.6820    6.2000 cc        1 4F4     -0.204700
     17 C17         1.8980   -0.9440    7.5050 cd        1 4F4     -0.077000
     18 C18         2.9680   -0.7340    8.4250 cd        1 4F4     -0.169000
     19 C19         4.1190   -0.3300    7.7800 cc        1 4F4     -0.146100
     20 S20         3.9030   -0.2140    6.1340 ss        1 4F4      0.042200
     21 O21         0.2830   -1.4290    5.1770 o         1 4F4     -0.582100
     22 C22        -0.0010   -1.1090    2.3720 ca        1 4F4     -0.159500
     23 C23        -0.6310   -1.0810    1.1350 ca        1 4F4     -0.106500
     24 C24        -0.9310   -0.1120   -3.6410 c3        1 4F4     -0.012700
     25 N25        -0.1440    0.0220   -4.8390 na        1 4F4      0.052900
     26 C26         0.4560   -1.0600   -5.5330 ca        1 4F4     -0.060200
     27 C27         0.2340   -2.4360   -5.5930 ca        1 4F4     -0.127000
     28 C28         1.0170   -3.1620   -6.4840 ca        1 4F4     -0.095000
     29 C29         1.9850   -2.5510   -7.2980 ca        1 4F4     -0.156000
     30 C30         2.2160   -1.1790   -7.2590 ca        1 4F4     -0.044000
     31 C31         1.4530   -0.4240   -6.3700 ca        1 4F4      0.014400
     32 N32         1.3970    0.9750   -6.0620 nc        1 4F4     -0.199400
     33 N33         0.5270    1.1730   -5.1800 nd        1 4F4     -0.121400
     34 H1         -2.7840   -0.5350   -1.9170 h1        1 4F4      0.062200
     35 H2         -2.6960   -0.2000   -0.1280 h1        1 4F4      0.062200
     36 H3         -4.1600    1.3330   -2.9400 h4        1 4F4      0.170000
     37 H4         -2.3670    4.8020   -0.6010 h4        1 4F4      0.175000
     38 H5         -1.3000    2.4920    0.1330 ha        1 4F4      0.165000
     39 H6          1.2980    1.2880   -0.4150 ha        1 4F4      0.147500
     40 H7          2.4130    1.2550    1.7670 ha        1 4F4      0.153500
     41 H8          2.6310    0.2690    3.8720 hn        1 4F4      0.315500
     42 H9          0.8940   -1.2730    7.7910 ha        1 4F4      0.177000
     43 H10         2.8680   -0.8820    9.5030 ha        1 4F4      0.162000
     44 H11         5.0690   -0.1110    8.2660 h4        1 4F4      0.177000
     45 H12        -0.3780   -1.8000    3.1450 ha        1 4F4      0.153500
     46 H13        -1.4810   -1.7610    0.9630 ha        1 4F4      0.147500
     47 H14        -1.5130   -1.0740   -3.7310 h1        1 4F4      0.093700
     48 H15        -1.6480    0.7610   -3.5940 h1        1 4F4      0.093700
     49 H16        -0.5180   -2.9260   -4.9610 ha        1 4F4      0.140000
     50 H17         0.8770   -4.2530   -6.5510 ha        1 4F4      0.136000
     51 H18         2.5750   -3.1770   -7.9840 ha        1 4F4      0.138000
     52 H19         2.9710   -0.7040   -7.9010 ha        1 4F4      0.153000
@<TRIPOS>BOND
     1    1    4 1   
     2    1   11 ar  
     3    1   23 ar  
     4    2    3 2   
     5    3    4 1   
     6    3   24 1   
     7    4    5 1   
     8    5    6 1   
     9    5   34 1   
    10    5   35 1   
    11    6    7 2   
    12    6   10 1   
    13    7    8 1   
    14    7   36 1   
    15    8    9 1   
    16    9   10 2   
    17    9   37 1   
    18   10   38 1   
    19   11   12 ar  
    20   11   39 1   
    21   12   13 ar  
    22   12   40 1   
    23   13   14 1   
    24   13   22 ar  
    25   14   15 1   
    26   14   41 1   
    27   15   16 1   
    28   15   21 2   
    29   16   17 2   
    30   16   20 1   
    31   17   18 1   
    32   17   42 1   
    33   18   19 2   
    34   18   43 1   
    35   19   20 1   
    36   19   44 1   
    37   22   23 ar  
    38   22   45 1   
    39   23   46 1   
    40   24   25 1   
    41   24   47 1   
    42   24   48 1   
    43   25   26 1   
    44   25   33 1   
    45   26   27 ar  
    46   26   31 ar  
    47   27   28 ar  
    48   27   49 1   
    49   28   29 ar  
    50   28   50 1   
    51   29   30 ar  
    52   29   51 1   
    53   30   31 ar  
    54   30   52 1   
    55   31   32 1   
    56   32   33 2   
@<TRIPOS>SUBSTRUCTURE
     1 4F4         1 TEMP              0 ****  ****    0 ROOT
