@<TRIPOS>MOLECULE
4F6
   48    52     1     0     0
SMALL
bcc


@<TRIPOS>ATOM
      1 C1          0.8120    0.6510    0.3890 ca        1 4F6      0.120900
      2 C2          2.2120    0.5220    0.4590 ca        1 4F6     -0.156000
      3 C3          2.7990    0.1870    1.6750 ca        1 4F6     -0.106000
      4 C11        -0.0070   -2.5090    3.7720 cc        1 4F6      0.554200
      5 C12         1.5470   -4.7110    3.1350 cd        1 4F6     -0.067300
      6 C13         0.3940   -4.4350    2.3290 cd        1 4F6     -0.054000
      7 C14        -0.3750   -3.3520    2.6390 cc        1 4F6     -0.203300
      8 C15         3.3700   -5.4320    4.1010 cc        1 4F6      0.025600
      9 C16         2.9940   -4.2830    4.8530 cd        1 4F6     -0.094300
     10 C17         3.6710   -3.7080    5.9930 ca        1 4F6      0.011200
     11 C18         5.0730   -3.7980    6.0520 ca        1 4F6     -0.121500
     12 C19         5.7690   -3.2830    7.1390 ca        1 4F6     -0.091500
     13 C20         5.0720   -2.6640    8.1870 ca        1 4F6     -0.017000
     14 C21         3.6750   -2.5730    8.1350 ca        1 4F6     -0.091500
     15 C22         2.9790   -3.0940    7.0460 ca        1 4F6     -0.121500
     16 C23         5.7810   -2.1320    9.2970 cg        1 4F6      0.232800
     17 N5          6.3620   -1.6970   10.2070 n1        1 4F6     -0.359800
     18 N3          1.8130   -3.8100    4.2410 na        1 4F6      0.191200
     19 N2          1.0730   -2.7580    4.5430 nd        1 4F6     -0.510800
     20 N4          2.4950   -5.6880    3.0700 nc        1 4F6     -0.259600
     21 N1         -0.8790   -1.3920    4.0390 nh        1 4F6     -0.697300
     22 C10        -1.6330   -1.5350    5.2830 c3        1 4F6      0.129800
     23 C9         -0.9440   -1.0080    6.5450 c3        1 4F6      0.094400
     24 O          -0.4450    0.3110    6.3500 os        1 4F6     -0.408600
     25 C8          0.4480    0.3960    5.2440 c3        1 4F6      0.098400
     26 C7         -0.2580   -0.0600    3.9500 c3        1 4F6      0.191800
     27 C5          0.6290    0.1150    2.7470 ca        1 4F6     -0.065300
     28 C6          0.0210    0.4470    1.5320 ca        1 4F6     -0.148000
     29 F           0.2230    0.9730   -0.7880 f         1 4F6     -0.139900
     30 C4          2.0180   -0.0190    2.8120 ca        1 4F6     -0.132000
     31 H1          2.8220    0.6850   -0.4410 ha        1 4F6      0.151000
     32 H2          3.8930    0.0810    1.7390 ha        1 4F6      0.142000
     33 H12         0.1740   -5.1070    1.4860 ha        1 4F6      0.173000
     34 H13        -1.2670   -3.0880    2.0530 ha        1 4F6      0.171000
     35 H14         4.2340   -6.0730    4.2890 h4        1 4F6      0.189000
     36 H15         5.6220   -4.2790    5.2270 ha        1 4F6      0.147000
     37 H16         6.8670   -3.3570    7.1760 ha        1 4F6      0.148000
     38 H17         3.1240   -2.0910    8.9580 ha        1 4F6      0.148000
     39 H18         1.8810   -3.0230    7.0310 ha        1 4F6      0.147000
     40 H10        -1.9010   -2.6160    5.4360 h1        1 4F6      0.070700
     41 H11        -2.5860   -0.9520    5.1230 h1        1 4F6      0.070700
     42 H8         -0.1050   -1.6830    6.8600 h1        1 4F6      0.059700
     43 H9         -1.6860   -0.9030    7.3790 h1        1 4F6      0.059700
     44 H7          0.7070    1.4850    5.1770 h1        1 4F6      0.067200
     45 H6          1.3660   -0.2090    5.4600 h1        1 4F6      0.067200
     46 H5         -1.1530    0.6310    3.8200 h1        1 4F6      0.084700
     47 H4         -1.0730    0.5490    1.4610 ha        1 4F6      0.154000
     48 H3          2.5110   -0.2910    3.7580 ha        1 4F6      0.146000
@<TRIPOS>BOND
     1    1    2 ar  
     2    1   28 ar  
     3    1   29 1   
     4    2    3 ar  
     5    2   31 1   
     6    3   30 ar  
     7    3   32 1   
     8    4    7 1   
     9    4   19 2   
    10    4   21 1   
    11    5    6 1   
    12    5   18 1   
    13    5   20 2   
    14    6    7 2   
    15    6   33 1   
    16    7   34 1   
    17    8    9 2   
    18    8   20 1   
    19    8   35 1   
    20    9   10 1   
    21    9   18 1   
    22   10   11 ar  
    23   10   15 ar  
    24   11   12 ar  
    25   11   36 1   
    26   12   13 ar  
    27   12   37 1   
    28   13   14 ar  
    29   13   16 1   
    30   14   15 ar  
    31   14   38 1   
    32   15   39 1   
    33   16   17 3   
    34   18   19 1   
    35   21   22 1   
    36   21   26 1   
    37   22   23 1   
    38   22   40 1   
    39   22   41 1   
    40   23   24 1   
    41   23   42 1   
    42   23   43 1   
    43   24   25 1   
    44   25   26 1   
    45   25   44 1   
    46   25   45 1   
    47   26   27 1   
    48   26   46 1   
    49   27   28 ar  
    50   27   30 ar  
    51   28   47 1   
    52   30   48 1   
@<TRIPOS>SUBSTRUCTURE
     1 4F6         1 TEMP              0 ****  ****    0 ROOT
