@<TRIPOS>MOLECULE
4F7
   39    42     1     0     0
SMALL
bcc


@<TRIPOS>ATOM
      1 C1          0.0210    0.9030    0.3810 ca        1 4F7     -0.116000
      2 C2          1.3070    1.3700    0.6440 ca        1 4F7     -0.133000
      3 C3          1.9080    1.1260    1.8780 ca        1 4F7     -0.131000
      4 C4          1.2150    0.4120    2.8560 ca        1 4F7     -0.133000
      5 C5         -0.0720   -0.0570    2.6010 ca        1 4F7     -0.116000
      6 C6         -0.6810    0.1820    1.3590 ca        1 4F7     -0.100500
      7 N1         -2.8480    0.1310    0.0650 nc        1 4F7     -0.663000
      8 C7         -2.0170   -0.3200    1.1030 cc        1 4F7      0.354800
      9 C8         -2.6890   -1.3260    1.8380 cd        1 4F7     -0.237600
     10 C9         -3.9980   -0.5790    0.1640 cd        1 4F7      0.397800
     11 N2         -3.9330   -1.4840    1.2430 na        1 4F7     -0.316900
     12 C10        -5.2080   -0.4830   -0.7050 c3        1 4F7     -0.094700
     13 C11        -5.0780    0.6240   -1.7300 c3        1 4F7     -0.122700
     14 C12        -6.2730    0.7770   -2.6200 ca        1 4F7      0.314300
     15 C13        -6.1990    1.8530   -3.6040 ca        1 4F7      0.296900
     16 C14        -8.2960    1.3050   -4.3890 ca        1 4F7      0.277300
     17 C15        -9.3900    1.5210   -5.2790 ca        1 4F7     -0.154300
     18 C16       -10.5040    0.7200   -5.2080 ca        1 4F7     -0.126000
     19 C17       -10.5860   -0.3240   -4.2600 ca        1 4F7     -0.121000
     20 C18        -9.5550   -0.5650   -3.3850 ca        1 4F7     -0.162300
     21 C19        -8.3790    0.2420   -3.4230 ca        1 4F7      0.293300
     22 N3         -7.1670    2.1110   -4.4560 nb        1 4F7     -0.618000
     23 N4         -7.3400   -0.0050   -2.5370 nb        1 4F7     -0.641000
     24 H1         -0.4440    1.1030   -0.5970 ha        1 4F7      0.137500
     25 H2          1.8500    1.9350   -0.1290 ha        1 4F7      0.130000
     26 H3          2.9230    1.4960    2.0810 ha        1 4F7      0.129000
     27 H4          1.6830    0.2190    3.8320 ha        1 4F7      0.130000
     28 H5         -0.6140   -0.6120    3.3800 ha        1 4F7      0.137500
     29 H7         -2.3720   -1.9130    2.6970 h4        1 4F7      0.179000
     30 H8         -4.6410   -2.1110    1.5190 hn        1 4F7      0.301700
     31 H9         -6.1080   -0.2980   -0.0570 hc        1 4F7      0.067700
     32 H10        -5.3580   -1.4680   -1.2240 hc        1 4F7      0.067700
     33 H11        -4.1840    0.4320   -2.3850 hc        1 4F7      0.079200
     34 H12        -4.9070    1.6050   -1.2090 hc        1 4F7      0.079200
     35 H13        -5.2960    2.4870   -3.6470 h4        1 4F7      0.037100
     36 H14        -9.3250    2.3350   -6.0180 ha        1 4F7      0.153000
     37 H15       -11.3480    0.8850   -5.8940 ha        1 4F7      0.139000
     38 H16       -11.4930   -0.9460   -4.2310 ha        1 4F7      0.138000
     39 H17        -9.6220   -1.3800   -2.6460 ha        1 4F7      0.150000
@<TRIPOS>BOND
     1    1    2 ar  
     2    1    6 ar  
     3    1   24 1   
     4    2    3 ar  
     5    2   25 1   
     6    3    4 ar  
     7    3   26 1   
     8    4    5 ar  
     9    4   27 1   
    10    5    6 ar  
    11    5   28 1   
    12    6    8 1   
    13    7    8 1   
    14    7   10 2   
    15    8    9 2   
    16    9   11 1   
    17    9   29 1   
    18   10   11 1   
    19   10   12 1   
    20   11   30 1   
    21   12   13 1   
    22   12   31 1   
    23   12   32 1   
    24   13   14 1   
    25   13   33 1   
    26   13   34 1   
    27   14   15 ar  
    28   14   23 ar  
    29   15   22 ar  
    30   15   35 1   
    31   16   17 ar  
    32   16   21 ar  
    33   16   22 ar  
    34   17   18 ar  
    35   17   36 1   
    36   18   19 ar  
    37   18   37 1   
    38   19   20 ar  
    39   19   38 1   
    40   20   21 ar  
    41   20   39 1   
    42   21   23 ar  
@<TRIPOS>SUBSTRUCTURE
     1 4F7         1 TEMP              0 ****  ****    0 ROOT
