@<TRIPOS>MOLECULE
4F8
   23    17     1     0     0
SMALL
bcc


@<TRIPOS>ATOM
      1 N4C         0.6120    0.0390   -1.1820 ne        1 4F8     -0.414400
      2 C5C         1.9470    0.0090   -1.2300 cg        1 4F8     -0.040000
      3 C6C         2.4150   -0.0370    0.0550 ch        1 4F8     -0.040000
      4 C7C         3.8690   -0.0380    0.4720 c1        1 4F8      0.868000
      5 O8C         4.4830   -1.1280    0.6120 o         1 4F8     -0.805500
      6 O9C         4.4590    1.0510    0.7010 o         1 4F8     -0.805500
      7 C1D        -1.1290    0.0160    0.3420 c1        1 4F8      0.096000
      8 C2D        -1.8220    1.2150    0.3730 c1        1 4F8     -0.079500
      9 C3D        -3.1940    1.2180    0.5700 c1        1 4F8     -0.104000
     10 C4D        -3.8730    0.0210    0.7370 c1        1 4F8     -0.104000
     11 C5D        -3.1790   -1.1790    0.7060 c1        1 4F8     -0.104000
     12 C6D        -1.8070   -1.1810    0.5090 c1        1 4F8     -0.104000
     13 C7D         0.2390    0.0110    0.1200 c1        1 4F8      0.258800
     14 O           3.0450    1.0770   -3.0830 o         1 4F8     -0.805500
     15 O2          3.2260   -1.0920   -2.9420 o         1 4F8     -0.805500
     16 N3          1.3620   -0.0360    0.8780 nf        1 4F8     -0.414400
     17 C6          2.7910   -0.0020   -2.4850 c1        1 4F8      0.868000
     18 H3          1.3940   -0.0620    1.7890 DU        1 4F8      0.244000
     19 H2D        -1.3430    2.0590    0.2650 ha        1 4F8      0.101500
     20 H6D        -1.3190   -2.0260    0.4870 ha        1 4F8      0.047000
     21 H3D        -3.6820    2.0630    0.5920 ha        1 4F8      0.047000
     22 H4D        -4.8370    0.0240    0.8900 ha        1 4F8      0.047000
     23 H5D        -3.6570   -2.0220    0.8240 ha        1 4F8      0.047000
@<TRIPOS>BOND
     1    1    2 1   
     2    1   13 2   
     3    2    3 3   
     4    3   16 1   
     5    4    5 2   
     6    4    6 2   
     7    7    8 3   
     8    8   19 1   
     9    9   10 3   
    10    9   21 1   
    11   10   22 1   
    12   11   12 3   
    13   11   23 1   
    14   12   20 1   
    15   13   16 2   
    16   14   17 2   
    17   15   17 2   
@<TRIPOS>SUBSTRUCTURE
     1 4F8         1 TEMP              0 ****  ****    0 ROOT
