@<TRIPOS>MOLECULE
4F8
   23    24     1     0     0
SMALL
bcc


@<TRIPOS>ATOM
      1 N4C        -0.0020    0.0490   -0.1160 nc        1 4F8     -0.651000
      2 C5C         1.3720    0.0090   -0.0810 cc        1 4F8      0.304800
      3 C6C         1.8210   -0.0710    1.2860 cd        1 4F8     -0.181200
      4 C7C         3.1530   -0.1390    2.0210 c         1 4F8      0.934200
      5 O8C         4.1960   -0.4980    1.4270 o         1 4F8     -0.833300
      6 O9C         3.1170    0.1480    3.2620 o         1 4F8     -0.833300
      7 C1D        -1.8200    0.0140    1.6270 ca        1 4F8     -0.011500
      8 C2D        -2.8600    0.1000    0.6740 ca        1 4F8     -0.159000
      9 C3D        -4.1890    0.1160    1.0760 ca        1 4F8     -0.130500
     10 C4D        -4.5250    0.0490    2.4310 ca        1 4F8     -0.204000
     11 C5D        -3.5090   -0.0360    3.3790 ca        1 4F8     -0.130500
     12 C6D        -2.1730   -0.0530    2.9890 ca        1 4F8     -0.159000
     13 C7D        -0.4460    0.0010    1.1910 cd        1 4F8      0.277000
     14 O           2.5670    1.2050   -1.7700 o         1 4F8     -0.841300
     15 O2          2.3370   -1.0000   -2.0250 o         1 4F8     -0.841300
     16 N3          0.6640   -0.0800    2.0510 na        1 4F8     -0.272900
     17 C6          2.1730    0.0710   -1.3770 c         1 4F8      0.860100
     18 H3          0.6620   -0.0690    3.0370 hn        1 4F8      0.293700
     19 H2D        -2.6050    0.1530   -0.3960 ha        1 4F8      0.141000
     20 H6D        -1.3960   -0.1210    3.7630 ha        1 4F8      0.141000
     21 H3D        -4.9850    0.1830    0.3210 ha        1 4F8      0.099500
     22 H4D        -5.5770    0.0620    2.7420 ha        1 4F8      0.096000
     23 H5D        -3.7610   -0.0900    4.4480 ha        1 4F8      0.099500
@<TRIPOS>BOND
     1    1    2 1   
     2    1   13 2   
     3    2    3 2   
     4    2   17 1   
     5    3    4 1   
     6    3   16 1   
     7    4    5 1   
     8    4    6 1   
     9    7    8 ar  
    10    7   12 ar  
    11    7   13 1   
    12    8    9 ar  
    13    8   19 1   
    14    9   10 ar  
    15    9   21 1   
    16   10   11 ar  
    17   10   22 1   
    18   11   12 ar  
    19   11   23 1   
    20   12   20 1   
    21   13   16 1   
    22   14   17 1   
    23   15   17 1   
    24   16   18 1   
@<TRIPOS>SUBSTRUCTURE
     1 4F8         1 TEMP              0 ****  ****    0 ROOT
