@<TRIPOS>MOLECULE
4F8
   23    24     1     0     0
SMALL
bcc


@<TRIPOS>ATOM
      1 N4C        -0.0480   -1.1750   -0.0550 nc        1 4F8     -0.651000
      2 C5C        -1.3580   -0.7640   -0.0070 cc        1 4F8      0.304800
      3 C6C        -1.4120    0.6740    0.0840 cd        1 4F8     -0.181200
      4 C7C        -2.4900    1.7470    0.1630 c         1 4F8      0.934200
      5 O8C        -3.6550    1.4610    0.5240 o         1 4F8     -0.833300
      6 O9C        -2.1150    2.9330   -0.1170 o         1 4F8     -0.833300
      7 C1D         2.1810   -0.0020   -0.0190 ca        1 4F8     -0.011500
      8 C2D         2.9180   -1.2040   -0.1160 ca        1 4F8     -0.159000
      9 C3D         4.3060   -1.1830   -0.1370 ca        1 4F8     -0.130500
     10 C4D         5.0020    0.0250   -0.0630 ca        1 4F8     -0.204000
     11 C5D         4.2870    1.2170    0.0330 ca        1 4F8     -0.130500
     12 C6D         2.8960    1.2100    0.0550 ca        1 4F8     -0.159000
     13 C7D         0.7400   -0.0420   -0.0010 cd        1 4F8      0.277000
     14 O          -2.9770   -2.0490   -1.2070 o         1 4F8     -0.841300
     15 O2         -2.8190   -2.3730    0.9950 o         1 4F8     -0.841300
     16 N3         -0.0900    1.0900    0.0910 na        1 4F8     -0.272900
     17 C6         -2.4860   -1.7880   -0.0730 c         1 4F8      0.860100
     18 H3          0.1840    2.0380    0.0860 hn        1 4F8      0.293700
     19 H2D         2.3770   -2.1610   -0.1740 ha        1 4F8      0.141000
     20 H6D         2.3620    2.1670    0.1310 ha        1 4F8      0.141000
     21 H3D         4.8620   -2.1280   -0.2120 ha        1 4F8      0.099500
     22 H4D         6.0990    0.0350   -0.0800 ha        1 4F8      0.096000
     23 H5D         4.8250    2.1740    0.0910 ha        1 4F8      0.099500
@<TRIPOS>BOND
     1    1    2 1   
     2    1   13 2   
     3    2    3 2   
     4    2   17 1   
     5    3    4 1   
     6    3   16 1   
     7    4    5 1   
     8    4    6 1   
     9    7    8 ar  
    10    7   12 ar  
    11    7   13 1   
    12    8    9 ar  
    13    8   19 1   
    14    9   10 ar  
    15    9   21 1   
    16   10   11 ar  
    17   10   22 1   
    18   11   12 ar  
    19   11   23 1   
    20   12   20 1   
    21   13   16 1   
    22   14   17 1   
    23   15   17 1   
    24   16   18 1   
@<TRIPOS>SUBSTRUCTURE
     1 4F8         1 TEMP              0 ****  ****    0 ROOT
