@<TRIPOS>MOLECULE
4FA
   19    19     1     0     0
SMALL
bcc


@<TRIPOS>ATOM
      1 C1         -0.0010   -0.4050    0.4760 ca        1 4FA     -0.096300
      2 C2          1.2080   -0.2800   -0.2200 ca        1 4FA     -0.102000
      3 C3         -1.2090   -0.2780   -0.2200 ca        1 4FA     -0.102000
      4 C4         -0.0010   -0.6790    1.9370 c3        1 4FA     -0.041100
      5 C5          1.2200   -0.0300   -1.5880 ca        1 4FA     -0.164000
      6 C6         -1.2200   -0.0280   -1.5880 ca        1 4FA     -0.164000
      7 C7          0.0000    0.0980   -2.2780 ca        1 4FA      0.122900
      8 F8          0.0010    0.3410   -3.6110 f         1 4FA     -0.141900
      9 C13         0.0010    0.6190    2.7340 c3        1 4FA      0.134400
     10 O14        -0.0000    0.2550    4.1060 oh        1 4FA     -0.603800
     11 HC2         2.1610   -0.3820    0.3220 ha        1 4FA      0.139000
     12 HC3        -2.1630   -0.3790    0.3210 ha        1 4FA      0.139000
     13 HC41        0.9010   -1.2830    2.2230 hc        1 4FA      0.064700
     14 HC42       -0.9050   -1.2800    2.2230 hc        1 4FA      0.064700
     15 HC5         2.1680    0.0680   -2.1350 ha        1 4FA      0.149000
     16 HC6        -2.1680    0.0710   -2.1360 ha        1 4FA      0.149000
     17 H131       -0.9130    1.2280    2.4980 h1        1 4FA      0.025700
     18 H132        0.9150    1.2250    2.4980 h1        1 4FA      0.025700
     19 H14         0.0010    1.0780    4.6080 ho        1 4FA      0.402000
@<TRIPOS>BOND
     1    1    2 ar  
     2    1    3 ar  
     3    1    4 1   
     4    2    5 ar  
     5    2   11 1   
     6    3    6 ar  
     7    3   12 1   
     8    4    9 1   
     9    4   13 1   
    10    4   14 1   
    11    5    7 ar  
    12    5   15 1   
    13    6    7 ar  
    14    6   16 1   
    15    7    8 1   
    16    9   10 1   
    17    9   17 1   
    18    9   18 1   
    19   10   19 1   
@<TRIPOS>SUBSTRUCTURE
     1 4FA         1 TEMP              0 ****  ****    0 ROOT
