@<TRIPOS>MOLECULE
4FA
   19    16     1     0     0
SMALL
bcc


@<TRIPOS>ATOM
      1 C1         -0.0000    0.3910   -0.0000 c1        1 4FA     -0.062100
      2 C2          1.3860    0.3910   -0.0000 c1        1 4FA     -0.075500
      3 C3         -0.6930    0.3910    1.2000 c1        1 4FA     -0.044500
      4 C4         -0.7570    0.4350   -1.3100 c3        1 4FA     -0.075300
      5 C5          2.0790    0.3910    1.2000 c1        1 4FA     -0.075500
      6 C6         -0.0000    0.3910    2.4010 c1        1 4FA     -0.106500
      7 C7          1.3860    0.3910    2.4010 c1        1 4FA      0.090100
      8 F8          2.0550    0.4190    3.5600 f         1 4FA     -0.109100
      9 C13        -1.0290   -0.9770   -1.7830 c3        1 4FA      0.134400
     10 O14        -1.7340   -0.9360   -3.0030 oh        1 4FA     -0.603800
     11 HC2         1.8740    0.3910   -0.8460 ha        1 4FA      0.086500
     12 HC3        -1.6690    0.3910    1.2000 ha        1 4FA      0.081500
     13 HC41       -1.6030    0.9040   -1.1810 hc        1 4FA      0.064700
     14 HC42       -0.2230    0.9040   -1.9780 hc        1 4FA      0.064700
     15 HC5         3.0550    0.3910    1.2000 ha        1 4FA      0.086500
     16 HC6        -0.4880    0.3910    3.2460 ha        1 4FA      0.091500
     17 H131       -1.5630   -1.4470   -1.1140 h1        1 4FA      0.025700
     18 H132       -0.1820   -1.4460   -1.9110 h1        1 4FA      0.025700
     19 H14        -1.8940   -1.7630   -3.2810 ho        1 4FA      0.402000
@<TRIPOS>BOND
     1    1    3 3   
     2    1    4 1   
     3    2    5 3   
     4    2   11 1   
     5    3   12 1   
     6    4    9 1   
     7    4   13 1   
     8    4   14 1   
     9    5   15 1   
    10    6    7 3   
    11    6   16 1   
    12    7    8 1   
    13    9   10 1   
    14    9   17 1   
    15    9   18 1   
    16   10   19 1   
@<TRIPOS>SUBSTRUCTURE
     1 4FA         1 TEMP              0 ****  ****    0 ROOT
