@<TRIPOS>MOLECULE
4FB
   16    16     1     0     0
SMALL
bcc


@<TRIPOS>ATOM
      1 O          -1.9480   -0.8000    1.0730 o         1 4FB     -0.834800
      2 C          -1.8510   -0.0060    0.0990 c         1 4FB      0.937600
      3 CA         -0.4790    0.0970   -0.6420 c3        1 4FB      0.041500
      4 CBX         0.5100   -1.0050   -0.2360 c3        1 4FB     -0.102400
      5 CGX         1.9030   -0.3620   -0.3770 c3        1 4FB      0.148600
      6 FGX         2.7600   -0.6870    0.6590 f         1 4FB     -0.257300
      7 CDX         1.6260    1.1720   -0.4410 c3        1 4FB      0.129800
      8 N           0.1880    1.3840   -0.4070 n3        1 4FB     -0.781200
      9 OXT        -2.7940    0.6840   -0.3770 o         1 4FB     -0.834800
     10 HA         -0.7150   -0.0280   -1.7420 h1        1 4FB      0.000700
     11 HBX1        0.3090   -1.3140    0.8210 hc        1 4FB      0.068200
     12 HBX2        0.4110   -1.8980   -0.8940 hc        1 4FB      0.068200
     13 HGX         2.3950   -0.6940   -1.3350 h1        1 4FB      0.020700
     14 HDX1        2.0730    1.6750    0.4590 h1        1 4FB      0.022200
     15 HDX2        2.1210    1.5990   -1.3560 h1        1 4FB      0.022200
     16 HT1        -0.1050    2.0550   -1.0890 hn        1 4FB      0.350800
@<TRIPOS>BOND
     1    1    2 1   
     2    2    3 1   
     3    2    9 1   
     4    3    4 1   
     5    3    8 1   
     6    3   10 1   
     7    4    5 1   
     8    4   11 1   
     9    4   12 1   
    10    5    6 1   
    11    5    7 1   
    12    5   13 1   
    13    7    8 1   
    14    7   14 1   
    15    7   15 1   
    16    8   16 1   
@<TRIPOS>SUBSTRUCTURE
     1 4FB         1 TEMP              0 ****  ****    0 ROOT
