@<TRIPOS>MOLECULE
4FC
   24    18     1     0     0
SMALL
bcc


@<TRIPOS>ATOM
      1 C1          1.3580   -0.5610   -3.1120 c1        1 4FC     -0.133000
      2 C2          2.3530    0.4040   -3.1330 c1        1 4FC      0.057000
      3 C3          2.5350    1.2350   -2.0380 c1        1 4FC     -0.167000
      4 C4          1.7230    1.1000   -0.9230 c1        1 4FC     -0.125500
      5 C5          0.7290    0.1340   -0.9020 c1        1 4FC     -0.047500
      6 C6          0.5470   -0.6960   -1.9970 c1        1 4FC     -0.133000
      7 C7          0.2540   -0.8390    1.2400 c1        1 4FC     -0.125500
      8 C8         -0.0960    0.0130    0.2050 c1        1 4FC     -0.047500
      9 C9         -1.2990    0.7010    0.2510 c1        1 4FC     -0.133000
     10 C10        -2.1500    0.5380    1.3330 c1        1 4FC     -0.133000
     11 C11        -1.7990   -0.3150    2.3680 c1        1 4FC     -0.087000
     12 C12        -0.5970   -1.0030    2.3210 c1        1 4FC     -0.114000
     13 F1          3.1140    0.5570   -4.2230 f         1 4FC     -0.124000
     14 C13        -2.7490   -0.5300    3.5250 c2        1 4FC      0.355000
     15 O1         -3.5980   -1.4590    3.4780 o         1 4FC     -0.562000
     16 O2         -2.7060    0.2330    4.5260 o         1 4FC     -0.562000
     17 HA1         1.2300   -1.1460   -3.8830 ha        1 4FC      0.135250
     18 HA2         3.2350    1.9150   -2.0530 ha        1 4FC      0.135000
     19 HB1         1.8510    1.6850   -0.1520 ha        1 4FC      0.126000
     20 HB2        -0.1530   -1.3760   -1.9820 ha        1 4FC      0.135250
     21 HC2         1.1010   -1.3240    1.2070 ha        1 4FC      0.126000
     22 HC1        -1.5460    1.3020   -0.4780 ha        1 4FC      0.135250
     23 HD2        -2.9960    1.0220    1.3650 ha        1 4FC      0.135250
     24 HD1        -0.3410   -1.5890    3.0590 ha        1 4FC      0.154000
@<TRIPOS>BOND
     1    1    6 1   
     2    1   17 1   
     3    2    3 1   
     4    2   13 1   
     5    3   18 1   
     6    4    5 1   
     7    4   19 1   
     8    6   20 1   
     9    7    8 1   
    10    7   21 1   
    11    9   10 1   
    12    9   22 1   
    13   10   23 1   
    14   11   12 1   
    15   11   14 1   
    16   12   24 1   
    17   14   15 1   
    18   14   16 1   
@<TRIPOS>SUBSTRUCTURE
     1 4FC         1 TEMP              0 ****  ****    0 ROOT
