@<TRIPOS>MOLECULE
4FC
   24    25     1     0     0
SMALL
bcc


@<TRIPOS>ATOM
      1 C1         -3.5500    1.1280    0.4820 ca        1 4FC     -0.167000
      2 C2         -4.2580    0.0140   -0.0030 ca        1 4FC      0.091900
      3 C3         -3.5610   -1.1070   -0.4870 ca        1 4FC     -0.167000
      4 C4         -2.1710   -1.1050   -0.4810 ca        1 4FC     -0.111000
      5 C5         -1.4500   -0.0010    0.0010 cp        1 4FC      0.000000
      6 C6         -2.1600    1.1110    0.4800 ca        1 4FC     -0.111000
      7 C7          0.7150   -1.1820    0.3050 ca        1 4FC     -0.140000
      8 C8          0.0090   -0.0080    0.0020 cp        1 4FC     -0.095000
      9 C9          0.7280    1.1590   -0.2990 ca        1 4FC     -0.140000
     10 C10         2.1200    1.1470   -0.2980 ca        1 4FC     -0.114000
     11 C11         2.8230   -0.0230    0.0060 ca        1 4FC     -0.107600
     12 C12         2.1070   -1.1850    0.3080 ca        1 4FC     -0.114000
     13 F1         -5.6150    0.0210   -0.0050 f         1 4FC     -0.158900
     14 C13         4.3460   -0.0310    0.0080 c         1 4FC      0.906200
     15 O1          4.9410    1.0500   -0.2640 o         1 4FC     -0.827300
     16 O2          4.9290   -1.1170    0.2810 o         1 4FC     -0.827300
     17 HA1        -4.1020    2.0000    0.8600 ha        1 4FC      0.135000
     18 HA2        -4.1200   -1.9730   -0.8660 ha        1 4FC      0.135000
     19 HB1        -1.6240   -1.9800   -0.8660 ha        1 4FC      0.143000
     20 HB2        -1.6050    1.9800    0.8660 ha        1 4FC      0.143000
     21 HC1         0.1870    2.0830   -0.5470 ha        1 4FC      0.109000
     22 HD2         2.6980    2.0550   -0.5370 ha        1 4FC      0.154000
     23 HD1         2.6750   -2.0990    0.5480 ha        1 4FC      0.154000
     24 HC2         0.1630   -2.1010    0.5530 ha        1 4FC      0.109000
@<TRIPOS>BOND
     1    1    2 ar  
     2    1    6 ar  
     3    1   17 1   
     4    2    3 ar  
     5    2   13 1   
     6    3    4 ar  
     7    3   18 1   
     8    4    5 ar  
     9    4   19 1   
    10    5    6 ar  
    11    5    8 1   
    12    6   20 1   
    13    7    8 ar  
    14    7   12 ar  
    15    7   24 1   
    16    8    9 ar  
    17    9   10 ar  
    18    9   21 1   
    19   10   11 ar  
    20   10   22 1   
    21   11   12 ar  
    22   11   14 1   
    23   12   23 1   
    24   14   15 1   
    25   14   16 1   
@<TRIPOS>SUBSTRUCTURE
     1 4FC         1 TEMP              0 ****  ****    0 ROOT
