@<TRIPOS>MOLECULE
4FE
   23    20     1     0     0
SMALL
bcc


@<TRIPOS>ATOM
      1 C8         -0.5140    0.9730   -3.7170 c3        1 4FE     -0.072000
      2 O4         -1.1360    0.1720   -2.7190 os        1 4FE     -0.222000
      3 C5         -0.5050    0.2030   -1.5100 c2        1 4FE     -0.012000
      4 C6         -0.7380    1.2720   -0.6340 c2        1 4FE     -0.125000
      5 C7         -0.2330    1.2330    0.6660 c1        1 4FE     -0.172000
      6 C2          0.4980    0.1420    1.0940 c1        1 4FE      0.035000
      7 C3          0.7350   -0.9370    0.2120 c1        1 4FE     -0.187000
      8 O3          0.3890   -2.0350   -1.9480 oh        1 4FE     -0.274000
      9 C1          0.2310   -0.8990   -1.0830 c1        1 4FE      0.050000
     10 C10         1.1820    0.1870    2.4320 c2        1 4FE     -0.199000
     11 C4          0.6010   -0.3990    3.5070 c1        1 4FE     -0.119000
     12 C9         -0.7330   -1.1050    3.3560 c1        1 4FE      0.345000
     13 O2         -0.7660   -2.3470    3.2020 o         1 4FE     -0.567000
     14 O1         -1.8040   -0.4310    3.2800 o         1 4FE     -0.567000
     15 H8         -1.2040    1.2600   -4.3960 h1        1 4FE      0.072000
     16 H8A         0.1810    0.4580   -4.1590 h1        1 4FE      0.072000
     17 H8B        -0.1010    1.8010   -3.2830 h1        1 4FE      0.072000
     18 H6         -1.2760    2.0790   -0.9480 ha        1 4FE      0.125000
     19 H7         -0.4420    1.9780    1.3070 ha        1 4FE      0.119000
     20 H3          1.2680   -1.7350    0.5210 ha        1 4FE      0.211000
     21 HO3         1.2460   -2.1540   -2.1240 ho        1 4FE      0.230000
     22 H10         2.0600    0.6510    2.5290 ha        1 4FE      0.086000
     23 H4          1.0600   -0.3680    4.4130 ha        1 4FE      0.099000
@<TRIPOS>BOND
     1    1    2 1   
     2    1   15 1   
     3    1   16 1   
     4    1   17 1   
     5    2    3 1   
     6    3    4 1   
     7    3    9 1   
     8    4    5 1   
     9    4   18 1   
    10    5   19 1   
    11    6    7 1   
    12    6   10 1   
    13    7   20 1   
    14    8    9 1   
    15    8   21 1   
    16   10   11 1   
    17   10   22 1   
    18   11   23 1   
    19   12   13 1   
    20   12   14 1   
@<TRIPOS>SUBSTRUCTURE
     1 4FE         1 TEMP              0 ****  ****    0 ROOT
