@<TRIPOS>MOLECULE
4FE
   23    23     1     0     0
SMALL
bcc


@<TRIPOS>ATOM
      1 C8          4.3870    1.4160    0.3140 c3        1 4FE      0.116700
      2 O4          3.7850    0.5760   -0.6680 os        1 4FE     -0.353900
      3 C5          2.4240    0.3740   -0.4530 ca        1 4FE     -0.036900
      4 C6          1.4840    1.3890   -0.6530 ca        1 4FE     -0.113000
      5 C7          0.1310    1.1120   -0.5040 ca        1 4FE     -0.165000
      6 C2         -0.3150   -0.1780   -0.1550 ca        1 4FE      0.030200
      7 C3          0.6310   -1.1990    0.0300 ca        1 4FE     -0.165000
      8 C1          1.9950   -0.9230   -0.1140 ca        1 4FE      0.118100
      9 C10        -1.7220   -0.4860    0.0140 ce        1 4FE     -0.193200
     10 C4         -2.7200    0.4060    0.0700 cf        1 4FE     -0.147200
     11 C9         -4.1710    0.0060    0.2540 c         1 4FE      0.888800
     12 O2         -4.4570   -1.2150    0.4040 o         1 4FE     -0.829300
     13 O1         -5.0230    0.9410    0.2450 o         1 4FE     -0.829300
     14 H8          5.4470    1.5200   -0.0280 h1        1 4FE      0.032367
     15 H8A         3.8820    2.4120    0.3430 h1        1 4FE      0.032367
     16 H8B         4.3410    0.9340    1.3200 h1        1 4FE      0.032367
     17 H6          1.8250    2.3970   -0.9260 ha        1 4FE      0.126000
     18 H7         -0.6070    1.9110   -0.6660 ha        1 4FE      0.142000
     19 H3          0.3090   -2.2170    0.2930 ha        1 4FE      0.152000
     20 HO3         3.7690   -1.6150   -0.1090 ho        1 4FE      0.421000
     21 H10        -1.9720   -1.5590    0.1160 ha        1 4FE      0.148000
     22 H4         -2.5570    1.4920   -0.0100 ha        1 4FE      0.100000
     23 O3          2.8830   -1.9590    0.0800 oh        1 4FE     -0.507100
@<TRIPOS>BOND
     1    1    2 1   
     2    1   14 1   
     3    1   15 1   
     4    1   16 1   
     5    2    3 1   
     6    3    4 ar  
     7    3    8 ar  
     8    4    5 ar  
     9    4   17 1   
    10    5    6 ar  
    11    5   18 1   
    12    6    7 ar  
    13    6    9 1   
    14    7    8 ar  
    15    7   19 1   
    16    8   23 1   
    17    9   10 2   
    18    9   21 1   
    19   10   11 1   
    20   10   22 1   
    21   11   12 1   
    22   11   13 1   
    23   20   23 1   
@<TRIPOS>SUBSTRUCTURE
     1 4FE         1 TEMP              0 ****  ****    0 ROOT
