@<TRIPOS>MOLECULE
4FF
   24    20     1     0     0
SMALL
bcc


@<TRIPOS>ATOM
      1 O14        -1.5230    0.7870    4.1830 o         1 4FF     -0.556000
      2 C12        -2.0980    0.5690    3.0850 c2        1 4FF      0.394000
      3 O13        -3.3330    0.3280    3.0570 o         1 4FF     -0.556000
      4 C10        -1.2990    0.5730    1.8000 c2        1 4FF     -0.118000
      5 C9         -1.2250    1.6040    0.9020 c1        1 4FF     -0.100000
      6 N8         -0.4590    1.2080   -0.1180 n2        1 4FF     -0.205000
      7 C7         -0.0510   -0.0600    0.1310 c2        1 4FF     -0.096000
      8 N11        -0.5770   -0.4430    1.3200 n2        1 4FF     -0.093000
      9 C6          0.7600   -0.8310   -0.6870 c1        1 4FF      0.042000
     10 C1          0.1930   -1.6550   -1.6460 c1        1 4FF     -0.105000
     11 C2          1.0040   -2.4320   -2.4590 c1        1 4FF     -0.144750
     12 C3          2.3810   -2.3830   -2.3120 c1        1 4FF     -0.144750
     13 C4          2.9480   -1.5590   -1.3530 c1        1 4FF     -0.144750
     14 C5          2.1370   -0.7820   -0.5400 c1        1 4FF     -0.144750
     15 C15        -1.8580    2.9690    1.0610 c2        1 4FF     -0.161000
     16 H8         -0.2460    1.7050   -0.8530 DU        1 4FF      0.226000
     17 H151       -1.7030    3.2970    1.9710 ha        1 4FF      0.090000
     18 H152       -1.4600    3.5910    0.4170 ha        1 4FF      0.090000
     19 H153       -2.8230    2.9030    0.8980 ha        1 4FF      0.090000
     20 H1         -0.7770   -1.6890   -1.7490 ha        1 4FF      0.167000
     21 H5          2.5350   -0.2150    0.1470 ha        1 4FF      0.117500
     22 H2          0.6040   -3.0270   -3.1210 ha        1 4FF      0.117500
     23 H3          2.9520   -2.9300   -2.8850 ha        1 4FF      0.117500
     24 H4          3.9180   -1.5250   -1.2500 ha        1 4FF      0.117500
@<TRIPOS>BOND
     1    1    2 1   
     2    2    3 1   
     3    2    4 1   
     4    4    5 1   
     5    4    8 1   
     6    5    6 1   
     7    6    7 1   
     8    7    8 1   
     9    7    9 1   
    10    9   10 1   
    11   10   20 1   
    12   11   12 1   
    13   11   22 1   
    14   12   23 1   
    15   13   14 1   
    16   13   24 1   
    17   14   21 1   
    18   15   17 1   
    19   15   18 1   
    20   15   19 1   
@<TRIPOS>SUBSTRUCTURE
     1 4FF         1 TEMP              0 ****  ****    0 ROOT
