@<TRIPOS>MOLECULE
4FF
   24    25     1     0     0
SMALL
bcc


@<TRIPOS>ATOM
      1 O14         3.2760    2.0470    0.1440 o         1 4FF     -0.821300
      2 C12         3.1670    0.8680   -0.2800 c         1 4FF      0.835100
      3 O13         4.1120    0.1980   -0.7880 o         1 4FF     -0.821300
      4 C10         1.8230    0.1640   -0.1510 cc        1 4FF      0.299800
      5 C9          1.6540   -1.2320    0.0770 cd        1 4FF     -0.196900
      6 N8          0.2790   -1.4540    0.1480 na        1 4FF     -0.318900
      7 C7         -0.3510   -0.2080   -0.0390 cd        1 4FF      0.363000
      8 N11         0.5830    0.7760   -0.2210 nc        1 4FF     -0.619000
      9 C6         -1.7960   -0.0290   -0.0290 ca        1 4FF     -0.065500
     10 C1         -2.3300    1.2640    0.1250 ca        1 4FF     -0.128500
     11 C2         -3.7090    1.4550    0.1400 ca        1 4FF     -0.135500
     12 C3         -4.5760    0.3700    0.0050 ca        1 4FF     -0.156000
     13 C4         -4.0530   -0.9120   -0.1520 ca        1 4FF     -0.135500
     14 C5         -2.6740   -1.1130   -0.1720 ca        1 4FF     -0.128500
     15 C15         2.6770   -2.2770    0.2110 c3        1 4FF     -0.035800
     16 H8         -0.1670   -2.3120    0.3180 hn        1 4FF      0.275700
     17 H151        2.7130   -2.6740    1.2560 hc        1 4FF      0.050700
     18 H152        2.4820   -3.1320   -0.4830 hc        1 4FF      0.050700
     19 H153        3.6710   -1.8150   -0.0460 hc        1 4FF      0.050700
     20 H1         -1.6500    2.1250    0.2300 ha        1 4FF      0.142500
     21 H5         -2.2900   -2.1330   -0.3160 ha        1 4FF      0.142500
     22 H2         -4.1150    2.4700    0.2600 ha        1 4FF      0.118500
     23 H3         -5.6630    0.5260    0.0210 ha        1 4FF      0.115000
     24 H4         -4.7300   -1.7710   -0.2650 ha        1 4FF      0.118500
@<TRIPOS>BOND
     1    1    2 1   
     2    2    3 1   
     3    2    4 1   
     4    4    5 2   
     5    4    8 1   
     6    5    6 1   
     7    5   15 1   
     8    6    7 1   
     9    6   16 1   
    10    7    8 2   
    11    7    9 1   
    12    9   10 ar  
    13    9   14 ar  
    14   10   11 ar  
    15   10   20 1   
    16   11   12 ar  
    17   11   22 1   
    18   12   13 ar  
    19   12   23 1   
    20   13   14 ar  
    21   13   24 1   
    22   14   21 1   
    23   15   17 1   
    24   15   18 1   
    25   15   19 1   
@<TRIPOS>SUBSTRUCTURE
     1 4FF         1 TEMP              0 ****  ****    0 ROOT
