@<TRIPOS>MOLECULE
4FF
   24    25     1     0     0
SMALL
bcc


@<TRIPOS>ATOM
      1 O14         0.1180    0.0270    0.1590 o         1 4FF     -0.821300
      2 C12         1.3120   -0.3580    0.0740 c         1 4FF      0.835100
      3 O13         1.9750   -0.8550    1.0300 o         1 4FF     -0.821300
      4 C10         2.0430   -0.1930   -1.2500 cc        1 4FF      0.299800
      5 C9          3.4350    0.0820   -1.3830 cd        1 4FF     -0.196900
      6 N8          3.6880    0.1760   -2.7520 na        1 4FF     -0.318900
      7 C7          2.4640   -0.0440   -3.4140 cd        1 4FF      0.363000
      8 N11         1.4640   -0.2680   -2.5060 nc        1 4FF     -0.619000
      9 C6          2.3180   -0.0240   -4.8630 ca        1 4FF     -0.065500
     10 C1          1.0350    0.0950   -5.4260 ca        1 4FF     -0.128500
     11 C2          0.8760    0.1190   -6.8090 ca        1 4FF     -0.135500
     12 C3          1.9850    0.0290   -7.6510 ca        1 4FF     -0.156000
     13 C4          3.2590   -0.0940   -7.0990 ca        1 4FF     -0.135500
     14 C5          3.4280   -0.1230   -5.7160 ca        1 4FF     -0.128500
     15 C15         4.4510    0.2380   -0.3340 c3        1 4FF     -0.035800
     16 H8          4.5510    0.3780   -3.1760 hn        1 4FF      0.275700
     17 H151        4.8130    1.2950   -0.2790 hc        1 4FF      0.050700
     18 H152        3.9740   -0.0450    0.6460 hc        1 4FF      0.050700
     19 H153        5.3320   -0.4270   -0.5160 hc        1 4FF      0.050700
     20 H1          0.1550    0.1650   -4.7660 ha        1 4FF      0.142500
     21 H5          4.4420   -0.2380   -5.3090 ha        1 4FF      0.142500
     22 H2         -0.1320    0.2110   -7.2390 ha        1 4FF      0.118500
     23 H3          1.8550    0.0510   -8.7410 ha        1 4FF      0.115000
     24 H4          4.1360   -0.1720   -7.7560 ha        1 4FF      0.118500
@<TRIPOS>BOND
     1    1    2 1   
     2    2    3 1   
     3    2    4 1   
     4    4    5 2   
     5    4    8 1   
     6    5    6 1   
     7    5   15 1   
     8    6    7 1   
     9    6   16 1   
    10    7    8 2   
    11    7    9 1   
    12    9   10 ar  
    13    9   14 ar  
    14   10   11 ar  
    15   10   20 1   
    16   11   12 ar  
    17   11   22 1   
    18   12   13 ar  
    19   12   23 1   
    20   13   14 ar  
    21   13   24 1   
    22   14   21 1   
    23   15   17 1   
    24   15   18 1   
    25   15   19 1   
@<TRIPOS>SUBSTRUCTURE
     1 4FF         1 TEMP              0 ****  ****    0 ROOT
