@<TRIPOS>MOLECULE
4FH
   16    16     1     0     0
SMALL
bcc


@<TRIPOS>ATOM
      1 S1          0.0830    0.2320   -0.1390 s         1 4FH     -0.471400
      2 C1          1.6700    0.1420   -0.0880 c         1 4FH      0.351600
      3 C2          2.4130    0.0980    1.1550 cc        1 4FH     -0.143200
      4 C3          3.7770    0.0190    1.1770 cd        1 4FH     -0.087200
      5 C6          4.5430   -0.0440    2.4980 c3        1 4FH      0.684100
      6 F1          4.9280   -1.3140    2.8530 f         1 4FH     -0.227967
      7 F2          5.7110    0.6790    2.5020 f         1 4FH     -0.227967
      8 F3          3.8480    0.4200    3.5860 f         1 4FH     -0.227967
      9 C4          4.5190   -0.0190   -0.0350 cd        1 4FH     -0.194000
     10 C5          3.8390    0.0220   -1.2310 cc        1 4FH      0.024600
     11 N1          2.4570    0.0980   -1.2550 n         1 4FH     -0.121500
     12 O2          1.9180    0.1310   -2.4700 oh        1 4FH     -0.392100
     13 H1          1.8120    0.1350    2.0810 ha        1 4FH      0.193000
     14 H2          5.6160   -0.0740   -0.0150 ha        1 4FH      0.178000
     15 H3          4.3400   -0.0030   -2.2170 h4        1 4FH      0.190000
     16 H4          0.9320    0.1840   -2.3540 ho        1 4FH      0.473000
@<TRIPOS>BOND
     1    1    2 2   
     2    2    3 1   
     3    2   11 1   
     4    3    4 2   
     5    3   13 1   
     6    4    5 1   
     7    4    9 1   
     8    5    6 1   
     9    5    7 1   
    10    5    8 1   
    11    9   10 2   
    12    9   14 1   
    13   10   11 1   
    14   10   15 1   
    15   11   12 1   
    16   12   16 1   
@<TRIPOS>SUBSTRUCTURE
     1 4FH         1 TEMP              0 ****  ****    0 ROOT
