@<TRIPOS>MOLECULE
4FH
   16    16     1     0     0
SMALL
bcc


@<TRIPOS>ATOM
      1 S1          0.0840    0.2480   -0.1460 s         1 4FH     -0.471400
      2 C1          1.6710    0.1510   -0.0920 c         1 4FH      0.351600
      3 C2          2.4120    0.0990    1.1530 cc        1 4FH     -0.143200
      4 C3          3.7750    0.0140    1.1780 cd        1 4FH     -0.087200
      5 C6          4.5380   -0.0570    2.5000 c3        1 4FH      0.684100
      6 F1          4.9240   -1.3280    2.8480 f         1 4FH     -0.227967
      7 F2          5.7050    0.6670    2.5120 f         1 4FH     -0.227967
      8 F3          3.8400    0.4000    3.5890 f         1 4FH     -0.227967
      9 C4          4.5190   -0.0230   -0.0330 cd        1 4FH     -0.194000
     10 C5          3.8430    0.0250   -1.2300 cc        1 4FH      0.024600
     11 N1          2.4610    0.1070   -1.2570 n         1 4FH     -0.121500
     12 O2          1.9240    0.1460   -2.4720 oh        1 4FH     -0.392100
     13 H1          1.8090    0.1360    2.0780 ha        1 4FH      0.193000
     14 H2          5.6160   -0.0830   -0.0100 ha        1 4FH      0.178000
     15 H3          4.3460    0.0010   -2.2140 h4        1 4FH      0.190000
     16 H4          0.9390    0.2040   -2.3580 ho        1 4FH      0.473000
@<TRIPOS>BOND
     1    1    2 2   
     2    2    3 1   
     3    2   11 1   
     4    3    4 2   
     5    3   13 1   
     6    4    5 1   
     7    4    9 1   
     8    5    6 1   
     9    5    7 1   
    10    5    8 1   
    11    9   10 2   
    12    9   14 1   
    13   10   11 1   
    14   10   15 1   
    15   11   12 1   
    16   12   16 1   
@<TRIPOS>SUBSTRUCTURE
     1 4FH         1 TEMP              0 ****  ****    0 ROOT
