@<TRIPOS>MOLECULE
4FI
   50    43     1     0     0
SMALL
bcc


@<TRIPOS>ATOM
      1 C1         -2.6180    3.7560    3.5860 c1        1 4FI     -0.137000
      2 C2         -1.1460    2.5890    2.0710 c1        1 4FI     -0.047500
      3 C3         -0.0920    2.7900    2.9430 c2        1 4FI     -0.112000
      4 C4         -1.0710    1.9420    0.6380 c2        1 4FI     -0.116000
      5 C5         -0.7090    0.4790    0.7670 c3        1 4FI     -0.073000
      6 C6          0.7980    0.3390    0.9920 c2        1 4FI      0.332000
      7 N7         -1.0730   -0.2020   -0.4130 n         1 4FI     -0.313000
      8 O8          1.6130    0.7230    0.0970 o         1 4FI     -0.559500
      9 O9          1.2280   -0.0960    2.0850 o         1 4FI     -0.559500
     10 C10        -1.0940   -1.6720   -0.4360 c2        1 4FI      0.354000
     11 C11        -2.4130    3.0710    2.3890 c1        1 4FI     -0.105000
     12 O12        -1.5140   -2.3170    0.5750 o         1 4FI     -0.414000
     13 C13        -0.5790   -2.4220   -1.6560 c2        1 4FI     -0.110000
     14 N14        -1.2770   -3.3240   -2.3880 n2        1 4FI     -0.079000
     15 N15        -0.4980   -3.7010   -3.4480 n2        1 4FI     -0.078000
     16 C16         0.6840   -3.0260   -3.3670 c2        1 4FI     -0.109000
     17 C17         0.6420   -2.2370   -2.2660 c1        1 4FI     -0.183000
     18 C18         1.8090   -3.1660   -4.2740 c1        1 4FI      0.015000
     19 C19         1.8060   -2.5030   -5.4920 c1        1 4FI     -0.137500
     20 C20         2.8830   -2.6440   -6.3690 c1        1 4FI     -0.137500
     21 C21         3.9530   -3.4440   -6.0230 c1        1 4FI     -0.137500
     22 C22         3.9550   -4.1070   -4.8020 c1        1 4FI     -0.137500
     23 C23         2.8760   -3.9640   -3.9280 c1        1 4FI     -0.117000
     24 C24        -2.6270   -3.7270   -2.1570 c2        1 4FI     -0.060000
     25 C25        -1.5500    3.9580    4.4650 c1        1 4FI     -0.043000
     26 C26        -0.2970    3.4790    4.1480 c1        1 4FI     -0.047500
     27 C27         0.7430    3.5930    5.0600 c1        1 4FI     -0.105000
     28 C28         0.5230    4.1880    6.2870 c1        1 4FI     -0.137500
     29 C29        -0.7380    4.6710    6.6090 c1        1 4FI     -0.137500
     30 C30        -1.7720    4.5580    5.7040 c1        1 4FI     -0.137000
     31 H1         -3.5590    3.8090    3.8440 ha        1 4FI      0.116000
     32 H3          0.8900    2.7060    2.7350 ha        1 4FI      0.206000
     33 H4         -0.3510    2.4270    0.0780 ha        1 4FI      0.088500
     34 H4A        -1.9750    2.0300    0.1780 ha        1 4FI      0.088500
     35 H5         -1.1760    0.1010    1.5080 h1        1 4FI      0.115000
     36 HN7        -1.2660    0.2890   -1.2070 hn        1 4FI      0.247000
     37 H11        -3.2360    3.2280    1.8770 ha        1 4FI      0.132500
     38 H17         1.3190   -1.6700   -1.9740 DU        1 4FI      0.178000
     39 H19         1.0570   -1.9790   -5.7430 ha        1 4FI      0.124167
     40 H20         2.8410   -2.2310   -7.2920 ha        1 4FI      0.124167
     41 H21         4.7740   -3.4920   -6.6320 ha        1 4FI      0.124167
     42 H22         4.7030   -4.5950   -4.5380 ha        1 4FI      0.124167
     43 H23         3.0490   -4.2210   -3.0570 ha        1 4FI      0.144000
     44 H24        -2.9260   -4.3400   -2.8960 ha        1 4FI      0.106333
     45 H24A       -2.6890   -4.2080   -1.2770 ha        1 4FI      0.106333
     46 H24B       -3.1980   -2.9460   -2.1380 ha        1 4FI      0.106333
     47 H27         1.6280    3.2540    4.8350 ha        1 4FI      0.132500
     48 H28         1.2200    4.2660    6.8970 ha        1 4FI      0.124167
     49 H29        -0.8920    5.0880    7.4740 ha        1 4FI      0.124167
     50 H30        -2.6600    4.9000    5.9310 ha        1 4FI      0.116000
@<TRIPOS>BOND
     1    1   25 1   
     2    1   31 1   
     3    2    3 1   
     4    2   11 1   
     5    3   26 1   
     6    3   32 1   
     7    4    5 1   
     8    4   33 1   
     9    4   34 1   
    10    5    6 1   
    11    5    7 1   
    12    5   35 1   
    13    6    8 1   
    14    6    9 1   
    15    7   10 1   
    16    7   36 1   
    17   10   12 1   
    18   10   13 1   
    19   11   37 1   
    20   13   14 1   
    21   13   17 1   
    22   14   15 1   
    23   15   16 1   
    24   16   17 1   
    25   16   18 1   
    26   18   23 1   
    27   19   20 1   
    28   19   39 1   
    29   20   40 1   
    30   21   22 1   
    31   21   41 1   
    32   22   42 1   
    33   23   43 1   
    34   24   44 1   
    35   24   45 1   
    36   24   46 1   
    37   25   30 1   
    38   26   27 1   
    39   27   47 1   
    40   28   29 1   
    41   28   48 1   
    42   29   49 1   
    43   30   50 1   
@<TRIPOS>SUBSTRUCTURE
     1 4FI         1 TEMP              0 ****  ****    0 ROOT
