@<TRIPOS>MOLECULE
4FI
   50    53     1     0     0
SMALL
bcc


@<TRIPOS>ATOM
      1 C1         -3.4040    2.7020    0.7080 ca        1 4FI     -0.139000
      2 C2         -3.1150    0.3320    1.1670 ca        1 4FI     -0.041300
      3 C3         -3.9660    0.0210    0.1250 ca        1 4FI     -0.117000
      4 C4         -2.5150   -0.7340    2.0110 c3        1 4FI     -0.041100
      5 C5         -1.4790   -1.6040    1.2820 c3        1 4FI     -0.058300
      6 C6         -1.1960   -2.8400    2.2250 c         1 4FI      0.910600
      7 N7         -0.2620   -0.8810    0.9640 n         1 4FI     -0.488900
      8 O8         -0.0740   -2.9060    2.7990 o         1 4FI     -0.823300
      9 O9         -2.1340   -3.6680    2.3400 o         1 4FI     -0.823300
     10 C10         0.1580   -0.6980   -0.3290 c         1 4FI      0.678700
     11 C11        -2.8350    1.6970    1.4490 ca        1 4FI     -0.111000
     12 O12        -0.5900   -0.7880   -1.3310 o         1 4FI     -0.644100
     13 C13         1.5790   -0.2800   -0.4980 cc        1 4FI     -0.154900
     14 N14         2.0690    0.3790   -1.6430 na        1 4FI      0.133400
     15 N15         3.3760    0.6190   -1.5550 nc        1 4FI     -0.511800
     16 C16         3.7970    0.1280   -0.3410 cd        1 4FI      0.324800
     17 C17         2.6760   -0.4540    0.3620 cd        1 4FI     -0.246300
     18 C18         5.1630    0.1930    0.1460 ca        1 4FI     -0.091500
     19 C19         6.0810    1.1150   -0.3790 ca        1 4FI     -0.115500
     20 C20         7.3850    1.1630    0.1100 ca        1 4FI     -0.137500
     21 C21         7.7900    0.2960    1.1240 ca        1 4FI     -0.141000
     22 C22         6.8830   -0.6250    1.6490 ca        1 4FI     -0.137500
     23 C23         5.5780   -0.6800    1.1650 ca        1 4FI     -0.115500
     24 C24         1.2580    0.6960   -2.7970 c3        1 4FI      0.037600
     25 C25        -4.2870    2.4010   -0.3630 ca        1 4FI     -0.046000
     26 C26        -4.5650    1.0410   -0.6580 ca        1 4FI     -0.028000
     27 C27        -5.4430    0.7360   -1.7360 ca        1 4FI     -0.108000
     28 C28        -6.0160    1.7390   -2.4770 ca        1 4FI     -0.146000
     29 C29        -5.7410    3.0950   -2.1790 ca        1 4FI     -0.145000
     30 C30        -4.8960    3.4190   -1.1460 ca        1 4FI     -0.119000
     31 H1         -3.1840    3.7570    0.9280 ha        1 4FI      0.118000
     32 H3         -4.1780   -1.0330   -0.1170 ha        1 4FI      0.146000
     33 H4         -2.0500   -0.2870    2.9280 hc        1 4FI      0.064700
     34 H4A        -3.3240   -1.4410    2.3500 hc        1 4FI      0.064700
     35 H5         -1.9420   -1.9920    0.3300 h1        1 4FI      0.073700
     36 HN7         0.4480   -1.0040    1.6630 hn        1 4FI      0.324500
     37 H11        -2.1440    1.9330    2.2730 ha        1 4FI      0.131000
     38 H17         2.6860   -0.9280    1.3390 ha        1 4FI      0.181000
     39 H19         5.7720    1.8050   -1.1790 ha        1 4FI      0.144500
     40 H20         8.0970    1.8900   -0.3080 ha        1 4FI      0.124000
     41 H21         8.8180    0.3370    1.5080 ha        1 4FI      0.120000
     42 H22         7.1970   -1.3120    2.4470 ha        1 4FI      0.124000
     43 H23         4.8680   -1.4120    1.5790 ha        1 4FI      0.144500
     44 H24         0.3080    1.1780   -2.4420 h1        1 4FI      0.067033
     45 H24A        1.8080    1.3820   -3.4910 h1        1 4FI      0.067033
     46 H24B        0.9930   -0.2590   -3.3270 h1        1 4FI      0.067033
     47 H27        -5.6450   -0.3220   -1.9630 ha        1 4FI      0.131000
     48 H28        -6.6920    1.5040   -3.3110 ha        1 4FI      0.118000
     49 H29        -6.2110    3.8810   -2.7860 ha        1 4FI      0.116000
     50 H30        -4.6720    4.4690   -0.9080 ha        1 4FI      0.120000
@<TRIPOS>BOND
     1    1   11 ar  
     2    1   25 ar  
     3    1   31 1   
     4    2    3 ar  
     5    2    4 1   
     6    2   11 ar  
     7    3   26 ar  
     8    3   32 1   
     9    4    5 1   
    10    4   33 1   
    11    4   34 1   
    12    5    6 1   
    13    5    7 1   
    14    5   35 1   
    15    6    8 1   
    16    6    9 1   
    17    7   10 1   
    18    7   36 1   
    19   10   12 2   
    20   10   13 1   
    21   11   37 1   
    22   13   14 1   
    23   13   17 2   
    24   14   15 1   
    25   14   24 1   
    26   15   16 2   
    27   16   17 1   
    28   16   18 1   
    29   17   38 1   
    30   18   19 ar  
    31   18   23 ar  
    32   19   20 ar  
    33   19   39 1   
    34   20   21 ar  
    35   20   40 1   
    36   21   22 ar  
    37   21   41 1   
    38   22   23 ar  
    39   22   42 1   
    40   23   43 1   
    41   24   44 1   
    42   24   45 1   
    43   24   46 1   
    44   25   26 ar  
    45   25   30 ar  
    46   26   27 ar  
    47   27   28 ar  
    48   27   47 1   
    49   28   29 ar  
    50   28   48 1   
    51   29   30 ar  
    52   29   49 1   
    53   30   50 1   
@<TRIPOS>SUBSTRUCTURE
     1 4FI         1 TEMP              0 ****  ****    0 ROOT
