@<TRIPOS>MOLECULE
4FI
   51    54     1     0     0
SMALL
bcc


@<TRIPOS>ATOM
      1 C1         -0.3570    1.0620    2.1650 ca        1 4FI     -0.103000
      2 C2          1.7390    0.3050    1.2020 ca        1 4FI     -0.114300
      3 C3          1.9480   -0.5280    2.2810 ca        1 4FI     -0.101000
      4 C4          2.7300    0.3880    0.0980 c3        1 4FI     -0.051100
      5 C5          2.6250   -0.7640   -0.8940 c3        1 4FI     -0.043500
      6 C6          3.7550   -0.5510   -2.0060 c         1 4FI      0.928600
      7 N7          1.2720   -0.8370   -1.5510 ny        1 4FI     -0.652800
      8 O8          4.9230   -0.6000   -1.5910 o         1 4FI     -0.762800
      9 O9          3.3260   -0.3700   -3.1810 o         1 4FI     -0.762800
     10 C10         0.6140   -2.1670   -1.4280 c         1 4FI      0.597700
     11 C11         0.5700    1.1120    1.1550 ca        1 4FI     -0.148000
     12 O12        -0.3320   -2.2420   -0.6390 o         1 4FI     -0.497100
     13 C13         1.1200   -3.2300   -2.2660 cc        1 4FI     -0.260900
     14 N14         0.6290   -4.5620   -2.2080 na        1 4FI      0.150400
     15 N15         1.2420   -5.3390   -3.0830 nc        1 4FI     -0.449800
     16 C16         2.1600   -4.5650   -3.7650 cd        1 4FI      0.353800
     17 C17         2.1120   -3.2130   -3.2730 cd        1 4FI     -0.166300
     18 C18         3.0390   -5.0560   -4.8120 ca        1 4FI     -0.133500
     19 C19         2.7470   -6.2370   -5.5100 ca        1 4FI     -0.103000
     20 C20         3.6020   -6.6840   -6.5150 ca        1 4FI     -0.133500
     21 C21         4.7520   -5.9610   -6.8330 ca        1 4FI     -0.117000
     22 C22         5.0470   -4.7870   -6.1400 ca        1 4FI     -0.133500
     23 C23         4.1990   -4.3330   -5.1330 ca        1 4FI     -0.103000
     24 C24        -0.4030   -5.0030   -1.2930 c3        1 4FI      0.026600
     25 C25        -0.1660    0.2010    3.2810 ca        1 4FI     -0.035000
     26 C26         1.0030   -0.6000    3.3390 ca        1 4FI     -0.034000
     27 C27         1.2020   -1.4540    4.4580 ca        1 4FI     -0.117000
     28 C28         0.2740   -1.5050    5.4680 ca        1 4FI     -0.123000
     29 C29        -0.8950   -0.7070    5.4090 ca        1 4FI     -0.122000
     30 C30        -1.1110    0.1280    4.3400 ca        1 4FI     -0.117000
     31 H1         -1.2600    1.6900    2.1330 ha        1 4FI      0.136000
     32 H3          2.8580   -1.1460    2.3400 ha        1 4FI      0.142000
     33 H4          2.6330    1.3670   -0.4430 hc        1 4FI      0.092700
     34 H4A         3.7820    0.3430    0.5030 hc        1 4FI      0.092700
     35 H5          2.8230   -1.7420   -0.3780 hx        1 4FI      0.095700
     36 HN7         1.4450   -0.6200   -2.5640 hn        1 4FI      0.468800
     37 H11         0.4310    1.8000    0.3070 ha        1 4FI      0.126000
     38 H17         2.7210   -2.3650   -3.6070 ha        1 4FI      0.231000
     39 H19         1.8430   -6.8160   -5.2690 ha        1 4FI      0.148000
     40 H20         3.3670   -7.6110   -7.0590 ha        1 4FI      0.137000
     41 H21         5.4250   -6.3170   -7.6270 ha        1 4FI      0.133000
     42 H22         5.9540   -4.2140   -6.3860 ha        1 4FI      0.137000
     43 H23         4.4430   -3.4070   -4.5880 ha        1 4FI      0.148000
     44 H24        -0.5850   -6.1040   -1.4070 h1        1 4FI      0.076033
     45 H24A       -0.0750   -4.7760   -0.2430 h1        1 4FI      0.076033
     46 H24B       -1.3460   -4.4340   -1.5120 h1        1 4FI      0.076033
     47 H27         2.1140   -2.0690    4.4970 ha        1 4FI      0.137000
     48 H28         0.4250   -2.1640    6.3360 ha        1 4FI      0.136000
     49 H29        -1.6230   -0.7650    6.2310 ha        1 4FI      0.135000
     50 H30        -2.0140    0.7540    4.2860 ha        1 4FI      0.135000
     51 H72         0.6570   -0.1250   -1.1410 hn        1 4FI      0.468800
@<TRIPOS>BOND
     1    1   11 ar  
     2    1   25 ar  
     3    1   31 1   
     4    2    3 ar  
     5    2    4 1   
     6    2   11 ar  
     7    3   26 ar  
     8    3   32 1   
     9    4    5 1   
    10    4   33 1   
    11    4   34 1   
    12    5    6 1   
    13    5    7 1   
    14    5   35 1   
    15    6    8 1   
    16    6    9 1   
    17    7   10 1   
    18    7   36 1   
    19    7   51 1   
    20   10   12 2   
    21   10   13 1   
    22   11   37 1   
    23   13   14 1   
    24   13   17 2   
    25   14   15 1   
    26   14   24 1   
    27   15   16 2   
    28   16   17 1   
    29   16   18 1   
    30   17   38 1   
    31   18   19 ar  
    32   18   23 ar  
    33   19   20 ar  
    34   19   39 1   
    35   20   21 ar  
    36   20   40 1   
    37   21   22 ar  
    38   21   41 1   
    39   22   23 ar  
    40   22   42 1   
    41   23   43 1   
    42   24   44 1   
    43   24   45 1   
    44   24   46 1   
    45   25   26 ar  
    46   25   30 ar  
    47   26   27 ar  
    48   27   28 ar  
    49   27   47 1   
    50   28   29 ar  
    51   28   48 1   
    52   29   30 ar  
    53   29   49 1   
    54   30   50 1   
@<TRIPOS>SUBSTRUCTURE
     1 4FI         1 TEMP              0 ****  ****    0 ROOT
