@<TRIPOS>MOLECULE
4FI
   51    54     1     0     0
SMALL
bcc


@<TRIPOS>ATOM
      1 C1         -0.4250    1.0560    2.1230 ca        1 4FI     -0.103000
      2 C2          1.6890    0.3100    1.1940 ca        1 4FI     -0.114300
      3 C3          1.8860   -0.5210    2.2750 ca        1 4FI     -0.101000
      4 C4          2.6980    0.3980    0.1050 c3        1 4FI     -0.051100
      5 C5          2.6150   -0.7550   -0.8880 c3        1 4FI     -0.043500
      6 C6          3.7620   -0.5380   -1.9810 c         1 4FI      0.928600
      7 N7          1.2730   -0.8340   -1.5680 n4        1 4FI     -0.652800
      8 O8          4.9230   -0.5790   -1.5440 o         1 4FI     -0.762800
      9 O9          3.3540   -0.3620   -3.1630 o         1 4FI     -0.762800
     10 C10         0.6180   -2.1660   -1.4520 c         1 4FI      0.597700
     11 C11         0.5170    1.1110    1.1270 ca        1 4FI     -0.148000
     12 O12        -0.3440   -2.2410   -0.6830 o         1 4FI     -0.497100
     13 C13         1.1450   -3.2310   -2.2760 cc        1 4FI     -0.260900
     14 N14         0.6590   -4.5640   -2.2220 na        1 4FI      0.150400
     15 N15         1.2920   -5.3420   -3.0810 nc        1 4FI     -0.449800
     16 C16         2.2210   -4.5680   -3.7480 cd        1 4FI      0.353800
     17 C17         2.1570   -3.2130   -3.2630 cd        1 4FI     -0.166300
     18 C18         3.1220   -5.0600   -4.7760 ca        1 4FI     -0.133500
     19 C19         2.8490   -6.2450   -5.4730 ca        1 4FI     -0.103000
     20 C20         3.7270   -6.6920   -6.4590 ca        1 4FI     -0.133500
     21 C21         4.8790   -5.9660   -6.7580 ca        1 4FI     -0.117000
     22 C22         5.1550   -4.7870   -6.0650 ca        1 4FI     -0.133500
     23 C23         4.2850   -4.3320   -5.0770 ca        1 4FI     -0.103000
     24 C24        -0.3890   -5.0060   -1.3260 c3        1 4FI      0.026600
     25 C25        -0.2480    0.1970    3.2410 ca        1 4FI     -0.035000
     26 C26         0.9240   -0.5980    3.3180 ca        1 4FI     -0.034000
     27 C27         1.1100   -1.4520    4.4410 ca        1 4FI     -0.117000
     28 C28         0.1650   -1.5080    5.4360 ca        1 4FI     -0.123000
     29 C29        -1.0060   -0.7150    5.3570 ca        1 4FI     -0.122000
     30 C30        -1.2100    0.1190    4.2850 ca        1 4FI     -0.117000
     31 H1         -1.3310    1.6800    2.0750 ha        1 4FI      0.136000
     32 H3          2.7970   -1.1350    2.3490 ha        1 4FI      0.142000
     33 H4          3.7430    0.3590    0.5270 hc        1 4FI      0.092700
     34 H4A         2.6040    1.3770   -0.4380 hc        1 4FI      0.092700
     35 H5          2.8080   -1.7320   -0.3670 hx        1 4FI      0.095700
     36 HN7         0.6490   -0.1240   -1.1700 hn        1 4FI      0.468800
     37 H11         0.3880    1.7980    0.2770 ha        1 4FI      0.126000
     38 H17         2.7680   -2.3640   -3.5890 ha        1 4FI      0.231000
     39 H19         1.9430   -6.8270   -5.2470 ha        1 4FI      0.148000
     40 H20         3.5070   -7.6230   -7.0030 ha        1 4FI      0.137000
     41 H21         5.5690   -6.3220   -7.5370 ha        1 4FI      0.133000
     42 H22         6.0640   -4.2110   -6.2960 ha        1 4FI      0.137000
     43 H23         4.5140   -3.4020   -4.5320 ha        1 4FI      0.148000
     44 H24        -0.0830   -4.7730   -0.2700 h1        1 4FI      0.076033
     45 H24A       -0.5640   -6.1080   -1.4380 h1        1 4FI      0.076033
     46 H24B       -1.3300   -4.4430   -1.5660 h1        1 4FI      0.076033
     47 H27         2.0240   -2.0610    4.4950 ha        1 4FI      0.137000
     48 H28         0.3070   -2.1660    6.3060 ha        1 4FI      0.136000
     49 H29        -1.7470   -0.7770    6.1680 ha        1 4FI      0.135000
     50 H30        -2.1150    0.7400    4.2160 ha        1 4FI      0.135000
     51 H72         1.4630   -0.6200   -2.5780 hn        1 4FI      0.468800
@<TRIPOS>BOND
     1    1   11 ar  
     2    1   25 ar  
     3    1   31 1   
     4    2    3 ar  
     5    2    4 1   
     6    2   11 ar  
     7    3   26 ar  
     8    3   32 1   
     9    4    5 1   
    10    4   33 1   
    11    4   34 1   
    12    5    6 1   
    13    5    7 1   
    14    5   35 1   
    15    6    8 1   
    16    6    9 1   
    17    7   10 1   
    18    7   36 1   
    19    7   51 1   
    20   10   12 2   
    21   10   13 1   
    22   11   37 1   
    23   13   14 1   
    24   13   17 2   
    25   14   15 1   
    26   14   24 1   
    27   15   16 2   
    28   16   17 1   
    29   16   18 1   
    30   17   38 1   
    31   18   19 ar  
    32   18   23 ar  
    33   19   20 ar  
    34   19   39 1   
    35   20   21 ar  
    36   20   40 1   
    37   21   22 ar  
    38   21   41 1   
    39   22   23 ar  
    40   22   42 1   
    41   23   43 1   
    42   24   44 1   
    43   24   45 1   
    44   24   46 1   
    45   25   26 ar  
    46   25   30 ar  
    47   26   27 ar  
    48   27   28 ar  
    49   27   47 1   
    50   28   29 ar  
    51   28   48 1   
    52   29   30 ar  
    53   29   49 1   
    54   30   50 1   
@<TRIPOS>SUBSTRUCTURE
     1 4FI         1 TEMP              0 ****  ****    0 ROOT
