@<TRIPOS>MOLECULE
4FI
   51    54     1     0     0
SMALL
bcc


@<TRIPOS>ATOM
      1 C1         -0.3660    1.0580    2.1560 ca        1 4FI     -0.103000
      2 C2          1.7350    0.2870    1.2160 ca        1 4FI     -0.114300
      3 C3          1.9190   -0.5590    2.2890 ca        1 4FI     -0.101000
      4 C4          2.7430    0.3700    0.1270 c3        1 4FI     -0.051100
      5 C5          2.6400   -0.7710   -0.8780 c3        1 4FI     -0.043500
      6 C6          3.7890   -0.5630   -1.9700 c         1 4FI      0.928600
      7 N7          1.2960   -0.8210   -1.5570 n4        1 4FI     -0.652800
      8 O8          4.9500   -0.6270   -1.5350 o         1 4FI     -0.762800
      9 O9          3.3830   -0.3710   -3.1500 o         1 4FI     -0.762800
     10 C10         0.6180   -2.1420   -1.4520 c         1 4FI      0.597700
     11 C11         0.5760    1.1080    1.1590 ca        1 4FI     -0.148000
     12 O12        -0.3450   -2.2070   -0.6840 o         1 4FI     -0.497100
     13 C13         1.1270   -3.2090   -2.2850 cc        1 4FI     -0.260900
     14 N14         0.6180   -4.5350   -2.2410 na        1 4FI      0.150400
     15 N15         1.2380   -5.3160   -3.1070 nc        1 4FI     -0.449800
     16 C16         2.1800   -4.5530   -3.7680 cd        1 4FI      0.353800
     17 C17         2.1390   -3.2010   -3.2710 cd        1 4FI     -0.166300
     18 C18         3.0730   -5.0520   -4.7990 ca        1 4FI     -0.133500
     19 C19         2.7800   -6.2280   -5.5040 ca        1 4FI     -0.103000
     20 C20         3.6500   -6.6820   -6.4940 ca        1 4FI     -0.133500
     21 C21         4.8140   -5.9720   -6.7880 ca        1 4FI     -0.117000
     22 C22         5.1090   -4.8030   -6.0870 ca        1 4FI     -0.133500
     23 C23         4.2470   -4.3410   -5.0960 ca        1 4FI     -0.103000
     24 C24        -0.4370   -4.9660   -1.3490 c3        1 4FI      0.026600
     25 C25        -0.2020    0.1830    3.2650 ca        1 4FI     -0.035000
     26 C26         0.9580   -0.6310    3.3320 ca        1 4FI     -0.034000
     27 C27         1.1310   -1.4990    4.4450 ca        1 4FI     -0.117000
     28 C28         0.1870   -1.5510    5.4410 ca        1 4FI     -0.123000
     29 C29        -0.9720   -0.7390    5.3720 ca        1 4FI     -0.122000
     30 C30        -1.1630    0.1090    4.3090 ca        1 4FI     -0.117000
     31 H1         -1.2620    1.6960    2.1170 ha        1 4FI      0.136000
     32 H3          2.8210   -1.1880    2.3550 ha        1 4FI      0.142000
     33 H4          2.6640    1.3560   -0.4060 hc        1 4FI      0.092700
     34 H4A         3.7880    0.3090    0.5470 hc        1 4FI      0.092700
     35 H5          2.8170   -1.7560   -0.3670 hx        1 4FI      0.095700
     36 HN7         1.4890   -0.6010   -2.5650 hn        1 4FI      0.468800
     37 H11         0.4560    1.8060    0.3170 ha        1 4FI      0.126000
     38 H17         2.7640   -2.3600   -3.5910 ha        1 4FI      0.231000
     39 H19         1.8650   -6.7970   -5.2820 ha        1 4FI      0.148000
     40 H20         3.4150   -7.6050   -7.0440 ha        1 4FI      0.137000
     41 H21         5.4980   -6.3340   -7.5700 ha        1 4FI      0.133000
     42 H22         6.0270   -4.2400   -6.3150 ha        1 4FI      0.137000
     43 H23         4.4910   -3.4180   -4.5450 ha        1 4FI      0.148000
     44 H24        -0.1280   -4.7470   -0.2910 h1        1 4FI      0.076033
     45 H24A       -1.3690   -4.3840   -1.5840 h1        1 4FI      0.076033
     46 H24B       -0.6320   -6.0640   -1.4700 h1        1 4FI      0.076033
     47 H27         2.0360   -2.1240    4.4910 ha        1 4FI      0.137000
     48 H28         0.3190   -2.2200    6.3040 ha        1 4FI      0.136000
     49 H29        -1.7130   -0.7980    6.1830 ha        1 4FI      0.135000
     50 H30        -2.0590    0.7450    4.2480 ha        1 4FI      0.135000
     51 H72         0.6850   -0.1030   -1.1520 hn        1 4FI      0.468800
@<TRIPOS>BOND
     1    1   11 ar  
     2    1   25 ar  
     3    1   31 1   
     4    2    3 ar  
     5    2    4 1   
     6    2   11 ar  
     7    3   26 ar  
     8    3   32 1   
     9    4    5 1   
    10    4   33 1   
    11    4   34 1   
    12    5    6 1   
    13    5    7 1   
    14    5   35 1   
    15    6    8 1   
    16    6    9 1   
    17    7   10 1   
    18    7   36 1   
    19    7   51 1   
    20   10   12 2   
    21   10   13 1   
    22   11   37 1   
    23   13   14 1   
    24   13   17 2   
    25   14   15 1   
    26   14   24 1   
    27   15   16 2   
    28   16   17 1   
    29   16   18 1   
    30   17   38 1   
    31   18   19 ar  
    32   18   23 ar  
    33   19   20 ar  
    34   19   39 1   
    35   20   21 ar  
    36   20   40 1   
    37   21   22 ar  
    38   21   41 1   
    39   22   23 ar  
    40   22   42 1   
    41   23   43 1   
    42   24   44 1   
    43   24   45 1   
    44   24   46 1   
    45   25   26 ar  
    46   25   30 ar  
    47   26   27 ar  
    48   27   28 ar  
    49   27   47 1   
    50   28   29 ar  
    51   28   48 1   
    52   29   30 ar  
    53   29   49 1   
    54   30   50 1   
@<TRIPOS>SUBSTRUCTURE
     1 4FI         1 TEMP              0 ****  ****    0 ROOT
