@<TRIPOS>MOLECULE
4FJ
   68    74     1     0     0
SMALL
bcc


@<TRIPOS>ATOM
      1 C11         0.2420    0.2610    0.4260 c3        1 4FJ     -0.058800
      2 C13         0.3770   -0.7060   -4.1890 ca        1 4FJ     -0.096000
      3 C14        -0.2660    0.5120   -4.4060 ca        1 4FJ     -0.238300
      4 C16         1.6250   -1.1350    3.3190 c3        1 4FJ      0.178800
      5 C17         0.5040   -0.7670    4.3500 c3        1 4FJ     -0.091300
      6 C19         1.3200    1.1750    3.1680 ca        1 4FJ      0.033300
      7 C21         0.5090    3.4180    3.5110 ca        1 4FJ      0.060300
      8 C22         1.3890    2.5260    2.8410 ca        1 4FJ     -0.153000
      9 C23        -0.8020   -1.4840    4.0400 c3        1 4FJ     -0.103900
     10 C24        -0.7080   -2.9660    4.3590 c3        1 4FJ      0.124900
     11 C25         0.9430   -2.5960    6.0190 c3        1 4FJ      0.124900
     12 C27         0.6200    5.2200    1.8820 c3        1 4FJ      0.149800
     13 C28         0.8970    6.7210    1.7240 c3        1 4FJ      0.122900
     14 C30        -0.2180    5.6650    4.1160 c3        1 4FJ      0.149800
     15 O1         -0.3050   -3.2010    5.7030 os        1 4FJ     -0.410600
     16 C26         0.9350   -1.0970    5.7740 c3        1 4FJ     -0.103900
     17 C18         0.3720    0.7320    4.1590 ca        1 4FJ      0.327600
     18 N4         -0.4570    1.5610    4.7970 nb        1 4FJ     -0.604000
     19 C20        -0.3900    2.8680    4.4690 ca        1 4FJ      0.306200
     20 N5          0.6100    4.8080    3.2800 nh        1 4FJ     -0.628000
     21 O2          0.0150    7.5050    2.5180 os        1 4FJ     -0.412600
     22 C29         0.0830    7.1530    3.8940 c3        1 4FJ      0.122900
     23 N2          2.1530    0.1140    2.7370 nh        1 4FJ     -0.514400
     24 C7          2.5740    0.0560    1.3760 ca        1 4FJ      0.146600
     25 C8          1.7100    0.1410    0.2870 ca        1 4FJ     -0.180600
     26 C1          3.9900   -0.0960    1.1330 ca        1 4FJ     -0.136300
     27 C6          4.9450   -0.2010    2.1790 ca        1 4FJ     -0.074000
     28 C5          6.2810   -0.3530    1.9090 ca        1 4FJ     -0.164000
     29 C4          6.7290   -0.4050    0.5560 ca        1 4FJ      0.133900
     30 F1          8.0530   -0.5590    0.3140 f         1 4FJ     -0.136900
     31 C3          5.8330   -0.2990   -0.4920 ca        1 4FJ     -0.212300
     32 C2          4.4380   -0.1380   -0.2210 ca        1 4FJ      0.412600
     33 N1          3.5750   -0.0180   -1.2910 nb        1 4FJ     -0.644000
     34 C9          2.2810    0.1210   -1.0370 cp        1 4FJ      0.386300
     35 C10         1.3710    0.2610   -2.2130 cp        1 4FJ      0.346300
     36 C12         1.2150   -0.8410   -3.0790 ca        1 4FJ     -0.213300
     37 C15        -0.0420    1.5580   -3.4910 ca        1 4FJ      0.393200
     38 N3          0.7550    1.4540   -2.4130 nb        1 4FJ     -0.651000
     39 H1         -0.1220   -0.1500    1.4000 hc        1 4FJ      0.056700
     40 H2         -0.2800   -0.2930   -0.3950 hc        1 4FJ      0.056700
     41 H3         -0.0580    1.3390    0.3660 hc        1 4FJ      0.056700
     42 H4          0.2350   -1.5470   -4.8820 ha        1 4FJ      0.142000
     43 H5         -0.9290    0.6610   -5.2680 ha        1 4FJ      0.146000
     44 H6          1.2170   -1.8200    2.5280 h1        1 4FJ      0.058200
     45 H7          2.4840   -1.6450    3.8320 h1        1 4FJ      0.058200
     46 H8          2.1160    2.8840    2.0990 ha        1 4FJ      0.156000
     47 H9         -1.6180   -1.0240    4.6590 hc        1 4FJ      0.065950
     48 H10        -1.0730   -1.3540    2.9610 hc        1 4FJ      0.065950
     49 H11         0.0090   -3.4760    3.6610 h1        1 4FJ      0.046950
     50 H12        -1.7160   -3.4550    4.2900 h1        1 4FJ      0.046950
     51 H13         1.0830   -2.8200    7.1110 h1        1 4FJ      0.046950
     52 H14         1.7570   -3.0910    5.4250 h1        1 4FJ      0.046950
     53 H16         1.4270    4.6560    1.3390 h1        1 4FJ      0.051200
     54 H17         1.9590    6.9600    1.9930 h1        1 4FJ      0.058200
     55 H18         0.6830    7.0380    0.6690 h1        1 4FJ      0.058200
     56 H19        -0.0030    5.4200    5.1940 h1        1 4FJ      0.051200
     57 H20        -1.3160    5.4910    3.9210 h1        1 4FJ      0.051200
     58 H21         0.2170   -0.6110    6.4860 hc        1 4FJ      0.065950
     59 H22         1.9560   -0.6810    5.9730 hc        1 4FJ      0.065950
     60 H23        -1.1060    3.5020    5.0200 h4        1 4FJ      0.025100
     61 H24        -0.7080    7.7790    4.3840 h1        1 4FJ      0.058200
     62 H25         1.0950    7.4180    4.3010 h1        1 4FJ      0.058200
     63 H26         4.6090   -0.1560    3.2280 ha        1 4FJ      0.158000
     64 H27         7.0230   -0.4330    2.7170 ha        1 4FJ      0.153000
     65 H28         6.1860   -0.3350   -1.5350 ha        1 4FJ      0.168000
     66 H29         1.7520   -1.7790   -2.8840 ha        1 4FJ      0.154000
     67 H30        -0.5250    2.5430   -3.6280 h4        1 4FJ      0.025100
     68 H15        -0.3670    4.9840    1.3880 h1        1 4FJ      0.051200
@<TRIPOS>BOND
     1    1   25 1   
     2    1   39 1   
     3    1   40 1   
     4    1   41 1   
     5    2    3 ar  
     6    2   36 ar  
     7    2   42 1   
     8    3   37 ar  
     9    3   43 1   
    10    4    5 1   
    11    4   23 1   
    12    4   44 1   
    13    4   45 1   
    14    5    9 1   
    15    5   16 1   
    16    5   17 1   
    17    6    8 ar  
    18    6   17 ar  
    19    6   23 1   
    20    7    8 ar  
    21    7   19 ar  
    22    7   20 1   
    23    8   46 1   
    24    9   10 1   
    25    9   47 1   
    26    9   48 1   
    27   10   15 1   
    28   10   49 1   
    29   10   50 1   
    30   11   15 1   
    31   11   16 1   
    32   11   51 1   
    33   11   52 1   
    34   12   13 1   
    35   12   20 1   
    36   12   53 1   
    37   12   68 1   
    38   13   21 1   
    39   13   54 1   
    40   13   55 1   
    41   14   20 1   
    42   14   22 1   
    43   14   56 1   
    44   14   57 1   
    45   16   58 1   
    46   16   59 1   
    47   17   18 ar  
    48   18   19 ar  
    49   19   60 1   
    50   21   22 1   
    51   22   61 1   
    52   22   62 1   
    53   23   24 1   
    54   24   25 ar  
    55   24   26 ar  
    56   25   34 ar  
    57   26   27 ar  
    58   26   32 ar  
    59   27   28 ar  
    60   27   63 1   
    61   28   29 ar  
    62   28   64 1   
    63   29   30 1   
    64   29   31 ar  
    65   31   32 ar  
    66   31   65 1   
    67   32   33 ar  
    68   33   34 ar  
    69   34   35 1   
    70   35   36 ar  
    71   35   38 ar  
    72   36   66 1   
    73   37   38 ar  
    74   37   67 1   
@<TRIPOS>SUBSTRUCTURE
     1 4FJ         1 TEMP              0 ****  ****    0 ROOT
