@<TRIPOS>MOLECULE
4FJ
   68    65     1     0     0
SMALL
bcc


@<TRIPOS>ATOM
      1 C11        -2.0340   -1.2260   -1.3460 c3        1 4FJ     -0.185000
      2 C13        -2.0960   -2.8740   -5.9620 c1        1 4FJ     -0.096000
      3 C14        -2.4790   -1.7060   -6.5880 c1        1 4FJ     -0.121250
      4 C16         0.2220   -2.0710    1.5940 c3        1 4FJ     -0.058000
      5 C17        -0.6330   -1.4030    2.5770 c3        1 4FJ      0.003000
      6 C19         0.2290    0.2910    1.1660 c1        1 4FJ      0.019000
      7 C21         0.0860    2.6830    1.4970 c1        1 4FJ      0.041000
      8 C22         0.5620    1.5930    0.7700 c2        1 4FJ     -0.154000
      9 C23        -2.0640   -1.6890    2.7020 c3        1 4FJ     -0.182500
     10 C24        -2.3320   -3.0780    3.3090 c3        1 4FJ     -0.025500
     11 C25        -0.1840   -3.0100    4.4370 c3        1 4FJ     -0.025500
     12 C27        -0.5980    4.7010    0.8170 c3        1 4FJ     -0.089000
     13 C28        -0.2790    6.1360    0.5280 c3        1 4FJ     -0.048500
     14 C30         1.4310    4.4290    1.8110 c3        1 4FJ     -0.089000
     15 O1         -1.6060   -3.2930    4.5550 os        1 4FJ     -0.268000
     16 C26         0.0920   -1.6190    3.8330 c3        1 4FJ     -0.182500
     17 C18        -0.5850    0.0890    2.2940 c2        1 4FJ     -0.094000
     18 N4         -1.0590    1.1820    3.0160 n2        1 4FJ     -0.078000
     19 C20        -0.7280    2.4740    2.6240 c1        1 4FJ     -0.156000
     20 N5          0.4550    4.0400    1.1070 n3        1 4FJ     -0.222000
     21 O2          1.2170    6.3590    0.1730 os        1 4FJ     -0.268000
     22 C29         1.7710    5.8740    1.5260 c3        1 4FJ     -0.048500
     23 N2          0.8320   -1.0540    0.7720 n2        1 4FJ     -0.193000
     24 C7          0.5370   -1.3330   -0.6640 c2        1 4FJ      0.064000
     25 C8         -0.5350   -1.3610   -1.5150 c2        1 4FJ     -0.106000
     26 C1          1.8390   -1.4720   -1.1730 c1        1 4FJ     -0.072000
     27 C6          2.9420   -1.5030   -0.2890 c1        1 4FJ     -0.121250
     28 C5          4.2300   -1.6990   -0.7860 c1        1 4FJ     -0.121250
     29 C4          4.4320   -1.8650   -2.1520 c1        1 4FJ      0.098000
     30 F1          5.7300   -1.8320   -2.5440 f         1 4FJ     -0.102000
     31 C3          3.3400   -1.8350   -3.0300 c1        1 4FJ     -0.146000
     32 C2          2.0360   -1.6360   -2.5280 c1        1 4FJ      0.019000
     33 N1          0.9360   -1.6650   -3.3980 n1        1 4FJ     -0.119000
     34 C9         -0.3320   -1.5300   -2.9030 c1        1 4FJ      0.060000
     35 C10        -1.1500   -1.5900   -4.1810 c2        1 4FJ      0.018000
     36 C12        -1.4360   -2.8220   -4.7670 c2        1 4FJ     -0.149000
     37 C15        -2.1920   -0.4740   -6.0010 c1        1 4FJ     -0.121250
     38 N3         -1.5330   -0.4240   -4.8080 n1        1 4FJ     -0.121000
     39 H1         -2.4700   -1.9810   -1.7480 hc        1 4FJ      0.097000
     40 H2         -2.3530   -0.3690   -1.7980 hc        1 4FJ      0.097000
     41 H3         -2.2520   -1.1940   -0.3990 hc        1 4FJ      0.097000
     42 H4         -2.2930   -3.7310   -6.3700 ha        1 4FJ      0.142000
     43 H5         -2.9610   -1.7430   -7.4610 ha        1 4FJ      0.154500
     44 H6         -0.3180   -2.6690    1.0360 h1        1 4FJ      0.097000
     45 H7          0.8810   -2.5590    2.0300 h1        1 4FJ      0.097000
     46 H8          1.1420    1.7400   -0.0350 ha        1 4FJ      0.157000
     47 H9         -2.4870   -1.6470    1.7910 hc        1 4FJ      0.105500
     48 H10        -2.4730   -1.0100    3.2720 hc        1 4FJ      0.105500
     49 H11        -3.3230   -3.1700    3.4890 h1        1 4FJ      0.086250
     50 H12        -2.0550   -3.7810    2.6460 h1        1 4FJ      0.086250
     51 H13         0.2240   -3.6870    3.8690 h1        1 4FJ      0.086250
     52 H14         0.2310   -3.0570    5.3430 h1        1 4FJ      0.086250
     53 H15        -1.2100    4.6590    1.5570 h1        1 4FJ      0.103250
     54 H16        -1.0290    4.2940    0.0130 h1        1 4FJ      0.103250
     55 H17        -0.4990    6.6690    1.3080 h1        1 4FJ      0.094000
     56 H18        -0.8220    6.4300   -0.2140 h1        1 4FJ      0.094000
     57 H19         2.1830    3.8900    1.6200 h1        1 4FJ      0.103250
     58 H20         1.1920    4.3300    2.7950 h1        1 4FJ      0.103250
     59 H21         1.0810   -1.5300    3.6590 hc        1 4FJ      0.105500
     60 H22        -0.1850   -0.9250    4.4860 hc        1 4FJ      0.105500
     61 H23        -1.0700    3.2500    3.1400 ha        1 4FJ      0.159000
     62 H24         2.7450    5.9720    1.5200 h1        1 4FJ      0.094000
     63 H25         1.3980    6.4380    2.2470 h1        1 4FJ      0.094000
     64 H26         2.8030   -1.3890    0.6630 ha        1 4FJ      0.154500
     65 H27         5.0010   -1.7580   -0.1580 ha        1 4FJ      0.154500
     66 H28         3.4840   -1.9530   -4.0090 ha        1 4FJ      0.168000
     67 H29        -1.1620   -3.6630   -4.3150 ha        1 4FJ      0.153000
     68 H30        -2.4660    0.3610   -6.4480 ha        1 4FJ      0.154500
@<TRIPOS>BOND
     1    1   25 1   
     2    1   39 1   
     3    1   40 1   
     4    1   41 1   
     5    2   36 1   
     6    2   42 1   
     7    3   37 1   
     8    3   43 1   
     9    4    5 1   
    10    4   23 1   
    11    4   44 1   
    12    4   45 1   
    13    5    9 1   
    14    5   16 1   
    15    5   17 1   
    16    6    8 1   
    17    6   17 1   
    18    7    8 1   
    19    7   20 1   
    20    8   46 1   
    21    9   10 1   
    22    9   47 1   
    23    9   48 1   
    24   10   15 1   
    25   10   49 1   
    26   10   50 1   
    27   11   15 1   
    28   11   16 1   
    29   11   51 1   
    30   11   52 1   
    31   12   13 1   
    32   12   20 1   
    33   12   53 1   
    34   12   54 1   
    35   13   21 1   
    36   13   55 1   
    37   13   56 1   
    38   14   20 1   
    39   14   22 1   
    40   14   57 1   
    41   14   58 1   
    42   16   59 1   
    43   16   60 1   
    44   17   18 1   
    45   18   19 1   
    46   19   61 1   
    47   21   22 1   
    48   22   62 1   
    49   22   63 1   
    50   23   24 1   
    51   24   25 1   
    52   24   26 1   
    53   25   34 1   
    54   26   32 1   
    55   27   28 1   
    56   27   64 1   
    57   28   65 1   
    58   29   31 1   
    59   31   66 1   
    60   32   33 1   
    61   34   35 1   
    62   35   36 1   
    63   35   38 1   
    64   36   67 1   
    65   37   68 1   
@<TRIPOS>SUBSTRUCTURE
     1 4FJ         1 TEMP              0 ****  ****    0 ROOT
