@<TRIPOS>MOLECULE
4FJ
   68    74     1     0     0
SMALL
bcc


@<TRIPOS>ATOM
      1 C11         0.2470    0.2660    0.4210 c3        1 4FJ     -0.058800
      2 C13         0.3950   -0.6880   -4.1960 ca        1 4FJ     -0.096000
      3 C14        -0.2480    0.5310   -4.4110 ca        1 4FJ     -0.238300
      4 C16         1.6240   -1.1380    3.3160 c3        1 4FJ      0.178800
      5 C17         0.5000   -0.7730    4.3440 c3        1 4FJ     -0.091300
      6 C19         1.3170    1.1720    3.1690 ca        1 4FJ      0.033300
      7 C21         0.5030    3.4140    3.5140 ca        1 4FJ      0.060300
      8 C22         1.3850    2.5230    2.8440 ca        1 4FJ     -0.153000
      9 C23        -0.8050   -1.4910    4.0290 c3        1 4FJ     -0.103900
     10 C24        -0.7110   -2.9740    4.3460 c3        1 4FJ      0.124900
     11 C25         0.9360   -2.6050    6.0110 c3        1 4FJ      0.124900
     12 C27         0.6160    5.2190    1.8880 c3        1 4FJ      0.149800
     13 C28         0.8910    6.7200    1.7330 c3        1 4FJ      0.122900
     14 C30        -0.2280    5.6580    4.1200 c3        1 4FJ      0.149800
     15 O1         -0.3110   -3.2110    5.6910 os        1 4FJ     -0.410600
     16 C26         0.9270   -1.1050    5.7690 c3        1 4FJ     -0.103900
     17 C18         0.3670    0.7260    4.1560 ca        1 4FJ      0.327600
     18 N4         -0.4640    1.5530    4.7930 nb        1 4FJ     -0.604000
     19 C20        -0.3980    2.8610    4.4680 ca        1 4FJ      0.306200
     20 N5          0.6020    4.8030    3.2850 nh        1 4FJ     -0.628000
     21 O2          0.0060    7.5020    2.5260 os        1 4FJ     -0.412600
     22 C29         0.0710    7.1470    3.9020 c3        1 4FJ      0.122900
     23 N2          2.1520    0.1120    2.7370 nh        1 4FJ     -0.514400
     24 C7          2.5770    0.0580    1.3770 ca        1 4FJ      0.146600
     25 C8          1.7150    0.1460    0.2860 ca        1 4FJ     -0.180600
     26 C1          3.9920   -0.0940    1.1380 ca        1 4FJ     -0.136300
     27 C6          4.9460   -0.2030    2.1860 ca        1 4FJ     -0.074000
     28 C5          6.2810   -0.3550    1.9200 ca        1 4FJ     -0.164000
     29 C4          6.7340   -0.4040    0.5680 ca        1 4FJ      0.133900
     30 F1          8.0580   -0.5580    0.3280 f         1 4FJ     -0.136900
     31 C3          5.8400   -0.2950   -0.4830 ca        1 4FJ     -0.212300
     32 C2          4.4450   -0.1330   -0.2150 ca        1 4FJ      0.412600
     33 N1          3.5840   -0.0090   -1.2870 nb        1 4FJ     -0.644000
     34 C9          2.2900    0.1290   -1.0360 cp        1 4FJ      0.386300
     35 C10         1.3830    0.2730   -2.2150 cp        1 4FJ      0.346300
     36 C12         1.2290   -0.8270   -3.0840 ca        1 4FJ     -0.213300
     37 C15        -0.0260    1.5740   -3.4920 ca        1 4FJ      0.393200
     38 N3          0.7680    1.4660   -2.4120 nb        1 4FJ     -0.651000
     39 H1         -0.1200   -0.1500    1.3930 hc        1 4FJ      0.056700
     40 H2         -0.0530    1.3440    0.3660 hc        1 4FJ      0.056700
     41 H3         -0.2730   -0.2850   -0.4020 hc        1 4FJ      0.056700
     42 H4          0.2540   -1.5270   -4.8920 ha        1 4FJ      0.142000
     43 H5         -0.9080    0.6830   -5.2750 ha        1 4FJ      0.146000
     44 H6          2.4820   -1.6480    3.8300 h1        1 4FJ      0.058200
     45 H7          1.2190   -1.8220    2.5220 h1        1 4FJ      0.058200
     46 H8          2.1130    2.8840    2.1040 ha        1 4FJ      0.156000
     47 H9         -1.0740   -1.3590    2.9500 hc        1 4FJ      0.065950
     48 H10        -1.6230   -1.0330    4.6470 hc        1 4FJ      0.065950
     49 H11         0.0090   -3.4810    3.6490 h1        1 4FJ      0.046950
     50 H12        -1.7180   -3.4630    4.2730 h1        1 4FJ      0.046950
     51 H13         1.7520   -3.0990    5.4180 h1        1 4FJ      0.046950
     52 H14         1.0730   -2.8310    7.1020 h1        1 4FJ      0.046950
     53 H16        -0.3700    4.9820    1.3910 h1        1 4FJ      0.051200
     54 H17         0.6800    7.0390    0.6780 h1        1 4FJ      0.058200
     55 H18         1.9520    6.9600    2.0050 h1        1 4FJ      0.058200
     56 H19        -0.0160    5.4120    5.1980 h1        1 4FJ      0.051200
     57 H20        -1.3260    5.4830    3.9220 h1        1 4FJ      0.051200
     58 H21         0.2070   -0.6220    6.4800 hc        1 4FJ      0.065950
     59 H22         1.9470   -0.6900    5.9710 hc        1 4FJ      0.065950
     60 H23        -1.1170    3.4930    5.0190 h4        1 4FJ      0.025100
     61 H24        -0.7220    7.7710    4.3910 h1        1 4FJ      0.058200
     62 H25         1.0810    7.4130    4.3120 h1        1 4FJ      0.058200
     63 H26         4.6060   -0.1610    3.2340 ha        1 4FJ      0.158000
     64 H27         7.0220   -0.4380    2.7290 ha        1 4FJ      0.153000
     65 H28         6.1960   -0.3280   -1.5250 ha        1 4FJ      0.168000
     66 H29         1.7660   -1.7650   -2.8910 ha        1 4FJ      0.154000
     67 H30        -0.5080    2.5590   -3.6280 h4        1 4FJ      0.025100
     68 H15         1.4250    4.6570    1.3470 h1        1 4FJ      0.051200
@<TRIPOS>BOND
     1    1   25 1   
     2    1   39 1   
     3    1   40 1   
     4    1   41 1   
     5    2    3 ar  
     6    2   36 ar  
     7    2   42 1   
     8    3   37 ar  
     9    3   43 1   
    10    4    5 1   
    11    4   23 1   
    12    4   44 1   
    13    4   45 1   
    14    5    9 1   
    15    5   16 1   
    16    5   17 1   
    17    6    8 ar  
    18    6   17 ar  
    19    6   23 1   
    20    7    8 ar  
    21    7   19 ar  
    22    7   20 1   
    23    8   46 1   
    24    9   10 1   
    25    9   47 1   
    26    9   48 1   
    27   10   15 1   
    28   10   49 1   
    29   10   50 1   
    30   11   15 1   
    31   11   16 1   
    32   11   51 1   
    33   11   52 1   
    34   12   13 1   
    35   12   20 1   
    36   12   53 1   
    37   12   68 1   
    38   13   21 1   
    39   13   54 1   
    40   13   55 1   
    41   14   20 1   
    42   14   22 1   
    43   14   56 1   
    44   14   57 1   
    45   16   58 1   
    46   16   59 1   
    47   17   18 ar  
    48   18   19 ar  
    49   19   60 1   
    50   21   22 1   
    51   22   61 1   
    52   22   62 1   
    53   23   24 1   
    54   24   25 ar  
    55   24   26 ar  
    56   25   34 ar  
    57   26   27 ar  
    58   26   32 ar  
    59   27   28 ar  
    60   27   63 1   
    61   28   29 ar  
    62   28   64 1   
    63   29   30 1   
    64   29   31 ar  
    65   31   32 ar  
    66   31   65 1   
    67   32   33 ar  
    68   33   34 ar  
    69   34   35 1   
    70   35   36 ar  
    71   35   38 ar  
    72   36   66 1   
    73   37   38 ar  
    74   37   67 1   
@<TRIPOS>SUBSTRUCTURE
     1 4FJ         1 TEMP              0 ****  ****    0 ROOT
