@<TRIPOS>MOLECULE
4FJ
   68    74     1     0     0
SMALL
bcc


@<TRIPOS>ATOM
      1 C11         0.2410    0.2610    0.4260 c3        1 4FJ     -0.058800
      2 C13         0.3730   -0.7080   -4.1880 ca        1 4FJ     -0.096000
      3 C14        -0.2730    0.5090   -4.4050 ca        1 4FJ     -0.238300
      4 C16         1.6280   -1.1350    3.3180 c3        1 4FJ      0.178800
      5 C17         0.5080   -0.7670    4.3500 c3        1 4FJ     -0.091300
      6 C19         1.3210    1.1750    3.1680 ca        1 4FJ      0.033300
      7 C21         0.5100    3.4180    3.5130 ca        1 4FJ      0.060300
      8 C22         1.3880    2.5260    2.8410 ca        1 4FJ     -0.153000
      9 C23        -0.7980   -1.4850    4.0420 c3        1 4FJ     -0.103900
     10 C24        -0.7030   -2.9680    4.3610 c3        1 4FJ      0.124900
     11 C25         0.9510   -2.5960    6.0190 c3        1 4FJ      0.124900
     12 C27         0.6160    5.2210    1.8840 c3        1 4FJ      0.149800
     13 C28         0.8920    6.7210    1.7260 c3        1 4FJ      0.122900
     14 C30        -0.2170    5.6640    4.1190 c3        1 4FJ      0.149800
     15 O1         -0.2980   -3.2020    5.7040 os        1 4FJ     -0.410600
     16 C26         0.9420   -1.0970    5.7730 c3        1 4FJ     -0.103900
     17 C18         0.3750    0.7320    4.1600 ca        1 4FJ      0.327600
     18 N4         -0.4540    1.5600    4.7990 nb        1 4FJ     -0.604000
     19 C20        -0.3880    2.8670    4.4710 ca        1 4FJ      0.306200
     20 N5          0.6090    4.8070    3.2820 nh        1 4FJ     -0.628000
     21 O2          0.0110    7.5050    2.5220 os        1 4FJ     -0.412600
     22 C29         0.0830    7.1520    3.8970 c3        1 4FJ      0.122900
     23 N2          2.1540    0.1150    2.7350 nh        1 4FJ     -0.514400
     24 C7          2.5740    0.0580    1.3740 ca        1 4FJ      0.146600
     25 C8          1.7090    0.1420    0.2860 ca        1 4FJ     -0.180600
     26 C1          3.9890   -0.0930    1.1300 ca        1 4FJ     -0.136300
     27 C6          4.9460   -0.1980    2.1740 ca        1 4FJ     -0.074000
     28 C5          6.2820   -0.3480    1.9040 ca        1 4FJ     -0.164000
     29 C4          6.7290   -0.4000    0.5500 ca        1 4FJ      0.133900
     30 F1          8.0530   -0.5530    0.3060 f         1 4FJ     -0.136900
     31 C3          5.8310   -0.2950   -0.4980 ca        1 4FJ     -0.212300
     32 C2          4.4370   -0.1350   -0.2250 ca        1 4FJ      0.412600
     33 N1          3.5720   -0.0160   -1.2940 nb        1 4FJ     -0.644000
     34 C9          2.2790    0.1220   -1.0380 cp        1 4FJ      0.386300
     35 C10         1.3660    0.2610   -2.2140 cp        1 4FJ      0.346300
     36 C12         1.2110   -0.8420   -3.0800 ca        1 4FJ     -0.213300
     37 C15        -0.0490    1.5560   -3.4900 ca        1 4FJ      0.393200
     38 N3          0.7490    1.4520   -2.4130 nb        1 4FJ     -0.651000
     39 H1         -0.0600    1.3380    0.3670 hc        1 4FJ      0.056700
     40 H2         -0.1220   -0.1500    1.4010 hc        1 4FJ      0.056700
     41 H3         -0.2810   -0.2950   -0.3930 hc        1 4FJ      0.056700
     42 H4          0.2310   -1.5500   -4.8820 ha        1 4FJ      0.142000
     43 H5         -0.9360    0.6570   -5.2670 ha        1 4FJ      0.146000
     44 H6          2.4880   -1.6440    3.8300 h1        1 4FJ      0.058200
     45 H7          1.2200   -1.8200    2.5270 h1        1 4FJ      0.058200
     46 H8          2.1140    2.8850    2.0980 ha        1 4FJ      0.156000
     47 H9         -1.6130   -1.0260    4.6620 hc        1 4FJ      0.065950
     48 H10        -1.0710   -1.3550    2.9630 hc        1 4FJ      0.065950
     49 H11        -1.7110   -3.4570    4.2930 h1        1 4FJ      0.046950
     50 H12         0.0140   -3.4770    3.6620 h1        1 4FJ      0.046950
     51 H13         1.7640   -3.0910    5.4230 h1        1 4FJ      0.046950
     52 H14         1.0920   -2.8210    7.1100 h1        1 4FJ      0.046950
     53 H16         1.4230    4.6570    1.3390 h1        1 4FJ      0.051200
     54 H17         0.6760    7.0390    0.6720 h1        1 4FJ      0.058200
     55 H18         1.9550    6.9600    1.9930 h1        1 4FJ      0.058200
     56 H19        -0.0010    5.4180    5.1970 h1        1 4FJ      0.051200
     57 H20        -1.3160    5.4900    3.9260 h1        1 4FJ      0.051200
     58 H21         0.2240   -0.6120    6.4870 hc        1 4FJ      0.065950
     59 H22         1.9620   -0.6810    5.9720 hc        1 4FJ      0.065950
     60 H23        -1.1040    3.5010    5.0240 h4        1 4FJ      0.025100
     61 H24        -0.7080    7.7770    4.3890 h1        1 4FJ      0.058200
     62 H25         1.0950    7.4170    4.3030 h1        1 4FJ      0.058200
     63 H26         4.6110   -0.1530    3.2240 ha        1 4FJ      0.158000
     64 H27         7.0250   -0.4280    2.7100 ha        1 4FJ      0.153000
     65 H28         6.1830   -0.3310   -1.5410 ha        1 4FJ      0.168000
     66 H29         1.7500   -1.7790   -2.8850 ha        1 4FJ      0.154000
     67 H30        -0.5330    2.5390   -3.6270 h4        1 4FJ      0.025100
     68 H15        -0.3720    4.9840    1.3920 h1        1 4FJ      0.051200
@<TRIPOS>BOND
     1    1   25 1   
     2    1   39 1   
     3    1   40 1   
     4    1   41 1   
     5    2    3 ar  
     6    2   36 ar  
     7    2   42 1   
     8    3   37 ar  
     9    3   43 1   
    10    4    5 1   
    11    4   23 1   
    12    4   44 1   
    13    4   45 1   
    14    5    9 1   
    15    5   16 1   
    16    5   17 1   
    17    6    8 ar  
    18    6   17 ar  
    19    6   23 1   
    20    7    8 ar  
    21    7   19 ar  
    22    7   20 1   
    23    8   46 1   
    24    9   10 1   
    25    9   47 1   
    26    9   48 1   
    27   10   15 1   
    28   10   49 1   
    29   10   50 1   
    30   11   15 1   
    31   11   16 1   
    32   11   51 1   
    33   11   52 1   
    34   12   13 1   
    35   12   20 1   
    36   12   53 1   
    37   12   68 1   
    38   13   21 1   
    39   13   54 1   
    40   13   55 1   
    41   14   20 1   
    42   14   22 1   
    43   14   56 1   
    44   14   57 1   
    45   16   58 1   
    46   16   59 1   
    47   17   18 ar  
    48   18   19 ar  
    49   19   60 1   
    50   21   22 1   
    51   22   61 1   
    52   22   62 1   
    53   23   24 1   
    54   24   25 ar  
    55   24   26 ar  
    56   25   34 ar  
    57   26   27 ar  
    58   26   32 ar  
    59   27   28 ar  
    60   27   63 1   
    61   28   29 ar  
    62   28   64 1   
    63   29   30 1   
    64   29   31 ar  
    65   31   32 ar  
    66   31   65 1   
    67   32   33 ar  
    68   33   34 ar  
    69   34   35 1   
    70   35   36 ar  
    71   35   38 ar  
    72   36   66 1   
    73   37   38 ar  
    74   37   67 1   
@<TRIPOS>SUBSTRUCTURE
     1 4FJ         1 TEMP              0 ****  ****    0 ROOT
