@<TRIPOS>MOLECULE
4FJ
   68    74     1     0     0
SMALL
bcc


@<TRIPOS>ATOM
      1 C11         0.9880   -0.0840    1.7800 c3        1 4FJ     -0.058800
      2 C13         5.3680   -1.4240    2.9060 ca        1 4FJ     -0.096000
      3 C14         4.8320   -2.6490    3.3000 ca        1 4FJ     -0.238300
      4 C16        -0.4510    2.6360    0.1140 c3        1 4FJ      0.178800
      5 C17        -1.8230    2.7070    0.8660 c3        1 4FJ     -0.091300
      6 C19        -1.4120    0.5150   -0.0610 ca        1 4FJ      0.033300
      7 C21        -2.9170   -1.3560    0.1470 ca        1 4FJ      0.060300
      8 C22        -1.6970   -0.8170   -0.3440 ca        1 4FJ     -0.153000
      9 C23        -1.6430    3.0750    2.3320 c3        1 4FJ     -0.103900
     10 C24        -1.2460    4.5330    2.4910 c3        1 4FJ      0.124900
     11 C25        -2.3210    5.1400    0.4660 c3        1 4FJ      0.124900
     12 C27        -2.2770   -3.6980    0.0220 c3        1 4FJ      0.149800
     13 C28        -2.7070   -5.0640   -0.5290 c3        1 4FJ      0.122900
     14 C30        -4.6190   -3.0980    0.2160 c3        1 4FJ      0.149800
     15 O1         -2.1660    5.4120    1.8550 os        1 4FJ     -0.410600
     16 C26        -2.7620    3.7100    0.2050 c3        1 4FJ     -0.103900
     17 C18        -2.3480    1.2920    0.7110 ca        1 4FJ      0.327600
     18 N4         -3.4980    0.7990    1.1740 nb        1 4FJ     -0.604000
     19 C20        -3.7640   -0.4960    0.9030 ca        1 4FJ      0.306200
     20 N5         -3.2900   -2.6730   -0.1960 nh        1 4FJ     -0.628000
     21 O2         -3.9860   -5.4490   -0.0400 os        1 4FJ     -0.412600
     22 C29        -4.9830   -4.4810   -0.3410 c3        1 4FJ      0.122900
     23 N2         -0.3360    1.3110   -0.5250 nh        1 4FJ     -0.514400
     24 C7          0.9720    0.7510   -0.6050 ca        1 4FJ      0.146600
     25 C8          1.6010    0.0830    0.4440 ca        1 4FJ     -0.180600
     26 C1          1.6710    0.8920   -1.8600 ca        1 4FJ     -0.136300
     27 C6          1.1170    1.5660   -2.9810 ca        1 4FJ     -0.074000
     28 C5          1.8140    1.6870   -4.1550 ca        1 4FJ     -0.164000
     29 C4          3.1220    1.1280   -4.2630 ca        1 4FJ      0.133900
     30 F1          3.7940    1.2630   -5.4320 f         1 4FJ     -0.136900
     31 C3          3.6970    0.4580   -3.1980 ca        1 4FJ     -0.212300
     32 C2          2.9760    0.3240   -1.9710 ca        1 4FJ      0.412600
     33 N1          3.5720   -0.3660   -0.9350 nb        1 4FJ     -0.644000
     34 C9          2.9060   -0.4800    0.2050 cp        1 4FJ      0.386300
     35 C10         3.5710   -1.2420    1.3060 cp        1 4FJ      0.346300
     36 C12         4.7360   -0.7040    1.8890 ca        1 4FJ     -0.213300
     37 C15         3.6700   -3.1090    2.6530 ca        1 4FJ      0.393200
     38 N3          3.0390   -2.4340    1.6750 nb        1 4FJ     -0.651000
     39 H1          0.4800   -1.0810    1.8430 hc        1 4FJ      0.056700
     40 H2          1.7680   -0.0360    2.5820 hc        1 4FJ      0.056700
     41 H3          0.2290    0.7090    1.9960 hc        1 4FJ      0.056700
     42 H4          6.2790   -1.0300    3.3810 ha        1 4FJ      0.142000
     43 H5          5.3000   -3.2480    4.0920 ha        1 4FJ      0.146000
     44 H6         -0.4080    3.4000   -0.7080 h1        1 4FJ      0.058200
     45 H7          0.3950    2.8250    0.8290 h1        1 4FJ      0.058200
     46 H8         -1.0010   -1.4210   -0.9440 ha        1 4FJ      0.156000
     47 H9         -2.6140    2.8970    2.8670 hc        1 4FJ      0.065950
     48 H10        -0.8640    2.4250    2.8050 hc        1 4FJ      0.065950
     49 H11        -1.2790    4.8420    3.5700 h1        1 4FJ      0.046950
     50 H12        -0.2170    4.7090    2.0780 h1        1 4FJ      0.046950
     51 H13        -3.1090    5.8670    0.1350 h1        1 4FJ      0.046950
     52 H14        -1.3560    5.3610   -0.0650 h1        1 4FJ      0.046950
     53 H16        -1.3290   -3.3930   -0.5000 h1        1 4FJ      0.051200
     54 H17        -2.7190   -5.0540   -1.6500 h1        1 4FJ      0.058200
     55 H18        -2.0110   -5.8610   -0.1560 h1        1 4FJ      0.058200
     56 H19        -4.7090   -3.1320    1.3410 h1        1 4FJ      0.051200
     57 H20        -5.3660   -2.3530   -0.1790 h1        1 4FJ      0.051200
     58 H21        -2.8040    3.5290   -0.8990 hc        1 4FJ      0.065950
     59 H22        -3.7930    3.5620    0.6220 hc        1 4FJ      0.065950
     60 H23        -4.7220   -0.8510    1.3210 h4        1 4FJ      0.025100
     61 H24        -5.9080   -4.8640    0.1640 h1        1 4FJ      0.058200
     62 H25        -5.1390   -4.4330   -1.4510 h1        1 4FJ      0.058200
     63 H26         0.1040    1.9960   -2.9090 ha        1 4FJ      0.158000
     64 H27         1.3860    2.2070   -5.0250 ha        1 4FJ      0.153000
     65 H28         4.7050    0.0240   -3.2900 ha        1 4FJ      0.168000
     66 H29         5.1380    0.2570    1.5390 ha        1 4FJ      0.154000
     67 H30         3.2150   -4.0780    2.9280 h4        1 4FJ      0.025100
     68 H15        -2.0510   -3.8110    1.1220 h1        1 4FJ      0.051200
@<TRIPOS>BOND
     1    1   25 1   
     2    1   39 1   
     3    1   40 1   
     4    1   41 1   
     5    2    3 ar  
     6    2   36 ar  
     7    2   42 1   
     8    3   37 ar  
     9    3   43 1   
    10    4    5 1   
    11    4   23 1   
    12    4   44 1   
    13    4   45 1   
    14    5    9 1   
    15    5   16 1   
    16    5   17 1   
    17    6    8 ar  
    18    6   17 ar  
    19    6   23 1   
    20    7    8 ar  
    21    7   19 ar  
    22    7   20 1   
    23    8   46 1   
    24    9   10 1   
    25    9   47 1   
    26    9   48 1   
    27   10   15 1   
    28   10   49 1   
    29   10   50 1   
    30   11   15 1   
    31   11   16 1   
    32   11   51 1   
    33   11   52 1   
    34   12   13 1   
    35   12   20 1   
    36   12   53 1   
    37   12   68 1   
    38   13   21 1   
    39   13   54 1   
    40   13   55 1   
    41   14   20 1   
    42   14   22 1   
    43   14   56 1   
    44   14   57 1   
    45   16   58 1   
    46   16   59 1   
    47   17   18 ar  
    48   18   19 ar  
    49   19   60 1   
    50   21   22 1   
    51   22   61 1   
    52   22   62 1   
    53   23   24 1   
    54   24   25 ar  
    55   24   26 ar  
    56   25   34 ar  
    57   26   27 ar  
    58   26   32 ar  
    59   27   28 ar  
    60   27   63 1   
    61   28   29 ar  
    62   28   64 1   
    63   29   30 1   
    64   29   31 ar  
    65   31   32 ar  
    66   31   65 1   
    67   32   33 ar  
    68   33   34 ar  
    69   34   35 1   
    70   35   36 ar  
    71   35   38 ar  
    72   36   66 1   
    73   37   38 ar  
    74   37   67 1   
@<TRIPOS>SUBSTRUCTURE
     1 4FJ         1 TEMP              0 ****  ****    0 ROOT
