@<TRIPOS>MOLECULE
4FP
   30    29     1     0     0
SMALL
bcc


@<TRIPOS>ATOM
      1 F1         -5.4820    0.3800    1.0630 f         1 4FP     -0.107000
      2 C2         -4.1600    0.4150    0.8570 c2        1 4FP      0.086000
      3 C3         -3.2970   -0.1160    1.8030 c2        1 4FP     -0.164000
      4 C4         -1.9290   -0.1040    1.5790 c1        1 4FP     -0.104000
      5 C5         -1.4240    0.4400    0.4080 c1        1 4FP     -0.084000
      6 C6          0.0710    0.4900    0.1820 c3        1 4FP     -0.118000
      7 C7          0.4800   -0.6690   -0.4480 c3        1 4FP     -0.100000
      8 C8          1.3600   -0.3680   -1.7220 c3        1 4FP     -0.188000
      9 C9          2.5490    0.5060   -1.4120 c3        1 4FP     -0.085500
     10 N10         2.8260    0.4920   -0.1390 n3        1 4FP     -0.274000
     11 C11         2.7860   -0.5290    0.6600 c3        1 4FP     -0.085500
     12 C12         1.5900   -1.4130    0.3620 c3        1 4FP     -0.188000
     13 C13        -2.2870    0.9700   -0.5380 c1        1 4FP     -0.105000
     14 C14        -3.6540    0.9580   -0.3140 c1        1 4FP     -0.163000
     15 H3         -3.6530   -0.4990    2.6280 ha        1 4FP      0.148000
     16 H4         -1.3220   -0.4780    2.2450 ha        1 4FP      0.138000
     17 H61         0.2900    1.2620   -0.3800 hc        1 4FP      0.090500
     18 H62         0.5290    0.5720    1.0430 hc        1 4FP      0.090500
     19 H7         -0.2710   -1.2590   -0.6590 hc        1 4FP      0.089000
     20 H81         1.6790   -1.2150   -2.0930 hc        1 4FP      0.085000
     21 H82         0.8040    0.0810   -2.3900 hc        1 4FP      0.085000
     22 H91         3.3260    0.1800   -1.9130 h1        1 4FP      0.089000
     23 H92         2.3530    1.4260   -1.6870 h1        1 4FP      0.089000
     24 HN10        3.5930    0.9680    0.0120 hn        1 4FP      0.143000
     25 H111        2.7270   -0.2110    1.5850 h1        1 4FP      0.089000
     26 H112        3.6070   -1.0530    0.5530 h1        1 4FP      0.089000
     27 H121        1.8910   -2.1880   -0.1530 hc        1 4FP      0.085000
     28 H122        1.2090   -1.7230    1.2080 hc        1 4FP      0.085000
     29 H13        -1.9310    1.3530   -1.3620 ha        1 4FP      0.137000
     30 H14        -4.2620    1.3320   -0.9800 ha        1 4FP      0.148000
@<TRIPOS>BOND
     1    1    2 1   
     2    2    3 1   
     3    2   14 1   
     4    3    4 1   
     5    3   15 1   
     6    4   16 1   
     7    5    6 1   
     8    5   13 1   
     9    6    7 1   
    10    6   17 1   
    11    6   18 1   
    12    7    8 1   
    13    7   12 1   
    14    7   19 1   
    15    8    9 1   
    16    8   20 1   
    17    8   21 1   
    18    9   10 1   
    19    9   22 1   
    20    9   23 1   
    21   10   11 1   
    22   10   24 1   
    23   11   12 1   
    24   11   25 1   
    25   11   26 1   
    26   12   27 1   
    27   12   28 1   
    28   13   29 1   
    29   14   30 1   
@<TRIPOS>SUBSTRUCTURE
     1 4FP         1 TEMP              0 ****  ****    0 ROOT
