@<TRIPOS>MOLECULE
4FP
   30    31     1     0     0
SMALL
bcc


@<TRIPOS>ATOM
      1 F1         -0.0160   -0.0250   -0.0740 f         1 4FP     -0.142900
      2 C2          1.3390   -0.0150   -0.0690 ca        1 4FP      0.119900
      3 C3          2.0330    0.3350    1.1040 ca        1 4FP     -0.163500
      4 C4          3.4230    0.3410    1.0980 ca        1 4FP     -0.104500
      5 C5          4.1390    0.0070   -0.0590 ca        1 4FP     -0.089300
      6 C6          5.6280    0.0030   -0.0410 c3        1 4FP     -0.034100
      7 C7          6.2150    1.4070    0.0270 c3        1 4FP     -0.061700
      8 C8          7.6920    1.3410    0.3870 c3        1 4FP     -0.075900
      9 C9          8.3100    2.7380    0.4050 c3        1 4FP      0.164300
     10 N10         8.0840    3.4810   -0.8190 n3        1 4FP     -0.820200
     11 C11         6.6950    3.5230   -1.2330 c3        1 4FP      0.164300
     12 C12         6.0450    2.1430   -1.2930 c3        1 4FP     -0.075900
     13 C13         3.4390   -0.3400   -1.2200 ca        1 4FP     -0.104500
     14 C14         2.0480   -0.3540   -1.2360 ca        1 4FP     -0.163500
     15 H3          1.4710    0.5970    2.0110 ha        1 4FP      0.148000
     16 H4          3.9690    0.6120    2.0150 ha        1 4FP      0.137500
     17 H61         5.9780   -0.5800    0.8550 hc        1 4FP      0.051200
     18 H62         6.0240   -0.5200   -0.9520 hc        1 4FP      0.051200
     19 H7          5.6760    1.9820    0.8310 hc        1 4FP      0.049700
     20 H81         7.8220    0.8810    1.3990 hc        1 4FP      0.048700
     21 H82         8.2310    0.6960   -0.3560 hc        1 4FP      0.048700
     22 H91         7.9100    3.2840    1.3110 h1        1 4FP      0.026700
     23 H92         9.4250    2.6420    0.5340 h1        1 4FP      0.026700
     24 HN10        8.4390    4.4140   -0.7210 hn        1 4FP      0.361800
     25 H111        6.0710    4.1760   -0.5520 h1        1 4FP      0.026700
     26 H112        6.6680    3.9840   -2.2610 h1        1 4FP      0.026700
     27 H121        4.9550    2.2650   -1.5220 hc        1 4FP      0.048700
     28 H122        6.5050    1.5430   -2.1210 hc        1 4FP      0.048700
     29 H13         3.9930   -0.6050   -2.1340 ha        1 4FP      0.137500
     30 H14         1.4980   -0.6260   -2.1480 ha        1 4FP      0.148000
@<TRIPOS>BOND
     1    1    2 1   
     2    2    3 ar  
     3    2   14 ar  
     4    3    4 ar  
     5    3   15 1   
     6    4    5 ar  
     7    4   16 1   
     8    5    6 1   
     9    5   13 ar  
    10    6    7 1   
    11    6   17 1   
    12    6   18 1   
    13    7    8 1   
    14    7   12 1   
    15    7   19 1   
    16    8    9 1   
    17    8   20 1   
    18    8   21 1   
    19    9   10 1   
    20    9   22 1   
    21    9   23 1   
    22   10   11 1   
    23   10   24 1   
    24   11   12 1   
    25   11   25 1   
    26   11   26 1   
    27   12   27 1   
    28   12   28 1   
    29   13   14 ar  
    30   13   29 1   
    31   14   30 1   
@<TRIPOS>SUBSTRUCTURE
     1 4FP         1 TEMP              0 ****  ****    0 ROOT
