@<TRIPOS>MOLECULE
4FP
   30    31     1     0     0
SMALL
bcc


@<TRIPOS>ATOM
      1 F1         -0.0180   -0.0180   -0.1010 f         1 4FP     -0.142900
      2 C2          1.3370   -0.0110   -0.1000 ca        1 4FP      0.119900
      3 C3          2.0350    0.2920    1.0840 ca        1 4FP     -0.163500
      4 C4          3.4260    0.2960    1.0750 ca        1 4FP     -0.104500
      5 C5          4.1380    0.0040   -0.0960 ca        1 4FP     -0.089300
      6 C6          5.6260   -0.0030   -0.0830 c3        1 4FP     -0.034100
      7 C7          6.2160    1.3970    0.0270 c3        1 4FP     -0.061700
      8 C8          7.6940    1.3180    0.3820 c3        1 4FP     -0.075900
      9 C9          8.3140    2.7130    0.4420 c3        1 4FP      0.164300
     10 N10         8.0860    3.4940   -0.7590 n3        1 4FP     -0.820200
     11 C11         6.6970    3.5500   -1.1690 c3        1 4FP      0.164300
     12 C12         6.0440    2.1730   -1.2700 c3        1 4FP     -0.075900
     13 C13         3.4330   -0.2960   -1.2670 ca        1 4FP     -0.104500
     14 C14         2.0420   -0.3070   -1.2800 ca        1 4FP     -0.163500
     15 H3          1.4760    0.5200    2.0030 ha        1 4FP      0.148000
     16 H4          3.9740    0.5310    2.0000 ha        1 4FP      0.137500
     17 H61         5.9770   -0.6140    0.7940 hc        1 4FP      0.051200
     18 H62         6.0180   -0.4980   -1.0110 hc        1 4FP      0.051200
     19 H7          5.6790    1.9490    0.8490 hc        1 4FP      0.049700
     20 H81         7.8240    0.8270    1.3800 hc        1 4FP      0.048700
     21 H82         8.2300    0.6960   -0.3810 hc        1 4FP      0.048700
     22 H91         9.4290    2.6110    0.5650 h1        1 4FP      0.026950
     23 H92         7.9160    3.2320    1.3650 h1        1 4FP      0.026950
     24 HN10        8.4430    4.4230   -0.6330 hn        1 4FP      0.361800
     25 H111        6.6690    4.0430   -2.1820 h1        1 4FP      0.026950
     26 H112        6.0740    4.1830   -0.4670 h1        1 4FP      0.026950
     27 H121        6.5020    1.5990   -2.1160 hc        1 4FP      0.048700
     28 H122        4.9540    2.3040   -1.4930 hc        1 4FP      0.048700
     29 H13         3.9840   -0.5270   -2.1920 ha        1 4FP      0.137500
     30 H14         1.4890   -0.5430   -2.2000 ha        1 4FP      0.148000
@<TRIPOS>BOND
     1    1    2 1   
     2    2    3 ar  
     3    2   14 ar  
     4    3    4 ar  
     5    3   15 1   
     6    4    5 ar  
     7    4   16 1   
     8    5    6 1   
     9    5   13 ar  
    10    6    7 1   
    11    6   17 1   
    12    6   18 1   
    13    7    8 1   
    14    7   12 1   
    15    7   19 1   
    16    8    9 1   
    17    8   20 1   
    18    8   21 1   
    19    9   10 1   
    20    9   22 1   
    21    9   23 1   
    22   10   11 1   
    23   10   24 1   
    24   11   12 1   
    25   11   25 1   
    26   11   26 1   
    27   12   27 1   
    28   12   28 1   
    29   13   14 ar  
    30   13   29 1   
    31   14   30 1   
@<TRIPOS>SUBSTRUCTURE
     1 4FP         1 TEMP              0 ****  ****    0 ROOT
