@<TRIPOS>MOLECULE
4FP
   30    31     1     0     0
SMALL
bcc


@<TRIPOS>ATOM
      1 F1          1.6510   -4.4000    6.8310 f         1 4FP     -0.142900
      2 C2          1.4130   -3.7720    5.6540 ca        1 4FP      0.119900
      3 C3          2.2970   -2.7750    5.1990 ca        1 4FP     -0.163500
      4 C4          2.0440   -2.1380    3.9900 ca        1 4FP     -0.104500
      5 C5          0.9220   -2.4740    3.2210 ca        1 4FP     -0.089300
      6 C6          0.6770   -1.7930    1.9210 c3        1 4FP     -0.034100
      7 C7          0.2370   -0.3440    2.0930 c3        1 4FP     -0.061700
      8 C8          0.3340    0.3950    0.7660 c3        1 4FP     -0.075900
      9 C9         -0.1550    1.8350    0.9100 c3        1 4FP      0.164300
     10 N10        -1.4800    1.9360    1.4900 n3        1 4FP     -0.820200
     11 C11        -1.6360    1.1990    2.7290 c3        1 4FP      0.164300
     12 C12        -1.1850   -0.2570    2.6230 c3        1 4FP     -0.075900
     13 C13         0.0500   -3.4670    3.6820 ca        1 4FP     -0.104500
     14 C14         0.2840   -4.1180    4.8890 ca        1 4FP     -0.163500
     15 H3          3.1770   -2.5120    5.8030 ha        1 4FP      0.148000
     16 H4          2.7340   -1.3600    3.6310 ha        1 4FP      0.137500
     17 H61         1.6250   -1.8150    1.3160 hc        1 4FP      0.051200
     18 H62        -0.1030   -2.3490    1.3340 hc        1 4FP      0.051200
     19 H7          0.9270    0.1530    2.8320 hc        1 4FP      0.049700
     20 H81        -0.2770   -0.1400   -0.0060 hc        1 4FP      0.048700
     21 H82         1.3960    0.4130    0.4120 hc        1 4FP      0.048700
     22 H91         0.6140    2.4060    1.5110 h1        1 4FP      0.026700
     23 H92        -0.2030    2.3070   -0.1120 h1        1 4FP      0.026700
     24 HN10       -1.7150    2.9000    1.6350 hn        1 4FP      0.361800
     25 H111       -2.7310    1.2240    2.9940 h1        1 4FP      0.026700
     26 H112       -1.0690    1.6800    3.5820 h1        1 4FP      0.026700
     27 H121       -1.2430   -0.7290    3.6370 hc        1 4FP      0.048700
     28 H122       -1.8760   -0.8180    1.9420 hc        1 4FP      0.048700
     29 H13        -0.8340   -3.7390    3.0850 ha        1 4FP      0.137500
     30 H14        -0.4000   -4.8980    5.2510 ha        1 4FP      0.148000
@<TRIPOS>BOND
     1    1    2 1   
     2    2    3 ar  
     3    2   14 ar  
     4    3    4 ar  
     5    3   15 1   
     6    4    5 ar  
     7    4   16 1   
     8    5    6 1   
     9    5   13 ar  
    10    6    7 1   
    11    6   17 1   
    12    6   18 1   
    13    7    8 1   
    14    7   12 1   
    15    7   19 1   
    16    8    9 1   
    17    8   20 1   
    18    8   21 1   
    19    9   10 1   
    20    9   22 1   
    21    9   23 1   
    22   10   11 1   
    23   10   24 1   
    24   11   12 1   
    25   11   25 1   
    26   11   26 1   
    27   12   27 1   
    28   12   28 1   
    29   13   14 ar  
    30   13   29 1   
    31   14   30 1   
@<TRIPOS>SUBSTRUCTURE
     1 4FP         1 TEMP              0 ****  ****    0 ROOT
