@<TRIPOS>MOLECULE
4FP
   30    31     1     0     0
SMALL
bcc


@<TRIPOS>ATOM
      1 F1         -0.0170   -0.0250   -0.1180 f         1 4FP     -0.142900
      2 C2          1.3380   -0.0150   -0.1110 ca        1 4FP      0.119900
      3 C3          2.0310    0.2980    1.0720 ca        1 4FP     -0.163500
      4 C4          3.4220    0.3040    1.0680 ca        1 4FP     -0.104500
      5 C5          4.1380    0.0030   -0.0980 ca        1 4FP     -0.089300
      6 C6          5.6270   -0.0020   -0.0790 c3        1 4FP     -0.034100
      7 C7          6.2150    1.3990    0.0300 c3        1 4FP     -0.061700
      8 C8          7.6920    1.3210    0.3890 c3        1 4FP     -0.075900
      9 C9          8.3110    2.7170    0.4490 c3        1 4FP      0.164300
     10 N10         8.0860    3.4960   -0.7530 n7        1 4FP     -0.820200
     11 C11         6.6970    3.5510   -1.1670 c3        1 4FP      0.164300
     12 C12         6.0460    2.1730   -1.2680 c3        1 4FP     -0.075900
     13 C13         3.4380   -0.3080   -1.2690 ca        1 4FP     -0.104500
     14 C14         2.0470   -0.3200   -1.2870 ca        1 4FP     -0.163500
     15 H3          1.4690    0.5340    1.9870 ha        1 4FP      0.148000
     16 H4          3.9670    0.5470    1.9920 ha        1 4FP      0.137500
     17 H61         6.0230   -0.4990   -1.0050 hc        1 4FP      0.051200
     18 H62         5.9750   -0.6110    0.7990 hc        1 4FP      0.051200
     19 H7          5.6750    1.9510    0.8510 hc        1 4FP      0.049700
     20 H81         8.2300    0.6980   -0.3710 hc        1 4FP      0.048700
     21 H82         7.8200    0.8320    1.3880 hc        1 4FP      0.048700
     22 H91         9.4260    2.6160    0.5760 h1        1 4FP      0.026700
     23 H92         7.9100    3.2370    1.3700 h1        1 4FP      0.026700
     24 HN10        8.4410    4.4250   -0.6270 hn        1 4FP      0.361800
     25 H111        6.6720    4.0420   -2.1800 h1        1 4FP      0.026700
     26 H112        6.0730    4.1830   -0.4670 h1        1 4FP      0.026700
     27 H121        4.9570    2.3030   -1.4940 hc        1 4FP      0.048700
     28 H122        6.5070    1.5980   -2.1120 hc        1 4FP      0.048700
     29 H13         3.9930   -0.5460   -2.1900 ha        1 4FP      0.137500
     30 H14         1.4980   -0.5650   -2.2070 ha        1 4FP      0.148000
@<TRIPOS>BOND
     1    1    2 1   
     2    2    3 ar  
     3    2   14 ar  
     4    3    4 ar  
     5    3   15 1   
     6    4    5 ar  
     7    4   16 1   
     8    5    6 1   
     9    5   13 ar  
    10    6    7 1   
    11    6   17 1   
    12    6   18 1   
    13    7    8 1   
    14    7   12 1   
    15    7   19 1   
    16    8    9 1   
    17    8   20 1   
    18    8   21 1   
    19    9   10 1   
    20    9   22 1   
    21    9   23 1   
    22   10   11 1   
    23   10   24 1   
    24   11   12 1   
    25   11   25 1   
    26   11   26 1   
    27   12   27 1   
    28   12   28 1   
    29   13   14 ar  
    30   13   29 1   
    31   14   30 1   
@<TRIPOS>SUBSTRUCTURE
     1 4FP         1 TEMP              0 ****  ****    0 ROOT
