@<TRIPOS>MOLECULE
4FR
   79    84     1     0     0
SMALL
bcc


@<TRIPOS>ATOM
      1 C31        10.5050    1.0340   -0.9880 ca        1 4FR     -0.130000
      2 C30        10.2180    0.8620    0.3670 ca        1 4FR     -0.113000
      3 C28         7.9230    0.2920   -0.1810 cp        1 4FR     -0.026000
      4 C23         5.5630    0.8980    0.2940 ca        1 4FR     -0.105000
      5 C22         6.5800   -0.0610    0.2990 cp        1 4FR     -0.031000
      6 C17         2.2830    3.5040    0.9840 cc        1 4FR      0.396900
      7 C20         5.0720   -1.6670    1.2840 ca        1 4FR      0.027400
      8 C12         1.2160    2.5620    0.6600 ca        1 4FR     -0.376200
      9 C13        -0.1670    2.6060    0.4490 ca        1 4FR      0.507200
     10 C11         1.8810    1.2840    0.5370 ca        1 4FR      0.029800
     11 C10         1.1520    0.1420    0.2030 ca        1 4FR     -0.319300
     12 C9         -0.2490    0.3110    0.0020 ca        1 4FR      0.667200
     13 O40        -7.2510   -2.2390   -0.5790 o         1 4FR     -0.612100
     14 N42        -7.4260    0.0470   -0.6570 n         1 4FR     -0.566900
     15 C43        -8.8710    0.0700   -0.6790 c3        1 4FR      0.098700
     16 C45        -9.4670    0.7450    0.5680 c3        1 4FR     -0.092900
     17 C46       -10.9920    0.7060    0.5080 c3        1 4FR      0.170300
     18 N47       -11.5370    1.3020   -0.7050 n3        1 4FR     -0.734600
     19 C48       -12.9810    1.2690   -0.7310 c3        1 4FR      0.158100
     20 C49       -10.9480    0.7480   -1.9170 c3        1 4FR      0.170300
     21 C44        -9.4230    0.7890   -1.9210 c3        1 4FR     -0.092900
     22 C50        -5.2080   -0.9940   -0.5600 ca        1 4FR     -0.122600
     23 C55        -4.5190   -0.0080   -1.2640 ca        1 4FR     -0.123000
     24 C56        -3.1290    0.0640   -1.2020 ca        1 4FR     -0.095000
     25 C57        -2.3900   -0.8450   -0.4240 ca        1 4FR      0.129600
     26 C52        -3.1120   -1.8570    0.2800 ca        1 4FR      0.078100
     27 O53        -2.3440   -2.7330    1.0300 os        1 4FR     -0.346900
     28 C54        -3.0200   -3.8760    1.5470 c3        1 4FR      0.116700
     29 C51        -4.5020   -1.9300    0.2040 ca        1 4FR     -0.138000
     30 N8         -0.9770   -0.8230   -0.4130 nh        1 4FR     -0.701300
     31 N14        -0.8890    1.5300    0.1390 nb        1 4FR     -0.728000
     32 N16         3.4640    2.8520    1.0460 nd        1 4FR     -0.506100
     33 N15         3.2450    1.5330    0.7890 na        1 4FR      0.143800
     34 C18         4.2850    0.5680    0.7910 ca        1 4FR      0.053800
     35 C19         4.0440   -0.7240    1.3030 ca        1 4FR     -0.147000
     36 CL          4.7750   -3.2290    1.8850 cl        1 4FR     -0.082400
     37 C21         6.3390   -1.3500    0.7890 ca        1 4FR     -0.136000
     38 C33         8.2190    0.4500   -1.5430 ca        1 4FR     -0.119600
     39 C34         7.2130    0.2470   -2.6280 c         1 4FR      0.666700
     40 O35         7.1140    1.0430   -3.5850 o         1 4FR     -0.607100
     41 N36         6.4330   -0.8820   -2.5870 n         1 4FR     -0.665000
     42 C29         8.9350    0.4970    0.7680 ca        1 4FR     -0.121000
     43 C32         9.5080    0.8320   -1.9380 ca        1 4FR     -0.083000
     44 H31        11.5150    1.3310   -1.3060 ha        1 4FR      0.141000
     45 H30        11.0030    1.0190    1.1210 ha        1 4FR      0.139000
     46 H26         2.0490    5.1510    2.3210 hc        1 4FR      0.057700
     47 H26A        2.9310    5.5480    0.7850 hc        1 4FR      0.057700
     48 H26B        1.1320    5.2790    0.7550 hc        1 4FR      0.057700
     49 H23         5.7730    1.9080   -0.0950 ha        1 4FR      0.174000
     50 H13        -0.7300    3.5540    0.5370 h4        1 4FR      0.029100
     51 H10         1.6360   -0.8350    0.0780 ha        1 4FR      0.155000
     52 HN42       -6.9580    0.9200   -0.6170 hn        1 4FR      0.312500
     53 H43        -9.2290   -1.0050   -0.7040 h1        1 4FR      0.089700
     54 H45        -9.1380    0.2080    1.4940 hc        1 4FR      0.052200
     55 H45A       -9.1140    1.8060    0.6370 hc        1 4FR      0.052200
     56 H46       -11.3270   -0.3670    0.6280 h1        1 4FR      0.033450
     57 H46A      -11.3990    1.2890    1.3810 h1        1 4FR      0.033450
     58 H48       -13.3710    1.7890    0.1830 h1        1 4FR      0.032033
     59 H48A      -13.3380    1.8210   -1.6400 h1        1 4FR      0.032033
     60 H48B      -13.4040    0.2270   -0.7570 h1        1 4FR      0.032033
     61 H49       -11.2780   -0.3200   -2.0860 h1        1 4FR      0.033450
     62 H49A      -11.3250    1.3610   -2.7840 h1        1 4FR      0.033450
     63 H44        -9.0690    1.8520   -1.9410 hc        1 4FR      0.052200
     64 H44A       -9.0600    0.2850   -2.8540 hc        1 4FR      0.052200
     65 H55        -5.0580    0.7140   -1.8970 ha        1 4FR      0.139000
     66 H56        -2.6090    0.8480   -1.7760 ha        1 4FR      0.159000
     67 H54        -3.7600   -3.5690    2.3260 h1        1 4FR      0.049367
     68 H54A       -3.5210   -4.4470    0.7290 h1        1 4FR      0.049367
     69 H54B       -2.1940   -4.4780    2.0050 h1        1 4FR      0.049367
     70 H51        -5.0640   -2.7180    0.7300 ha        1 4FR      0.162000
     71 HN8        -0.5730   -1.6830   -0.0930 hn        1 4FR      0.433800
     72 H19         3.0610   -0.9880    1.7260 ha        1 4FR      0.163000
     73 H21         7.1460   -2.0990    0.7940 ha        1 4FR      0.157000
     74 HN36        6.4340   -1.4700   -1.7930 hn        1 4FR      0.314000
     75 HN3A        5.7360   -1.0120   -3.2780 hn        1 4FR      0.314000
     76 H29         8.7070    0.3740    1.8370 ha        1 4FR      0.143000
     77 H32         9.7160    0.9800   -3.0110 ha        1 4FR      0.158000
     78 C26         2.0930    4.9480    1.2200 c3        1 4FR     -0.110400
     79 C41        -6.6960   -1.1210   -0.6040 c         1 4FR      0.676700
@<TRIPOS>BOND
     1    1    2 ar  
     2    1   43 ar  
     3    1   44 1   
     4    2   42 ar  
     5    2   45 1   
     6    3    5 1   
     7    3   38 ar  
     8    3   42 ar  
     9    4    5 ar  
    10    4   34 ar  
    11    4   49 1   
    12    5   37 ar  
    13    6    8 1   
    14    6   32 2   
    15    6   78 1   
    16    7   35 ar  
    17    7   36 1   
    18    7   37 ar  
    19    8    9 ar  
    20    8   10 ar  
    21    9   31 ar  
    22    9   50 1   
    23   10   11 ar  
    24   10   33 1   
    25   11   12 ar  
    26   11   51 1   
    27   12   30 1   
    28   12   31 ar  
    29   13   79 2   
    30   14   15 1   
    31   14   52 1   
    32   14   79 1   
    33   15   16 1   
    34   15   21 1   
    35   15   53 1   
    36   16   17 1   
    37   16   54 1   
    38   16   55 1   
    39   17   18 1   
    40   17   56 1   
    41   17   57 1   
    42   18   19 1   
    43   18   20 1   
    44   19   58 1   
    45   19   59 1   
    46   19   60 1   
    47   20   21 1   
    48   20   61 1   
    49   20   62 1   
    50   21   63 1   
    51   21   64 1   
    52   22   23 ar  
    53   22   29 ar  
    54   22   79 1   
    55   23   24 ar  
    56   23   65 1   
    57   24   25 ar  
    58   24   66 1   
    59   25   26 ar  
    60   25   30 1   
    61   26   27 1   
    62   26   29 ar  
    63   27   28 1   
    64   28   67 1   
    65   28   68 1   
    66   28   69 1   
    67   29   70 1   
    68   30   71 1   
    69   32   33 1   
    70   33   34 1   
    71   34   35 ar  
    72   35   72 1   
    73   37   73 1   
    74   38   39 1   
    75   38   43 ar  
    76   39   40 2   
    77   39   41 1   
    78   41   74 1   
    79   41   75 1   
    80   42   76 1   
    81   43   77 1   
    82   46   78 1   
    83   47   78 1   
    84   48   78 1   
@<TRIPOS>SUBSTRUCTURE
     1 4FR         1 TEMP              0 ****  ****    0 ROOT
