@<TRIPOS>MOLECULE
4FR
   81    83     1     0     0
SMALL
bcc


@<TRIPOS>ATOM
      1 C31         0.3800    0.2400   -0.8230 c2        1 4FR     -0.183000
      2 C30         1.2810    1.3510   -0.7930 c1        1 4FR     -0.029000
      3 C28         1.5770    0.8970    1.6330 c2        1 4FR     -0.055000
      4 C23         2.9200    1.9330    3.5810 c2        1 4FR      0.154000
      5 C22         2.0460    1.0080    3.0190 c2        1 4FR     -0.121000
      6 C17         6.0410    3.8420    5.5670 c2        1 4FR      0.023000
      7 C20         1.6220   -0.0620    5.2340 c3        1 4FR     -0.089000
      8 C12         5.7730    3.5260    7.0300 c3        1 4FR     -0.183000
      9 C13         5.9010    4.6070    8.0770 c1        1 4FR     -0.033000
     10 C11         4.3560    2.9800    6.9400 c2        1 4FR      0.035000
     11 C10         3.5350    3.0020    8.0210 c2        1 4FR     -0.297000
     12 C9          4.0190    3.7610    9.2040 c2        1 4FR      0.260000
     13 O40         5.3130    6.9240   15.5260 o         1 4FR     -0.443000
     14 N42         3.4590    5.9570   16.4150 nt        1 4FR     -0.410000
     15 C43         8.7750   12.7280   18.5770 c2        1 4FR     -0.441000
     16 C45         7.8770    8.0460   17.1570 c3        1 4FR     -0.268000
     17 C46         8.1760    9.2680   16.3830 c2        1 4FR      0.033000
     18 N47         8.2790    9.3020   15.0740 n3        1 4FR     -0.083000
     19 C48         8.1070    8.1180   14.2490 c3        1 4FR     -0.150000
     20 C49         8.5710   10.5400   14.3710 c3        1 4FR     -0.150000
     21 C44         8.5880   11.6960   17.8260 c1        1 4FR      0.057000
     22 C50         4.0460    5.4840   14.0790 ca        1 4FR     -0.079000
     23 C55         4.1740    6.2140   12.8970 ca        1 4FR     -0.128000
     24 C56         3.9390    5.6120   11.6630 ca        1 4FR     -0.062000
     25 C57         3.5890    4.2530   11.5880 ca        1 4FR     -0.012000
     26 C52         3.4490    3.5140   12.8040 ca        1 4FR      0.115000
     27 O53         3.0720    2.2100   12.7100 oh        1 4FR     -0.335000
     28 C54         2.9330    0.8410   15.0610 c1        1 4FR     -0.042000
     29 C51         3.6770    4.1400   14.0380 ca        1 4FR     -0.196000
     30 N8          3.3310    3.5970   10.3590 nu        1 4FR     -0.172000
     31 N14         5.0790    4.6570    9.0840 n2        1 4FR     -0.282000
     32 N16         5.0810    3.3810    4.7770 n2        1 4FR     -0.093000
     33 N15         4.0430    2.8670    5.5460 n3        1 4FR     -0.145000
     34 C18         3.2120    1.8710    4.9950 c2        1 4FR      0.048000
     35 C19         2.6290    0.8790    5.7660 c2        1 4FR     -0.106000
     36 Cl          1.9140   -1.6860    5.8200 cl        1 4FR      0.038000
     37 C21         1.4400    0.0040    3.7870 c2        1 4FR      0.068000
     38 C33         0.6880   -0.1460    1.5280 c2        1 4FR     -0.132000
     39 C34         0.4800   -0.8500    2.8820 c3        1 4FR      0.257000
     40 O35        -0.7970   -0.5750    3.4520 oh        1 4FR     -0.319000
     41 N36         0.7250   -2.2550    2.8250 n8        1 4FR     -0.394000
     42 C29         1.9260    1.7220    0.4640 c3        1 4FR     -0.199000
     43 C32         0.0720   -0.4960    0.2840 c2        1 4FR     -0.026000
     44 H31        -0.0700   -0.0040   -1.8030 ha        1 4FR      0.180000
     45 H30         3.0430    1.7010    0.2750 hc        1 4FR      0.182000
     46 H26         7.4120    5.4250    5.8600 hc        1 4FR      0.125333
     47 H26A        7.2010    4.9420    4.1090 hc        1 4FR      0.125333
     48 H26B        8.1420    3.8760    5.2450 hc        1 4FR      0.125333
     49 H23         3.3860    2.7110    2.9400 ha        1 4FR      0.215000
     50 H13         6.5040    2.7290    7.3660 hc        1 4FR      0.184000
     51 H10         2.4980    2.6430    8.0080 ha        1 4FR      0.147000
     52 HN42        2.6340    5.4280   16.2900 hn        1 4FR      0.236000
     53 H43         8.3280   10.2680   16.9850 h4        1 4FR      0.288000
     54 H45         6.8260    7.6980   16.9410 hc        1 4FR      0.145333
     55 H45A        7.9790   13.4400   18.8730 ha        1 4FR      0.234500
     56 H46         7.9690    8.2600   18.2500 hc        1 4FR      0.145333
     57 H46A        8.5690    7.2050   16.8900 hc        1 4FR      0.145333
     58 H48         8.0940    8.4050   13.1640 h1        1 4FR      0.134167
     59 H48A        8.9570    7.4080   14.4350 h1        1 4FR      0.134167
     60 H48B        7.1350    7.6080   14.5120 h1        1 4FR      0.134167
     61 H49         7.7150   10.7830   13.6850 h1        1 4FR      0.134167
     62 H49A        9.5070   10.4050   13.7640 h1        1 4FR      0.134167
     63 H44         9.7540   13.0160   19.0110 ha        1 4FR      0.234500
     64 H44A        8.7160   11.3830   15.1000 h1        1 4FR      0.134167
     65 H55         4.4650    7.2760   12.9390 ha        1 4FR      0.152000
     66 H56         4.0380    6.2220   10.7480 ha        1 4FR      0.179000
     67 H54         2.7400   -0.2330   14.9540 ha        1 4FR      0.062000
     68 H54A        3.0350    1.7830   13.6340 ho        1 4FR      0.300000
     69 H54B        3.0410    1.1740   16.1010 ha        1 4FR      0.062000
     70 H51         3.5780    3.5440   14.9590 ha        1 4FR      0.149000
     71 HN8         2.6680    2.8470   10.4180 hn        1 4FR      0.262000
     72 H19         2.8860    0.7600    6.8350 ha        1 4FR      0.192000
     73 H21         0.5960    0.2340    5.6660 h1        1 4FR      0.247000
     74 HN36       -1.4740   -0.8820    2.8290 ho        1 4FR      0.257000
     75 HN3A        1.5830   -2.5120    2.3940 hn        1 4FR      0.211500
     76 H29         1.6650    2.8090    0.6490 hc        1 4FR      0.182000
     77 H32        -0.6220   -1.3520    0.2630 ha        1 4FR      0.164000
     78 H422        3.5920    6.4360   17.2720 hn        1 4FR      0.236000
     79 H363        0.5200   -2.7450    3.6680 hn        1 4FR      0.211500
     80 C26         7.2610    4.5620    5.1580 c3        1 4FR     -0.182000
     81 C41         4.3210    6.1690   15.3750 c2        1 4FR      0.366000
@<TRIPOS>BOND
     1    1    2 1   
     2    1   43 1   
     3    1   44 1   
     4    2   42 1   
     5    3    5 1   
     6    3   38 1   
     7    3   42 1   
     8    4    5 1   
     9    4   34 1   
    10    4   49 1   
    11    5   37 1   
    12    6    8 1   
    13    6   32 1   
    14    6   80 1   
    15    7   35 1   
    16    7   36 1   
    17    7   37 1   
    18    7   73 1   
    19    8    9 1   
    20    8   10 1   
    21    8   50 1   
    22    9   31 1   
    23   10   11 1   
    24   10   33 1   
    25   11   12 1   
    26   11   51 1   
    27   12   30 1   
    28   12   31 1   
    29   13   81 1   
    30   14   52 1   
    31   14   78 1   
    32   14   81 1   
    33   15   21 1   
    34   15   55 1   
    35   15   63 1   
    36   16   17 1   
    37   16   54 1   
    38   16   56 1   
    39   16   57 1   
    40   17   18 1   
    41   17   53 1   
    42   18   19 1   
    43   18   20 1   
    44   19   58 1   
    45   19   59 1   
    46   19   60 1   
    47   20   61 1   
    48   20   62 1   
    49   20   64 1   
    50   22   23 1   
    51   22   29 1   
    52   22   81 1   
    53   23   24 1   
    54   23   65 1   
    55   24   25 1   
    56   24   66 1   
    57   25   26 1   
    58   25   30 1   
    59   26   27 1   
    60   26   29 1   
    61   27   68 1   
    62   28   67 1   
    63   28   69 1   
    64   29   70 1   
    65   30   71 1   
    66   32   33 1   
    67   33   34 1   
    68   34   35 1   
    69   35   72 1   
    70   37   39 1   
    71   38   39 1   
    72   38   43 1   
    73   39   40 1   
    74   39   41 1   
    75   40   74 1   
    76   41   75 1   
    77   41   79 1   
    78   42   45 1   
    79   42   76 1   
    80   43   77 1   
    81   46   80 1   
    82   47   80 1   
    83   48   80 1   
@<TRIPOS>SUBSTRUCTURE
     1 4FR         1 TEMP              0 ****  ****    0 ROOT
