@<TRIPOS>MOLECULE
4FR
   79    70     1     0     0
SMALL
bcc


@<TRIPOS>ATOM
      1 C31        -0.5180   -7.1930   -8.7240 c1        1 4FR     -0.128000
      2 C30        -0.7160   -5.8870   -9.1430 c1        1 4FR     -0.117000
      3 C28        -1.2550   -5.2360   -6.9100 c1        1 4FR     -0.022000
      4 C26         1.9760    1.4860   -5.9410 c3        1 4FR     -0.153000
      5 C23        -0.8230   -3.0660   -5.6870 c1        1 4FR     -0.119000
      6 C22        -1.7030   -4.0600   -6.1900 c1        1 4FR     -0.033000
      7 C17         1.0940    0.5940   -5.0770 c2        1 4FR     -0.051000
      8 C20        -3.5870   -2.6530   -5.6670 c1        1 4FR     -0.049000
      9 C12         0.8070    0.5680   -3.7080 c1        1 4FR     -0.228000
     10 C13         1.3320    1.3060   -2.6150 c1        1 4FR      0.041000
     11 C11        -0.1650   -0.3560   -3.4990 c1        1 4FR      0.073000
     12 C10        -0.6430   -0.5770   -2.2140 c1        1 4FR     -0.254000
     13 C9         -0.1170    0.1580   -1.1350 c1        1 4FR      0.145000
     14 O40         2.2620    3.9770    4.3280 o         1 4FR     -0.373000
     15 C41         1.2010    3.3670    4.4890 c1        1 4FR      0.350000
     16 N42         0.4550    3.5300    5.7090 n2        1 4FR     -0.377000
     17 C43         0.9440    4.4090    6.7540 c3        1 4FR      0.022000
     18 C45        -0.0320    5.5420    6.9260 c3        1 4FR     -0.171500
     19 C46         0.2920    6.4030    8.1160 c3        1 4FR     -0.066500
     20 N47         0.4650    5.6200    9.3370 n3        1 4FR     -0.260000
     21 C48         0.9040    6.4820   10.4080 c3        1 4FR     -0.118000
     22 C49         1.4320    4.4950    9.1690 c3        1 4FR     -0.066500
     23 C44         1.1120    3.6320    7.9830 c3        1 4FR     -0.171500
     24 C50         0.7090    2.3670    3.4080 c2        1 4FR     -0.101000
     25 C55        -0.2480    2.7910    2.4270 c2        1 4FR     -0.124000
     26 C56        -0.5840    1.9400    1.3620 c1        1 4FR     -0.096000
     27 C57         0.0010    0.7080    1.2590 c1        1 4FR      0.047000
     28 C52         0.9530    0.2840    2.2340 c1        1 4FR      0.036000
     29 O53         1.5050   -1.0520    2.1650 o         1 4FR     -0.231000
     30 C54         1.3790   -1.8140    3.4120 c3        1 4FR     -0.072000
     31 C51         1.2920    1.1340    3.3040 c2        1 4FR     -0.140000
     32 N8         -0.3890   -0.1730    0.2280 n2        1 4FR     -0.222000
     33 N14         0.8640    1.0890   -1.3540 n2        1 4FR     -0.200000
     34 N16         0.2930   -0.3160   -5.6960 n2        1 4FR     -0.043000
     35 N15        -0.4950   -0.9150   -4.7350 n2        1 4FR     -0.124000
     36 C18        -1.3350   -1.8800   -5.1810 c1        1 4FR      0.092000
     37 C19        -2.7130   -1.6650   -5.1670 c1        1 4FR     -0.148000
     38 CL         -5.2620   -2.5440   -5.1520 cl        1 4FR      0.002000
     39 C21        -3.0760   -3.8430   -6.1740 c2        1 4FR     -0.118000
     40 C33        -1.0560   -6.5550   -6.4860 c1        1 4FR     -0.102000
     41 C34        -1.3400   -6.9390   -5.0440 c1        1 4FR      0.339000
     42 O35        -1.7280   -6.1170   -4.2760 o         1 4FR     -0.367000
     43 N36        -1.0790   -8.3070   -4.5790 n3        1 4FR     -0.424000
     44 C29        -1.0850   -4.9100   -8.2290 c1        1 4FR     -0.117000
     45 C32        -0.6880   -7.5250   -7.4010 c2        1 4FR     -0.085000
     46 H31        -0.2610   -7.8690   -9.3600 ha        1 4FR      0.141000
     47 H30        -0.5950   -5.6550  -10.0840 ha        1 4FR      0.142000
     48 H26         1.6830    2.3660   -5.8810 hc        1 4FR      0.096667
     49 H26A        2.8920    1.4290   -5.6340 hc        1 4FR      0.096667
     50 H26B        1.9280    1.2010   -6.8400 hc        1 4FR      0.096667
     51 H23         0.1420   -3.1550   -5.8270 ha        1 4FR      0.164000
     52 H13         2.0380    1.9780   -2.7680 ha        1 4FR      0.166000
     53 H10        -1.2910   -1.2530   -2.0590 ha        1 4FR      0.156000
     54 HN42       -0.2900    3.0880    5.8250 hn        1 4FR      0.225000
     55 H43         1.8300    4.7790    6.4820 h1        1 4FR      0.130000
     56 H45        -0.0200    6.0930    6.1230 hc        1 4FR      0.091500
     57 H45A       -0.9720    5.1450    7.0510 hc        1 4FR      0.091500
     58 H46         1.1530    6.9150    7.9250 h1        1 4FR      0.073000
     59 H46A       -0.4250    7.0370    8.2510 h1        1 4FR      0.073000
     60 H48         1.0130    5.9440   11.2460 h1        1 4FR      0.071333
     61 H48A        0.2240    7.2000   10.5590 h1        1 4FR      0.071333
     62 H48B        1.7650    6.8920   10.1690 h1        1 4FR      0.071333
     63 H49         1.4150    3.9430    9.9700 h1        1 4FR      0.073000
     64 H49A        2.3390    4.8680    9.0560 h1        1 4FR      0.073000
     65 H44         0.3100    3.1620    8.1540 hc        1 4FR      0.091500
     66 H44A        1.8450    2.9790    7.8560 hc        1 4FR      0.091500
     67 H55        -0.6670    3.6780    2.4980 ha        1 4FR      0.138000
     68 H56        -1.2550    2.2370    0.6740 ha        1 4FR      0.159000
     69 H54         1.5590   -2.8100    3.2250 h1        1 4FR      0.089000
     70 H54A        0.5040   -1.7150    3.7590 h1        1 4FR      0.089000
     71 H54B        2.0360   -1.4770    4.0720 h1        1 4FR      0.089000
     72 H51         1.9640    0.8360    3.9890 ha        1 4FR      0.163000
     73 HN8        -0.9120   -0.8820    0.4210 hn        1 4FR      0.229000
     74 H19        -3.0720   -0.8310   -4.8100 ha        1 4FR      0.164000
     75 H21        -3.6930   -4.5380   -6.5260 ha        1 4FR      0.170000
     76 HN36       -1.4290   -8.5880   -3.8060 hn        1 4FR      0.227000
     77 HN3A       -0.6170   -8.8860   -5.1040 hn        1 4FR      0.227000
     78 H29        -1.2210   -3.9970   -8.5250 ha        1 4FR      0.142000
     79 H32        -0.5520   -8.4110   -7.1190 ha        1 4FR      0.154000
@<TRIPOS>BOND
     1    1   45 1   
     2    1   46 1   
     3    2   44 1   
     4    2   47 1   
     5    3   40 1   
     6    4    7 1   
     7    4   48 1   
     8    4   49 1   
     9    4   50 1   
    10    5   36 1   
    11    5   51 1   
    12    6   39 1   
    13    7    9 1   
    14    7   34 1   
    15    8   37 1   
    16    8   39 1   
    17    9   11 1   
    18   10   33 1   
    19   10   52 1   
    20   12   13 1   
    21   12   53 1   
    22   13   33 1   
    23   14   15 1   
    24   15   24 1   
    25   16   17 1   
    26   16   54 1   
    27   17   18 1   
    28   17   23 1   
    29   17   55 1   
    30   18   19 1   
    31   18   56 1   
    32   18   57 1   
    33   19   20 1   
    34   19   58 1   
    35   19   59 1   
    36   20   21 1   
    37   20   22 1   
    38   21   60 1   
    39   21   61 1   
    40   21   62 1   
    41   22   23 1   
    42   22   63 1   
    43   22   64 1   
    44   23   65 1   
    45   23   66 1   
    46   24   25 1   
    47   24   31 1   
    48   25   26 1   
    49   25   67 1   
    50   26   68 1   
    51   27   28 1   
    52   27   32 1   
    53   28   31 1   
    54   29   30 1   
    55   30   69 1   
    56   30   70 1   
    57   30   71 1   
    58   31   72 1   
    59   32   73 1   
    60   34   35 1   
    61   35   36 1   
    62   37   74 1   
    63   39   75 1   
    64   40   45 1   
    65   41   42 1   
    66   41   43 1   
    67   43   76 1   
    68   43   77 1   
    69   44   78 1   
    70   45   79 1   
@<TRIPOS>SUBSTRUCTURE
     1 4FR         1 TEMP              0 ****  ****    0 ROOT
