@<TRIPOS>MOLECULE
4FR
   82    86     1     0     0
SMALL
bcc


@<TRIPOS>ATOM
      1 C31       -35.0510 -169.6290 -112.5750 c3        1 4FR     -0.355000
      2 C30       -35.8490 -168.3860 -112.2280 c1        1 4FR      0.344000
      3 C28       -37.1700 -169.8910 -113.8060 c3        1 4FR      0.024000
      4 C23       -37.0490 -169.7740 -116.3150 c2        1 4FR     -0.030000
      5 C22       -37.5230 -170.3230 -115.1840 c2        1 4FR     -0.172000
      6 C17       -36.6580 -167.5740 -119.8370 c2        1 4FR     -0.002000
      7 C20       -38.7220 -172.1110 -116.5400 c3        1 4FR     -0.044000
      8 C12       -36.4980 -168.6700 -120.8750 c3        1 4FR     -0.197000
      9 C13       -37.1070 -168.5840 -122.2480 c1        1 4FR     -0.013000
     10 C11       -36.9840 -169.8800 -120.0800 c2        1 4FR      0.124000
     11 C10       -37.3330 -171.0330 -120.7490 c2        1 4FR     -0.370000
     12 C9        -37.5380 -170.8970 -122.1800 c2        1 4FR      0.276000
     13 O40       -38.5990 -172.5430 -129.2630 o         1 4FR     -0.308000
     14 N42       -38.5810 -170.2490 -129.1740 n         1 4FR     -0.398000
     15 C43       143.5630  581.2470  435.9100 c1        1 4FR     -0.226000
     16 C45       145.1910  582.8310  438.7130 c3        1 4FR     -0.271000
     17 C46       144.4830  584.0680  439.1060 c2        1 4FR      0.112000
     18 N47       143.1790  584.2210  439.1050 n3        1 4FR     -0.071000
     19 C48       142.5500  585.4690  439.5120 c3        1 4FR     -0.153500
     20 C49       142.2790  583.1500  438.7020 c3        1 4FR     -0.153500
     21 C44       143.7240  582.3090  435.3840 c1        1 4FR     -0.226000
     22 C50       -38.3780 -171.5860 -127.1100 c2        1 4FR      0.058000
     23 C55       -37.3650 -172.5520 -126.6490 c3        1 4FR     -0.187000
     24 C56       -37.2120 -172.6460 -125.1920 c2        1 4FR     -0.016000
     25 C57       -38.0210 -171.9860 -124.3020 c2        1 4FR     -0.016000
     26 C52       -39.1060 -171.1570 -124.8360 c2        1 4FR      0.344000
     27 O53       -40.0020 -170.7120 -123.9680 os        1 4FR     -0.108000
     28 C54       -41.0370 -169.8010 -124.4100 c3        1 4FR     -0.092000
     29 C51       -39.1920 -170.9230 -126.2480 c2        1 4FR     -0.257000
     30 N8        -37.7850 -172.0410 -122.9120 n3        1 4FR     -0.259000
     31 N14       -37.5550 -169.6670 -122.8300 n2        1 4FR     -0.328000
     32 N16       -36.9640 -168.0800 -118.6480 n2        1 4FR     -0.050000
     33 N15       -37.1420 -169.4510 -118.7620 n3        1 4FR     -0.150000
     34 C18       -37.5330 -170.2130 -117.6320 c2        1 4FR      0.093000
     35 C19       -38.3530 -171.2910 -117.7200 c2        1 4FR     -0.190000
     36 CL        -40.3690 -172.7060 -116.7270 cl        1 4FR     -0.041000
     37 C21       -38.5930 -171.3680 -115.2030 c3        1 4FR      0.086000
     38 C33       -36.7960 -171.1180 -112.9920 c2        1 4FR     -0.294000
     39 C34       -37.5980 -172.2970 -113.1610 c2        1 4FR      0.389000
     40 O35       -38.4090 -172.4540 -114.2300 os        1 4FR     -0.199000
     41 N36       -37.6130 -173.3490 -112.3400 n3        1 4FR     -0.269000
     42 C29       -35.9870 -168.9540 -113.6020 c3        1 4FR     -0.311000
     43 C32       -35.6370 -170.9440 -112.2900 c2        1 4FR      0.102000
     44 H31       -33.9470 -169.5620 -112.5890 hc        1 4FR      0.206000
     45 H30       -35.6160 -168.3980 -114.4780 hc        1 4FR      0.190000
     46 H26       -35.3350 -165.9570 -120.2420 hc        1 4FR      0.125000
     47 H26A      -36.8760 -165.4660 -119.4090 hc        1 4FR      0.125000
     48 H26B      -36.8990 -165.9480 -121.1720 hc        1 4FR      0.125000
     49 H23       -36.2990 -168.9640 -116.2830 ha        1 4FR      0.179000
     50 H13       -35.3870 -168.7700 -121.0960 hc        1 4FR      0.201000
     51 H10       -37.5360 -171.9830 -120.2430 ha        1 4FR      0.157000
     52 HN42      -38.4480 -169.4260 -128.6430 hn        1 4FR      0.253500
     53 H43       -38.6530 -170.1770 -130.1640 hn        1 4FR      0.253500
     54 H45       146.2980  583.0030  438.7270 hc        1 4FR      0.155333
     55 H45A      143.4200  580.2850  436.3400 ha        1 4FR      0.231000
     56 H46       144.9500  581.9960  439.4250 hc        1 4FR      0.155333
     57 H46A      144.8920  582.4950  437.6790 hc        1 4FR      0.155333
     58 H48       141.8390  585.2580  440.3590 h1        1 4FR      0.143833
     59 H48A      145.1110  584.9330  439.4310 h4        1 4FR      0.199000
     60 H48B      143.3180  586.2160  439.8490 h1        1 4FR      0.143833
     61 H49       141.9770  585.8900  438.6410 h1        1 4FR      0.143833
     62 H49A      141.2320  583.5470  438.6080 h1        1 4FR      0.143833
     63 H44       142.6060  582.7260  437.7090 h1        1 4FR      0.143833
     64 H44A      142.3000  582.3350  439.4780 h1        1 4FR      0.143833
     65 H55       -36.3570 -172.2950 -127.1090 hc        1 4FR      0.213000
     66 H56       -37.6200 -173.5730 -127.0920 hc        1 4FR      0.213000
     67 H54       -40.5710 -168.8690 -124.8090 h1        1 4FR      0.134000
     68 H54A      -41.5900 -169.6000 -123.4540 h1        1 4FR      0.134000
     69 H54B      -41.6900 -170.3080 -125.1600 h1        1 4FR      0.134000
     70 H51       -39.9520 -170.2110 -126.6200 ha        1 4FR      0.191000
     71 HN8       -37.7480 -172.9350 -122.4740 hn        1 4FR      0.266000
     72 H19       -38.7800 -171.6350 -118.6770 ha        1 4FR      0.174000
     73 H21       -38.0750 -173.0350 -116.5180 h1        1 4FR      0.149000
     74 HN36      -38.1910 -174.1450 -112.5330 hn        1 4FR      0.287500
     75 HN3A      -39.5800 -170.9030 -114.8920 h1        1 4FR      0.165000
     76 H29       -38.0880 -169.4010 -113.3580 hc        1 4FR      0.151000
     77 H32       -35.1360 -171.6610 -111.6280 ha        1 4FR      0.180000
     78 H422      143.8660  583.2330  434.8770 ha        1 4FR      0.231000
     79 H82       -36.3830 -173.2900 -124.8380 ha        1 4FR      0.185000
     80 H363      -37.0650 -173.3480 -111.5050 hn        1 4FR      0.287500
     81 C26       -36.4350 -166.1550 -120.1720 c3        1 4FR     -0.180000
     82 C41       -38.5240 -171.4860 -128.6080 c2        1 4FR      0.312000
@<TRIPOS>BOND
     1    1    2 1   
     2    1   42 1   
     3    1   43 1   
     4    1   44 1   
     5    2   42 1   
     6    3    5 1   
     7    3   38 1   
     8    3   42 1   
     9    3   76 1   
    10    4    5 1   
    11    4   34 1   
    12    4   49 1   
    13    5   37 1   
    14    6    8 1   
    15    6   32 1   
    16    6   81 1   
    17    7   35 1   
    18    7   36 1   
    19    7   37 1   
    20    7   73 1   
    21    8    9 1   
    22    8   10 1   
    23    8   50 1   
    24    9   31 1   
    25   10   11 1   
    26   10   33 1   
    27   11   12 1   
    28   11   51 1   
    29   12   30 1   
    30   12   31 1   
    31   13   82 1   
    32   14   52 1   
    33   14   53 1   
    34   14   82 1   
    35   15   21 1   
    36   15   55 1   
    37   16   17 1   
    38   16   54 1   
    39   16   56 1   
    40   16   57 1   
    41   17   18 1   
    42   17   59 1   
    43   18   19 1   
    44   18   20 1   
    45   19   58 1   
    46   19   60 1   
    47   19   61 1   
    48   20   62 1   
    49   20   63 1   
    50   20   64 1   
    51   21   78 1   
    52   22   23 1   
    53   22   29 1   
    54   22   82 1   
    55   23   24 1   
    56   23   65 1   
    57   23   66 1   
    58   24   25 1   
    59   24   79 1   
    60   25   26 1   
    61   25   30 1   
    62   26   27 1   
    63   26   29 1   
    64   27   28 1   
    65   28   67 1   
    66   28   68 1   
    67   28   69 1   
    68   29   70 1   
    69   30   71 1   
    70   32   33 1   
    71   33   34 1   
    72   34   35 1   
    73   35   72 1   
    74   37   40 1   
    75   37   75 1   
    76   38   39 1   
    77   38   43 1   
    78   39   40 1   
    79   39   41 1   
    80   41   74 1   
    81   41   80 1   
    82   42   45 1   
    83   43   77 1   
    84   46   81 1   
    85   47   81 1   
    86   48   81 1   
@<TRIPOS>SUBSTRUCTURE
     1 4FR         1 TEMP              0 ****  ****    0 ROOT
