@<TRIPOS>MOLECULE
4FR
   81    83     1     0     0
SMALL
bcc


@<TRIPOS>ATOM
      1 C31        -1.9150    0.1310    0.4210 c2        1 4FR     -0.457000
      2 C30        -1.2300    0.9060   -0.4020 c1        1 4FR      0.239000
      3 C28         0.7490    0.6440    2.0600 c2        1 4FR     -0.057000
      4 C23         2.5450    1.6510    3.6160 c2        1 4FR      0.152000
      5 C22         1.5200    0.7560    3.3160 c2        1 4FR     -0.111000
      6 C17         6.1430    3.4730    4.7950 c2        1 4FR      0.029000
      7 C20         1.5800   -0.1980    5.6210 c3        1 4FR     -0.095000
      8 C12         5.9710    3.4950    6.2490 c2        1 4FR     -0.253000
      9 C13         6.6970    3.9610    7.3520 c2        1 4FR      0.065000
     10 C11         4.6860    2.8860    6.4890 c2        1 4FR      0.078000
     11 C10         4.1750    2.8000    7.7760 c2        1 4FR     -0.287000
     12 C9          4.9930    3.3400    8.8310 c2        1 4FR      0.211000
     13 O40         6.9980    6.7890   14.9770 o         1 4FR     -0.436000
     14 N42         8.3440    4.9620   15.1160 n         1 4FR     -0.411000
     15 C43         5.1760    9.2550   17.9680 c2        1 4FR     -0.092000
     16 C45         7.7650    9.9740   15.4820 c3        1 4FR     -0.258000
     17 C46         6.4830   10.3500   16.1540 c2        1 4FR      0.214000
     18 N47         6.0540   11.6080   16.1630 n3        1 4FR     -0.109000
     19 C48         6.8400   12.6690   15.5510 c3        1 4FR     -0.139500
     20 C49         4.7850   12.0160   16.7380 c3        1 4FR     -0.139500
     21 C44         5.7630    9.2350   16.7680 c2        1 4FR     -0.242000
     22 C50         6.5520    5.0040   13.4370 c2        1 4FR     -0.096000
     23 C55         6.2550    5.8670   12.2650 c3        1 4FR     -0.172000
     24 C56         5.5090    5.2700   11.1710 c1        1 4FR     -0.075000
     25 C57         5.1490    3.9040   11.2150 c2        1 4FR     -0.103000
     26 C52         5.4180    3.1330   12.3600 c2        1 4FR      0.170000
     27 O53         4.9830    1.8640   12.4330 oh        1 4FR     -0.309000
     28 C54         5.3900    0.4800   14.7030 c1        1 4FR     -0.039000
     29 C51         6.1340    3.7200   13.4800 c2        1 4FR     -0.179000
     30 N8          4.4610    3.3440   10.1140 nh        1 4FR     -0.209000
     31 N14         6.2490    3.8790    8.6040 n2        1 4FR     -0.183000
     32 N16         5.0730    2.9040    4.2160 n2        1 4FR     -0.101000
     33 N15         4.1540    2.5850    5.1980 na        1 4FR     -0.138000
     34 C18         3.1530    1.6330    4.9260 c2        1 4FR      0.055000
     35 C19         2.7250    0.7060    5.8600 c2        1 4FR     -0.088000
     36 CL          1.9460   -1.8180    6.1760 cl        1 4FR      0.052000
     37 C21         1.0620   -0.1690    4.2530 c2        1 4FR      0.094000
     38 C33        -0.3650   -0.2670    2.3280 c2        1 4FR     -0.188000
     39 C34        -0.1160   -0.9870    3.6740 c3        1 4FR      0.226000
     40 O35        -1.2480   -0.7600    4.5040 oh        1 4FR     -0.308000
     41 N36         0.2110   -2.3990    3.5840 n3        1 4FR     -0.366000
     42 C29         1.0770    1.2600    0.9200 c2        1 4FR     -0.150000
     43 C32        -1.5110   -0.4760    1.6560 c2        1 4FR      0.037000
     44 H31        -2.9660   -0.0830    0.1080 ha        1 4FR      0.216000
     45 H30         1.9440    1.9340    0.8460 ha        1 4FR      0.158500
     46 H26         7.1600    5.1200    3.9130 hc        1 4FR      0.112667
     47 H26A        7.4730    3.5290    3.0940 hc        1 4FR      0.112667
     48 H26B        8.2290    3.8820    4.7110 hc        1 4FR      0.112667
     49 H23         2.8940    2.3720    2.8480 ha        1 4FR      0.211000
     50 H13         7.6960    4.4210    7.2270 h4        1 4FR      0.176000
     51 H10         3.1800    2.3970    7.9930 ha        1 4FR      0.142000
     52 HN42        8.8830    5.3810   15.8340 hn        1 4FR      0.237000
     53 H43         5.8060    8.3020   16.1620 ha        1 4FR      0.215000
     54 H45         7.8210    8.8580   15.3520 hc        1 4FR      0.149000
     55 H45A        5.1510   10.1350   18.6280 ha        1 4FR      0.146000
     56 H46         8.6310   10.3020   16.1160 hc        1 4FR      0.149000
     57 H46A        7.8610   10.4520   14.4730 hc        1 4FR      0.149000
     58 H48         6.4850   13.6660   15.9280 h1        1 4FR      0.134500
     59 H48A        7.9260   12.5490   15.8140 h1        1 4FR      0.134500
     60 H48B        6.7200   12.6300   14.4340 h1        1 4FR      0.134500
     61 H49         4.9560   12.4080   17.7780 h1        1 4FR      0.134500
     62 H49A        4.3400   12.8320   16.1040 h1        1 4FR      0.134500
     63 H44         4.0670   11.1530   16.7730 h1        1 4FR      0.134500
     64 H44A        4.7010    8.3510   18.3830 ha        1 4FR      0.146000
     65 H55         7.2200    6.2600   11.8200 hc        1 4FR      0.168000
     66 H56         5.6830    6.7770   12.6190 hc        1 4FR      0.168000
     67 H54         6.0160    0.6670   15.5830 ha        1 4FR      0.067500
     68 H54A        5.1860    1.4360   13.3470 ho        1 4FR      0.303000
     69 H54B        4.8570   -0.4780   14.7230 ha        1 4FR      0.067500
     70 H51         6.3210    3.0630   14.3460 ha        1 4FR      0.144000
     71 HN8         3.8070    2.6220   10.3280 hn        1 4FR      0.235000
     72 H19         3.2230    0.6110    6.8440 ha        1 4FR      0.197000
     73 H21         0.7130    0.1600    6.2830 h1        1 4FR      0.232000
     74 HN36       -1.3630   -1.5080    5.1100 ho        1 4FR      0.239000
     75 HN3A        1.0670   -2.5510    3.0920 hn        1 4FR      0.190000
     76 H29         0.5370    1.1400   -0.0430 ha        1 4FR      0.158500
     77 H32        -2.2480   -1.1790    2.0950 ha        1 4FR      0.152000
     78 H422        8.6350    4.0900   14.7520 hn        1 4FR      0.237000
     79 H363       -0.5380   -2.9040    3.1500 hn        1 4FR      0.190000
     80 C26         7.3130    4.0230    4.0840 c3        1 4FR     -0.173000
     81 C41         7.3010    5.6460   14.5560 c2        1 4FR      0.351000
@<TRIPOS>BOND
     1    1    2 1   
     2    1   43 1   
     3    1   44 1   
     4    3    5 1   
     5    3   38 1   
     6    3   42 1   
     7    4    5 1   
     8    4   34 1   
     9    4   49 1   
    10    5   37 1   
    11    6    8 1   
    12    6   32 1   
    13    6   80 1   
    14    7   35 1   
    15    7   36 1   
    16    7   37 1   
    17    7   73 1   
    18    8    9 1   
    19    8   10 1   
    20    9   31 1   
    21    9   50 1   
    22   10   11 1   
    23   10   33 1   
    24   11   12 1   
    25   11   51 1   
    26   12   30 1   
    27   12   31 1   
    28   13   81 1   
    29   14   52 1   
    30   14   78 1   
    31   14   81 1   
    32   15   21 1   
    33   15   55 1   
    34   15   64 1   
    35   16   17 1   
    36   16   54 1   
    37   16   56 1   
    38   16   57 1   
    39   17   18 1   
    40   17   21 1   
    41   18   19 1   
    42   18   20 1   
    43   19   58 1   
    44   19   59 1   
    45   19   60 1   
    46   20   61 1   
    47   20   62 1   
    48   20   63 1   
    49   21   53 1   
    50   22   23 1   
    51   22   29 1   
    52   22   81 1   
    53   23   24 1   
    54   23   65 1   
    55   23   66 1   
    56   24   25 1   
    57   25   26 1   
    58   25   30 1   
    59   26   27 1   
    60   26   29 1   
    61   27   68 1   
    62   28   67 1   
    63   28   69 1   
    64   29   70 1   
    65   30   71 1   
    66   32   33 1   
    67   33   34 1   
    68   34   35 1   
    69   35   72 1   
    70   37   39 1   
    71   38   39 1   
    72   38   43 1   
    73   39   40 1   
    74   39   41 1   
    75   40   74 1   
    76   41   75 1   
    77   41   79 1   
    78   42   45 1   
    79   42   76 1   
    80   43   77 1   
    81   46   80 1   
    82   47   80 1   
    83   48   80 1   
@<TRIPOS>SUBSTRUCTURE
     1 4FR         1 TEMP              0 ****  ****    0 ROOT
