@<TRIPOS>MOLECULE
4FS
   19    18     1     0     0
SMALL
bcc


@<TRIPOS>ATOM
      1 C1         -0.1640    0.1560   -0.3220 c2        1 4FS     -0.127000
      2 C5          2.5380   -0.0050    5.4250 c2        1 4FS     -0.564000
      3 C3         -1.2390    0.0410    3.1200 c1        1 4FS     -0.109000
      4 C6          3.8070    0.2350    5.2500 c1        1 4FS      0.177000
      5 C           1.2660    0.1750   -0.2470 c2        1 4FS      0.024000
      6 C8          1.8340    0.1560    1.0460 c2        1 4FS     -0.168000
      7 C7          0.9990    0.1080    2.1570 c2        1 4FS     -0.118000
      8 C2         -0.4030    0.0870    1.9770 c2        1 4FS      0.032000
      9 N1         -0.9720    0.1110    0.7380 n2        1 4FS     -0.085000
     10 C4         -1.9410    0.0020    4.0880 c1        1 4FS     -0.192000
     11 H1         -0.6750    0.1690   -1.3030 h4        1 4FS      0.161000
     12 H2          2.0990   -1.0170    5.4050 ha        1 4FS      0.195000
     13 H3         -2.5620   -0.0340    4.9460 ha        1 4FS      0.225000
     14 H4          1.4250    0.0870    3.1730 ha        1 4FS      0.149000
     15 H5          2.9820    0.4440   -1.2850 hn        1 4FS      0.195000
     16 H6          1.6010    0.4560   -2.2230 hn        1 4FS      0.195000
     17 H7          2.9260    0.1720    1.1810 ha        1 4FS      0.143000
     18 H8          1.7880    0.7790    5.6190 ha        1 4FS      0.195000
     19 N           2.0460    0.1280   -1.3970 nv        1 4FS     -0.326000
@<TRIPOS>BOND
     1    1    5 1   
     2    1    9 1   
     3    1   11 1   
     4    2    4 1   
     5    2   12 1   
     6    2   18 1   
     7    3    8 1   
     8    3   10 1   
     9    5    6 1   
    10    5   19 1   
    11    6    7 1   
    12    6   17 1   
    13    7    8 1   
    14    7   14 1   
    15    8    9 1   
    16   10   13 1   
    17   15   19 1   
    18   16   19 1   
@<TRIPOS>SUBSTRUCTURE
     1 4FS         1 TEMP              0 ****  ****    0 ROOT
