@<TRIPOS>MOLECULE
4FS
   19    20     1     0     0
SMALL
bcc


@<TRIPOS>ATOM
      1 C1         -0.0120   -0.0890   -0.0150 ca        1 4FS      0.382200
      2 C5          1.2100    0.0980    4.8030 ca        1 4FS     -0.117000
      3 C3         -0.8380   -0.0740    3.5180 ca        1 4FS     -0.150300
      4 C6          1.9640    0.1270    3.6550 ca        1 4FS     -0.126000
      5 C           1.4380    0.0150   -0.0450 ca        1 4FS      0.020300
      6 C8          2.0920    0.0790    1.1790 ca        1 4FS     -0.172000
      7 C7          1.3390    0.0550    2.3830 ca        1 4FS     -0.103300
      8 C2         -0.0830   -0.0460    2.3030 ca        1 4FS      0.357600
      9 N1         -0.7320   -0.1180    1.0830 nb        1 4FS     -0.633000
     10 C4         -0.1990   -0.0030    4.7310 ca        1 4FS     -0.140000
     11 H1         -0.5740   -0.1420   -0.9660 h4        1 4FS      0.021100
     12 H2          1.6920    0.1540    5.7900 ha        1 4FS      0.133000
     13 H3         -1.9350   -0.1520    3.4620 ha        1 4FS      0.148000
     14 H4          3.0600    0.2060    3.7010 ha        1 4FS      0.133000
     15 H5          1.6280   -0.2860   -2.0350 hn        1 4FS      0.392800
     16 H6          3.0720   -0.0900   -1.2310 hn        1 4FS      0.392800
     17 H7          3.1880    0.1580    1.2430 ha        1 4FS      0.138000
     18 H8         -0.7790   -0.0230    5.6650 ha        1 4FS      0.134000
     19 N           2.1030    0.1330   -1.2660 nh        1 4FS     -0.811200
@<TRIPOS>BOND
     1    1    5 ar  
     2    1    9 ar  
     3    1   11 1   
     4    2    4 ar  
     5    2   10 ar  
     6    2   12 1   
     7    3    8 ar  
     8    3   10 ar  
     9    3   13 1   
    10    4    7 ar  
    11    4   14 1   
    12    5    6 ar  
    13    5   19 1   
    14    6    7 ar  
    15    6   17 1   
    16    7    8 ar  
    17    8    9 ar  
    18   10   18 1   
    19   15   19 1   
    20   16   19 1   
@<TRIPOS>SUBSTRUCTURE
     1 4FS         1 TEMP              0 ****  ****    0 ROOT
