@<TRIPOS>MOLECULE
4FU
   22    22     1     0     0
SMALL
bcc


@<TRIPOS>ATOM
      1 C7          0.0560    0.2180   -0.3450 c         1 4FU      0.925100
      2 O7          1.0420    0.9940   -0.5280 o         1 4FU     -0.876300
      3 C8         -0.6310    0.0840    1.0340 c3        1 4FU     -0.137700
      4 C9         -1.4760    1.3450    1.2390 c3        1 4FU     -0.059400
      5 C11        -0.5990    2.5570    1.4920 c3        1 4FU     -0.066900
      6 C12         0.3390    2.3470    2.6630 c3        1 4FU     -0.066900
      7 C13         1.1430    1.0700    2.4880 c3        1 4FU     -0.059400
      8 C14         0.2090   -0.1090    2.2930 c3        1 4FU     -0.137700
      9 C15         0.9080   -1.4690    2.4580 c         1 4FU      0.925100
     10 OAB         0.1910   -2.5170    2.4400 o         1 4FU     -0.876300
     11 O1         -0.4850   -0.4000   -1.3150 o         1 4FU     -0.876300
     12 H8         -0.5270   -0.0980    3.1580 hc        1 4FU      0.022200
     13 H9         -1.3140   -0.8080    0.9570 hc        1 4FU      0.022200
     14 HAI        -2.1020    1.5240    0.3270 hc        1 4FU      0.028450
     15 H112       -2.1740    1.1990    2.1060 hc        1 4FU      0.028450
     16 H111       -1.2380    3.4620    1.6730 hc        1 4FU      0.005950
     17 HAG         0.0200    2.7330    0.5680 hc        1 4FU      0.005950
     18 H12        -0.2520    2.2960    3.6160 hc        1 4FU      0.005950
     19 HAL         1.0300    3.2260    2.7520 hc        1 4FU      0.005950
     20 HAK         1.7930    0.8980    3.3840 hc        1 4FU      0.028450
     21 H14         1.8030    1.1510    1.5820 hc        1 4FU      0.028450
     22 O2          2.1440   -1.5130    2.7380 o         1 4FU     -0.876300
@<TRIPOS>BOND
     1    1    2 1   
     2    1    3 1   
     3    1   11 1   
     4    3    4 1   
     5    3    8 1   
     6    3   13 1   
     7    4    5 1   
     8    4   14 1   
     9    4   15 1   
    10    5    6 1   
    11    5   16 1   
    12    5   17 1   
    13    6    7 1   
    14    6   18 1   
    15    6   19 1   
    16    7    8 1   
    17    7   20 1   
    18    7   21 1   
    19    8    9 1   
    20    8   12 1   
    21    9   10 1   
    22    9   22 1   
@<TRIPOS>SUBSTRUCTURE
     1 4FU         1 TEMP              0 ****  ****    0 ROOT
