@<TRIPOS>MOLECULE
4FW
   26    27     1     0     0
SMALL
bcc


@<TRIPOS>ATOM
      1 N          -1.5410    4.3240    5.6730 n3        1 4FW     -0.888800
      2 CA         -1.2060    2.9610    5.2680 c3        1 4FW      0.026500
      3 CB         -1.7750    1.9270    6.2550 c3        1 4FW      0.000800
      4 CG         -0.9750    0.6950    6.3140 cc        1 4FW     -0.116400
      5 CD2        -0.7830   -0.1640    7.4650 ca        1 4FW     -0.114800
      6 CE2         0.0580   -1.2630    7.0280 ca        1 4FW     -0.043200
      7 CE3        -1.2070   -0.1480    8.8060 ca        1 4FW      0.168900
      8 CD1        -0.2710    0.1150    5.2560 cd        1 4FW     -0.090100
      9 NE1         0.3580   -1.0590    5.6830 na        1 4FW     -0.198400
     10 CZ2         0.4440   -2.2900    7.9030 ca        1 4FW     -0.169000
     11 CZ3        -0.8140   -1.1810    9.6690 ca        1 4FW     -0.219000
     12 F          -1.9910    0.8500    9.2800 f         1 4FW     -0.143900
     13 CH2        -0.0030   -2.2280    9.2130 ca        1 4FW     -0.113000
     14 C          -1.7030    2.6330    3.8230 c         1 4FW      0.883600
     15 O          -2.8420    3.0550    3.4800 o         1 4FW     -0.845300
     16 OXT        -0.9250    1.9900    3.0580 o         1 4FW     -0.845300
     17 H          -2.5440    4.4070    5.6840 hn        1 4FW      0.331300
     18 H2         -1.2110    4.9430    4.9540 hn        1 4FW      0.331300
     19 HA         -0.0810    2.8840    5.2730 h1        1 4FW      0.046700
     20 HB2        -1.8380    2.3600    7.2910 hc        1 4FW      0.050700
     21 HB3        -2.8240    1.6740    5.9340 hc        1 4FW      0.050700
     22 HD1        -0.1900    0.4890    4.2180 h4        1 4FW      0.247000
     23 HE1         0.8860   -1.6670    5.1200 hn        1 4FW      0.288700
     24 HZ2         1.0790   -3.1150    7.5590 ha        1 4FW      0.120000
     25 HZ3        -1.1490   -1.1630   10.7150 ha        1 4FW      0.128000
     26 HH2         0.2830   -3.0200    9.9210 ha        1 4FW      0.115000
@<TRIPOS>BOND
     1    1    2 1   
     2    1   17 1   
     3    1   18 1   
     4    2    3 1   
     5    2   14 1   
     6    2   19 1   
     7    3    4 1   
     8    3   20 1   
     9    3   21 1   
    10    4    5 1   
    11    4    8 2   
    12    5    6 ar  
    13    5    7 ar  
    14    6    9 1   
    15    6   10 ar  
    16    7   11 ar  
    17    7   12 1   
    18    8    9 1   
    19    8   22 1   
    20    9   23 1   
    21   10   13 ar  
    22   10   24 1   
    23   11   13 ar  
    24   11   25 1   
    25   13   26 1   
    26   14   15 1   
    27   14   16 1   
@<TRIPOS>SUBSTRUCTURE
     1 4FW         1 TEMP              0 ****  ****    0 ROOT
