@<TRIPOS>MOLECULE
4FY
   36    38     1     0     0
SMALL
bcc


@<TRIPOS>ATOM
      1 C13         0.6200    0.9340    0.4290 ca        1 4FY     -0.123000
      2 C14         1.9420    1.1340    0.8190 ca        1 4FY     -0.135000
      3 C2         -5.6760   -2.4360   -2.2500 c3        1 4FY      0.094400
      4 C15         2.3480    0.8350    2.1200 ca        1 4FY     -0.149000
      5 C16         1.4200    0.3410    3.0340 ca        1 4FY     -0.135000
      6 C17         0.0930    0.1410    2.6550 ca        1 4FY     -0.123000
      7 C12        -0.3180    0.4320    1.3460 ca        1 4FY     -0.074500
      8 C9         -1.6990    0.2250    0.9250 cc        1 4FY      0.371000
      9 N10        -2.3000    0.7880   -0.1650 nd        1 4FY     -0.632000
     10 N8         -2.6090   -0.6060    1.6070 na        1 4FY     -0.273900
     11 C7         -3.8170   -0.5750    0.9290 cc        1 4FY     -0.173200
     12 C20        -5.0150   -1.3950    1.3970 c         1 4FY      0.939200
     13 O22        -6.0440   -1.3850    0.6760 o         1 4FY     -0.807300
     14 O21        -4.8690   -2.0390    2.4710 o         1 4FY     -0.807300
     15 C11        -3.6040    0.3050   -0.1690 cd        1 4FY      0.226800
     16 C18        -4.6090    0.7670   -1.1550 c         1 4FY      0.637600
     17 O19        -5.1180    1.9030   -1.0760 o         1 4FY     -0.614100
     18 N3         -4.9070   -0.0570   -2.2450 n         1 4FY     -0.443800
     19 C1         -4.5050   -1.4440   -2.2990 c3        1 4FY      0.060500
     20 C5         -6.0520    0.2580   -3.0730 c3        1 4FY      0.060500
     21 C6         -7.1820   -0.7770   -2.9790 c3        1 4FY      0.094400
     22 O4         -6.6890   -2.0960   -3.1970 os        1 4FY     -0.435600
     23 H11C       -3.8100   -1.6840   -1.4470 h1        1 4FY      0.054700
     24 H12C       -3.9480   -1.5870   -3.2700 h1        1 4FY      0.054700
     25 H61C       -7.6850   -0.7250   -1.9770 h1        1 4FY      0.065200
     26 H62C       -7.9260   -0.6140   -3.8000 h1        1 4FY      0.065200
     27 H51C       -5.6910    0.2990   -4.1410 h1        1 4FY      0.054700
     28 H52C       -6.4600    1.2690   -2.7930 h1        1 4FY      0.054700
     29 H8         -2.4500   -1.1330    2.4270 hn        1 4FY      0.314700
     30 H13         0.3070    1.1750   -0.5990 ha        1 4FY      0.144000
     31 H17        -0.6240   -0.2340    3.4000 ha        1 4FY      0.144000
     32 H14         2.6690    1.5290    0.0950 ha        1 4FY      0.121500
     33 H15         3.3920    0.9920    2.4220 ha        1 4FY      0.118000
     34 H16         1.7320    0.1080    4.0630 ha        1 4FY      0.121500
     35 H21C       -5.3310   -3.4540   -2.5670 h1        1 4FY      0.065200
     36 H22C       -6.1190   -2.4680   -1.2150 h1        1 4FY      0.065200
@<TRIPOS>BOND
     1    1    2 ar  
     2    1    7 ar  
     3    1   30 1   
     4    2    4 ar  
     5    2   32 1   
     6    3   19 1   
     7    3   22 1   
     8    3   35 1   
     9    3   36 1   
    10    4    5 ar  
    11    4   33 1   
    12    5    6 ar  
    13    5   34 1   
    14    6    7 ar  
    15    6   31 1   
    16    7    8 1   
    17    8    9 2   
    18    8   10 1   
    19    9   15 1   
    20   10   11 1   
    21   10   29 1   
    22   11   12 1   
    23   11   15 2   
    24   12   13 1   
    25   12   14 1   
    26   15   16 1   
    27   16   17 2   
    28   16   18 1   
    29   18   19 1   
    30   18   20 1   
    31   19   23 1   
    32   19   24 1   
    33   20   21 1   
    34   20   27 1   
    35   20   28 1   
    36   21   22 1   
    37   21   25 1   
    38   21   26 1   
@<TRIPOS>SUBSTRUCTURE
     1 4FY         1 TEMP              0 ****  ****    0 ROOT
