@<TRIPOS>MOLECULE
4FY
   36    30     1     0     0
SMALL
bcc


@<TRIPOS>ATOM
      1 C13         2.9420    1.8000    0.8380 c1        1 4FY     -0.108000
      2 C14         4.3250    1.9090    0.7720 c1        1 4FY     -0.139250
      3 C2         -3.2470   -1.8390   -3.0400 c3        1 4FY     -0.028500
      4 C15         5.1190    0.9250    1.3150 c1        1 4FY     -0.139250
      5 C16         4.5420   -0.1760    1.9280 c1        1 4FY     -0.139250
      6 C17         3.1680   -0.2860    1.9940 c1        1 4FY     -0.139250
      7 C12         2.3660    0.7080    1.4450 c1        1 4FY      0.033000
      8 C9          0.9900    0.5840    1.4820 c1        1 4FY     -0.089000
      9 N10         0.1920    0.2330    0.4340 n2        1 4FY     -0.133000
     10 N8          0.1880    0.8990    2.5310 n2        1 4FY     -0.133000
     11 C7         -1.0760    0.7470    2.1430 c1        1 4FY     -0.126000
     12 C20        -2.3110    1.0330    2.9830 c1        1 4FY      0.387000
     13 O22        -3.0960    2.0450    2.6730 o         1 4FY     -0.540000
     14 O21        -2.6230    0.2650    3.9120 o         1 4FY     -0.540000
     15 C11        -1.0720    0.3300    0.8290 c1        1 4FY     -0.126000
     16 C18        -2.3590    0.0590   -0.0670 c1        1 4FY      0.423000
     17 O19        -3.4840    0.2450    0.4000 o         1 4FY     -0.380000
     18 N3         -2.2030   -0.3410   -1.4820 n2        1 4FY     -0.305000
     19 C1         -3.2940   -0.5280   -2.3590 c3        1 4FY     -0.068500
     20 C5         -0.9650   -0.5680   -2.0720 c3        1 4FY     -0.068500
     21 C6         -0.9040   -1.8780   -2.7530 c3        1 4FY     -0.028500
     22 O4         -2.0060   -2.0740   -3.6540 os        1 4FY     -0.284000
     23 H11C       -4.1730   -0.4540   -1.8270 h1        1 4FY      0.111500
     24 H12C       -3.2730    0.1840   -3.0460 h1        1 4FY      0.111500
     25 H21C       -3.4060   -2.5220   -2.4030 h1        1 4FY      0.078250
     26 H22C       -3.9630   -1.8690   -3.7290 h1        1 4FY      0.078250
     27 H61C       -0.9090   -2.6030   -2.0660 h1        1 4FY      0.078250
     28 H62C       -0.1060   -1.9270   -3.2390 h1        1 4FY      0.078250
     29 H51C       -0.7860    0.1530   -2.7370 h1        1 4FY      0.111500
     30 H52C       -0.3200   -0.5410   -1.4240 h1        1 4FY      0.111500
     31 H8          0.4500    1.2410    3.2890 DU        1 4FY      0.265000
     32 H13         2.4070    2.4640    0.4740 ha        1 4FY      0.156000
     33 H17         2.7820   -0.9760    2.4890 ha        1 4FY      0.123000
     34 H14         4.8820    2.6410    0.3160 ha        1 4FY      0.123000
     35 H15         6.0910    0.9880    1.2450 ha        1 4FY      0.123000
     36 H16         5.1330   -0.8690    2.4060 ha        1 4FY      0.123000
@<TRIPOS>BOND
     1    1    7 1   
     2    1   32 1   
     3    2    4 1   
     4    2   34 1   
     5    3   19 1   
     6    3   22 1   
     7    3   25 1   
     8    3   26 1   
     9    4   35 1   
    10    5    6 1   
    11    5   36 1   
    12    6   33 1   
    13    8    9 1   
    14    8   10 1   
    15    9   15 1   
    16   10   11 1   
    17   11   15 1   
    18   12   13 1   
    19   12   14 1   
    20   16   17 1   
    21   18   19 1   
    22   18   20 1   
    23   19   23 1   
    24   19   24 1   
    25   20   21 1   
    26   20   29 1   
    27   20   30 1   
    28   21   22 1   
    29   21   27 1   
    30   21   28 1   
@<TRIPOS>SUBSTRUCTURE
     1 4FY         1 TEMP              0 ****  ****    0 ROOT
