@<TRIPOS>MOLECULE
4FY
   36    38     1     0     0
SMALL
bcc


@<TRIPOS>ATOM
      1 C13        -3.7240    1.6850   -1.0230 ca        1 4FY     -0.123000
      2 C14        -5.0790    1.9880   -1.1330 ca        1 4FY     -0.135000
      3 C2          3.3500    1.2100    1.7840 c3        1 4FY      0.094400
      4 C15        -6.0420    1.1030   -0.6470 ca        1 4FY     -0.149000
      5 C16        -5.6420   -0.0940   -0.0560 ca        1 4FY     -0.135000
      6 C17        -4.2890   -0.4080    0.0550 ca        1 4FY     -0.123000
      7 C12        -3.3160    0.4820   -0.4230 ca        1 4FY     -0.074500
      8 C9         -1.8950    0.1770   -0.3120 cc        1 4FY      0.371000
      9 N10        -0.8890    0.7550   -1.0350 nd        1 4FY     -0.632000
     10 N8         -1.3650   -0.7740    0.5810 na        1 4FY     -0.273900
     11 C7          0.0110   -0.7970    0.4260 cc        1 4FY     -0.173200
     12 C20         0.8940   -1.7090    1.2710 c         1 4FY      0.939200
     13 O22         2.1390   -1.6030    1.1350 o         1 4FY     -0.807300
     14 O21         0.2990   -2.4910    2.0610 o         1 4FY     -0.807300
     15 C11         0.2870    0.1600   -0.5920 cd        1 4FY      0.226800
     16 C18         1.5990    0.4570   -1.2110 c         1 4FY      0.637600
     17 O19         1.8980    0.0130   -2.3370 o         1 4FY     -0.614100
     18 N3          2.4670    1.3350   -0.5530 n         1 4FY     -0.443800
     19 C1          2.2710    1.7310    0.8230 c3        1 4FY      0.060500
     20 C5          3.8380    1.4400   -1.0070 c3        1 4FY      0.060500
     21 C6          4.8630    0.9050    0.0030 c3        1 4FY      0.094400
     22 O4          4.6630    1.4810    1.2910 os        1 4FY     -0.435600
     23 H11C        1.2710    1.3730    1.1950 h1        1 4FY      0.054700
     24 H12C        2.2800    2.8590    0.8440 h1        1 4FY      0.054700
     25 H61C        4.8000   -0.2130    0.0780 h1        1 4FY      0.065450
     26 H62C        5.8970    1.2220   -0.2900 h1        1 4FY      0.065450
     27 H51C        3.9630    0.8860   -1.9790 h1        1 4FY      0.054700
     28 H52C        4.0470    2.5340   -1.1860 h1        1 4FY      0.054700
     29 H8         -1.8580   -1.3440    1.2210 hn        1 4FY      0.314700
     30 H13        -2.9700    2.3870   -1.4110 ha        1 4FY      0.144000
     31 H17        -3.9990   -1.3660    0.5100 ha        1 4FY      0.144000
     32 H14        -5.3900    2.9310   -1.6050 ha        1 4FY      0.121500
     33 H15        -7.1100    1.3460   -0.7340 ha        1 4FY      0.118000
     34 H16        -6.3970   -0.7990    0.3240 ha        1 4FY      0.121500
     35 H21C        3.2990    1.7650    2.7550 h1        1 4FY      0.065450
     36 H22C        3.2270    0.1030    1.9470 h1        1 4FY      0.065450
@<TRIPOS>BOND
     1    1    2 ar  
     2    1    7 ar  
     3    1   30 1   
     4    2    4 ar  
     5    2   32 1   
     6    3   19 1   
     7    3   22 1   
     8    3   35 1   
     9    3   36 1   
    10    4    5 ar  
    11    4   33 1   
    12    5    6 ar  
    13    5   34 1   
    14    6    7 ar  
    15    6   31 1   
    16    7    8 1   
    17    8    9 2   
    18    8   10 1   
    19    9   15 1   
    20   10   11 1   
    21   10   29 1   
    22   11   12 1   
    23   11   15 2   
    24   12   13 1   
    25   12   14 1   
    26   15   16 1   
    27   16   17 2   
    28   16   18 1   
    29   18   19 1   
    30   18   20 1   
    31   19   23 1   
    32   19   24 1   
    33   20   21 1   
    34   20   27 1   
    35   20   28 1   
    36   21   22 1   
    37   21   25 1   
    38   21   26 1   
@<TRIPOS>SUBSTRUCTURE
     1 4FY         1 TEMP              0 ****  ****    0 ROOT
