@<TRIPOS>MOLECULE
4FY
   36    38     1     0     0
SMALL
bcc


@<TRIPOS>ATOM
      1 C13         0.5700    1.0550    0.4710 ca        1 4FY     -0.123000
      2 C14         1.8850    1.2910    0.8650 ca        1 4FY     -0.135000
      3 C2         -5.5940   -2.4470   -2.3330 c3        1 4FY      0.094400
      4 C15         2.3090    0.9520    2.1500 ca        1 4FY     -0.149000
      5 C16         1.4060    0.3800    3.0450 ca        1 4FY     -0.135000
      6 C17         0.0870    0.1440    2.6610 ca        1 4FY     -0.123000
      7 C12        -0.3430    0.4750    1.3670 ca        1 4FY     -0.074500
      8 C9         -1.7160    0.2320    0.9430 cc        1 4FY      0.371000
      9 N10        -2.3450    0.8170   -0.1190 nd        1 4FY     -0.632000
     10 N8         -2.5880   -0.6650    1.5900 na        1 4FY     -0.273900
     11 C7         -3.8000   -0.6530    0.9190 cc        1 4FY     -0.173200
     12 C20        -4.9620   -1.5410    1.3530 c         1 4FY      0.939200
     13 O22        -5.9940   -1.5410    0.6370 o         1 4FY     -0.807300
     14 O21        -4.7840   -2.2260    2.3970 o         1 4FY     -0.807300
     15 C11        -3.6290    0.2830   -0.1410 cd        1 4FY      0.226800
     16 C18        -4.6570    0.7470   -1.1010 c         1 4FY      0.637600
     17 O19        -5.2110    1.8560   -0.9690 o         1 4FY     -0.613100
     18 N3         -4.9260   -0.0390   -2.2260 n         1 4FY     -0.443800
     19 C1         -4.4660   -1.4040   -2.3440 c3        1 4FY      0.060500
     20 C5         -6.0900    0.2630   -3.0330 c3        1 4FY      0.060500
     21 C6         -7.1740   -0.8230   -2.9790 c3        1 4FY      0.094400
     22 O4         -6.6280   -2.1080   -3.2590 os        1 4FY     -0.435600
     23 H11C       -3.7550   -1.6520   -1.5080 h1        1 4FY      0.054700
     24 H12C       -3.9120   -1.4800   -3.3240 h1        1 4FY      0.054700
     25 H61C       -7.6710   -0.8370   -1.9720 h1        1 4FY      0.065450
     26 H62C       -7.9310   -0.6540   -3.7880 h1        1 4FY      0.065450
     27 H51C       -6.5380    1.2420   -2.7050 h1        1 4FY      0.054700
     28 H52C       -5.7390    0.3670   -4.0990 h1        1 4FY      0.054700
     29 H8         -2.4030   -1.2220    2.3850 hn        1 4FY      0.314700
     30 H13         0.2420    1.3280   -0.5440 ha        1 4FY      0.144000
     31 H17        -0.6100   -0.2920    3.3910 ha        1 4FY      0.144000
     32 H14         2.5910    1.7470    0.1560 ha        1 4FY      0.121500
     33 H15         3.3480    1.1370    2.4550 ha        1 4FY      0.118000
     34 H16         1.7330    0.1160    4.0610 ha        1 4FY      0.121500
     35 H21C       -6.0280   -2.5430   -1.2990 h1        1 4FY      0.065450
     36 H22C       -5.2090   -3.4330   -2.6980 h1        1 4FY      0.065450
@<TRIPOS>BOND
     1    1    2 ar  
     2    1    7 ar  
     3    1   30 1   
     4    2    4 ar  
     5    2   32 1   
     6    3   19 1   
     7    3   22 1   
     8    3   35 1   
     9    3   36 1   
    10    4    5 ar  
    11    4   33 1   
    12    5    6 ar  
    13    5   34 1   
    14    6    7 ar  
    15    6   31 1   
    16    7    8 1   
    17    8    9 2   
    18    8   10 1   
    19    9   15 1   
    20   10   11 1   
    21   10   29 1   
    22   11   12 1   
    23   11   15 2   
    24   12   13 1   
    25   12   14 1   
    26   15   16 1   
    27   16   17 2   
    28   16   18 1   
    29   18   19 1   
    30   18   20 1   
    31   19   23 1   
    32   19   24 1   
    33   20   21 1   
    34   20   27 1   
    35   20   28 1   
    36   21   22 1   
    37   21   25 1   
    38   21   26 1   
@<TRIPOS>SUBSTRUCTURE
     1 4FY         1 TEMP              0 ****  ****    0 ROOT
