@<TRIPOS>MOLECULE
4FY
   36    38     1     0     0
SMALL
bcc


@<TRIPOS>ATOM
      1 C13         0.6250    0.9230    0.4320 ca        1 4FY     -0.123000
      2 C14         1.9460    1.1190    0.8250 ca        1 4FY     -0.135000
      3 C2         -5.6810   -2.4330   -2.2430 c3        1 4FY      0.094400
      4 C15         2.3460    0.8290    2.1290 ca        1 4FY     -0.149000
      5 C16         1.4120    0.3460    3.0450 ca        1 4FY     -0.135000
      6 C17         0.0860    0.1510    2.6630 ca        1 4FY     -0.123000
      7 C12        -0.3200    0.4330    1.3490 ca        1 4FY     -0.074500
      8 C9         -1.7000    0.2310    0.9260 cc        1 4FY      0.371000
      9 N10        -2.2950    0.7890   -0.1700 nd        1 4FY     -0.632000
     10 N8         -2.6170   -0.5900    1.6110 na        1 4FY     -0.273900
     11 C7         -3.8220   -0.5580    0.9290 cc        1 4FY     -0.173200
     12 C20        -5.0260   -1.3680    1.3980 c         1 4FY      0.939200
     13 O22        -6.0530   -1.3570    0.6740 o         1 4FY     -0.807300
     14 O21        -4.8860   -2.0060    2.4770 o         1 4FY     -0.807300
     15 C11        -3.6010    0.3130   -0.1760 cd        1 4FY      0.226800
     16 C18        -4.6010    0.7730   -1.1680 c         1 4FY      0.637600
     17 O19        -5.1030    1.9120   -1.0990 o         1 4FY     -0.614100
     18 N3         -4.8990   -0.0570   -2.2530 n         1 4FY     -0.443800
     19 C1         -4.5040   -1.4470   -2.2960 c3        1 4FY      0.060500
     20 C5         -6.0400    0.2580   -3.0870 c3        1 4FY      0.060500
     21 C6         -7.1760   -0.7710   -2.9880 c3        1 4FY      0.094400
     22 O4         -6.6890   -2.0940   -3.1950 os        1 4FY     -0.435600
     23 H11C       -3.8130   -1.6840   -1.4400 h1        1 4FY      0.054700
     24 H12C       -3.9450   -1.5990   -3.2640 h1        1 4FY      0.054700
     25 H61C       -7.6810   -0.7090   -1.9880 h1        1 4FY      0.065200
     26 H62C       -7.9160   -0.6090   -3.8130 h1        1 4FY      0.065200
     27 H51C       -5.6760    0.2890   -4.1530 h1        1 4FY      0.054700
     28 H52C       -6.4440    1.2730   -2.8150 h1        1 4FY      0.054700
     29 H8         -2.4620   -1.1130    2.4350 hn        1 4FY      0.314700
     30 H13         0.3170    1.1570   -0.5990 ha        1 4FY      0.144000
     31 H17        -0.6360   -0.2140    3.4080 ha        1 4FY      0.144000
     32 H14         2.6780    1.5040    0.1000 ha        1 4FY      0.121500
     33 H15         3.3900    0.9820    2.4340 ha        1 4FY      0.118000
     34 H16         1.7190    0.1210    4.0760 ha        1 4FY      0.121500
     35 H21C       -5.3400   -3.4540   -2.5510 h1        1 4FY      0.065200
     36 H22C       -6.1270   -2.4540   -1.2090 h1        1 4FY      0.065200
@<TRIPOS>BOND
     1    1    2 ar  
     2    1    7 ar  
     3    1   30 1   
     4    2    4 ar  
     5    2   32 1   
     6    3   19 1   
     7    3   22 1   
     8    3   35 1   
     9    3   36 1   
    10    4    5 ar  
    11    4   33 1   
    12    5    6 ar  
    13    5   34 1   
    14    6    7 ar  
    15    6   31 1   
    16    7    8 1   
    17    8    9 2   
    18    8   10 1   
    19    9   15 1   
    20   10   11 1   
    21   10   29 1   
    22   11   12 1   
    23   11   15 2   
    24   12   13 1   
    25   12   14 1   
    26   15   16 1   
    27   16   17 2   
    28   16   18 1   
    29   18   19 1   
    30   18   20 1   
    31   19   23 1   
    32   19   24 1   
    33   20   21 1   
    34   20   27 1   
    35   20   28 1   
    36   21   22 1   
    37   21   25 1   
    38   21   26 1   
@<TRIPOS>SUBSTRUCTURE
     1 4FY         1 TEMP              0 ****  ****    0 ROOT
