@<TRIPOS>MOLECULE
4FZ
   19    19     1     0     0
SMALL
bcc


@<TRIPOS>ATOM
      1 O           3.9650   -0.5840    0.2070 o         1 4FZ     -0.521100
      2 N1         -3.0960   -1.2120   -0.4870 nh        1 4FZ     -0.892800
      3 C2         -1.0570    0.0100    0.0840 ca        1 4FZ     -0.167900
      4 N2         -3.3030    0.7740    0.7860 n2        1 4FZ     -0.829100
      5 C3         -0.4590    1.2170   -0.2960 ca        1 4FZ     -0.120500
      6 C4          0.9290    1.3210   -0.3440 ca        1 4FZ     -0.083500
      7 C5          1.7280    0.2210   -0.0080 ca        1 4FZ     -0.185600
      8 C6          3.1960    0.3410   -0.0590 c         1 4FZ      0.573500
      9 C7          1.1260   -0.9830    0.3760 ca        1 4FZ     -0.083500
     10 C8         -0.2630   -1.0900    0.4200 ca        1 4FZ     -0.120500
     11 HN1        -2.6120   -1.4650   -1.3190 hn        1 4FZ      0.400300
     12 HN1A       -4.0880   -1.2120   -0.5860 hn        1 4FZ      0.400300
     13 HN2        -2.7980    1.4760    1.2830 hn        1 4FZ      0.396400
     14 H3         -1.0830    2.0840   -0.5610 ha        1 4FZ      0.150500
     15 H4          1.3970    2.2710   -0.6450 ha        1 4FZ      0.149000
     16 H6          3.5770    1.3430   -0.3620 h4        1 4FZ      0.001200
     17 H7          1.7630   -1.8430    0.6420 ha        1 4FZ      0.149000
     18 H8         -0.7330   -2.0380    0.7270 ha        1 4FZ      0.150500
     19 C1         -2.5520   -0.0760    0.1500 ce        1 4FZ      0.634800
@<TRIPOS>BOND
     1    1    8 2   
     2    2   11 1   
     3    2   12 1   
     4    2   19 1   
     5    3    5 ar  
     6    3   10 ar  
     7    3   19 1   
     8    4   13 1   
     9    4   19 2   
    10    5    6 ar  
    11    5   14 1   
    12    6    7 ar  
    13    6   15 1   
    14    7    8 1   
    15    7    9 ar  
    16    8   16 1   
    17    9   10 ar  
    18    9   17 1   
    19   10   18 1   
@<TRIPOS>SUBSTRUCTURE
     1 4FZ         1 TEMP              0 ****  ****    0 ROOT
