@<TRIPOS>MOLECULE
4FZ
   20    20     1     0     0
SMALL
bcc


@<TRIPOS>ATOM
      1 O           0.3950   -1.0450    0.2470 o         1 4FZ     -0.431100
      2 N1          3.5250    0.1720    6.3270 nv        1 4FZ     -0.882600
      3 C2          3.3680   -0.0410    3.8900 ce        1 4FZ      0.229000
      4 N2          5.2180   -1.0030    5.0150 n2        1 4FZ     -0.529800
      5 C3          4.0610    0.3200    2.7080 ce        1 4FZ     -0.190000
      6 C4          3.3840    0.4990    1.5330 c2        1 4FZ      0.037800
      7 C5          1.9200    0.3740    1.4500 c3        1 4FZ     -0.256300
      8 C6          1.4780   -0.4840    0.2480 c         1 4FZ      0.603900
      9 C7          1.2650   -0.0430    2.7000 c2        1 4FZ      0.037800
     10 C8          1.9660   -0.2140    3.8670 ce        1 4FZ     -0.190000
     11 HN1         2.9680    0.9910    6.2500 hn        1 4FZ      0.427800
     12 HN1A        4.0440    0.0930    7.1730 hn        1 4FZ      0.427800
     13 HN2         5.7320   -1.2440    5.8360 hn        1 4FZ      0.395800
     14 H3          5.1640    0.4280    2.7410 ha        1 4FZ      0.208000
     15 H4          3.9240    0.7600    0.6030 ha        1 4FZ      0.194500
     16 H6          2.2120   -0.5080   -0.5820 h4        1 4FZ      0.065200
     17 H7          1.5090    1.4190    1.1940 hc        1 4FZ      0.199700
     18 H8          0.1720   -0.2260    2.6520 ha        1 4FZ      0.194500
     19 H13         1.4380   -0.5270    4.7890 ha        1 4FZ      0.208000
     20 C1          4.1380   -0.2960    5.1570 cf        1 4FZ      0.249000
@<TRIPOS>BOND
     1    1    8 2   
     2    2   11 1   
     3    2   12 1   
     4    2   20 1   
     5    3    5 1   
     6    3   10 1   
     7    3   20 2   
     8    4   13 1   
     9    4   20 1   
    10    5    6 2   
    11    5   14 1   
    12    6    7 1   
    13    6   15 1   
    14    7    8 1   
    15    7    9 1   
    16    7   17 1   
    17    8   16 1   
    18    9   10 2   
    19    9   18 1   
    20   10   19 1   
@<TRIPOS>SUBSTRUCTURE
     1 4FZ         1 TEMP              0 ****  ****    0 ROOT
