@<TRIPOS>MOLECULE
4FZ
   20    19     1     0     0
SMALL
bcc


@<TRIPOS>ATOM
      1 O           0.8020   -0.0070   -1.5750 o         1 4FZ     -0.487100
      2 N1          3.9920   -0.0820    8.3640 n4        1 4FZ     -0.939200
      3 C2          2.8730   -0.0260    3.0230 ca        1 4FZ     -0.053000
      4 N2          3.4250   -0.0520    5.5470 n1        1 4FZ     -0.559800
      5 C3          3.9120    0.0140    2.0800 ca        1 4FZ     -0.087000
      6 C4          3.6060    0.0270    0.7210 ca        1 4FZ     -0.084500
      7 C5          2.2720    0.0010    0.2990 ca        1 4FZ     -0.142600
      8 C6          1.9560    0.0150   -1.1490 c         1 4FZ      0.564500
      9 C7          1.2400   -0.0400    1.2440 ca        1 4FZ     -0.084500
     10 C8          1.5340   -0.0530    2.6050 ca        1 4FZ     -0.087000
     11 HN1         4.6030    0.7010    8.6000 hn        1 4FZ      0.475300
     12 HN1A        4.4500   -0.9600    8.6110 hn        1 4FZ      0.475300
     13 HN2         3.7930   -0.0700    7.3350 hn        1 4FZ      0.475300
     14 H3          4.9620    0.0350    2.4080 ha        1 4FZ      0.151000
     15 H4          4.4210    0.0590   -0.0210 ha        1 4FZ      0.168000
     16 H6          2.8380    0.0480   -1.8250 h4        1 4FZ      0.021200
     17 H7          0.1920   -0.0600    0.8970 ha        1 4FZ      0.168000
     18 H8          0.7190   -0.0850    3.3440 ha        1 4FZ      0.151000
     19 H13         3.1140    0.0030    8.8790 hn        1 4FZ      0.475300
     20 C1          3.1790   -0.0400    4.4100 cg        1 4FZ      0.398800
@<TRIPOS>BOND
     1    1    8 2   
     2    2   11 1   
     3    2   12 1   
     4    2   13 1   
     5    2   19 1   
     6    3    5 ar  
     7    3   10 ar  
     8    3   20 1   
     9    4   20 3   
    10    5    6 ar  
    11    5   14 1   
    12    6    7 ar  
    13    6   15 1   
    14    7    8 1   
    15    7    9 ar  
    16    8   16 1   
    17    9   10 ar  
    18    9   17 1   
    19   10   18 1   
@<TRIPOS>SUBSTRUCTURE
     1 4FZ         1 TEMP              0 ****  ****    0 ROOT
