@<TRIPOS>MOLECULE
4FZ
   19    15     1     0     0
SMALL
bcc


@<TRIPOS>ATOM
      1 O          -2.9940    0.0140   -3.0850 o         1 4FZ     -0.285000
      2 C1          1.0980    0.2230    1.9330 c1        1 4FZ      0.121000
      3 N1          1.6780   -0.8830    2.6060 n2        1 4FZ     -0.396000
      4 C2          0.3650    0.0140    0.6260 c2        1 4FZ     -0.026000
      5 N2          1.1970    1.4220    2.4420 n1        1 4FZ     -0.288000
      6 C3          1.0580    0.0140   -0.5740 c1        1 4FZ     -0.125000
      7 C4          0.3650    0.0140   -1.7750 c1        1 4FZ     -0.095000
      8 C5         -1.0210    0.0140   -1.7750 c1        1 4FZ     -0.167000
      9 C6         -1.7770    0.0140   -3.0850 c1        1 4FZ      0.222000
     10 C7         -1.7140    0.0140   -0.5740 c2        1 4FZ     -0.077000
     11 C8         -1.0210    0.0140    0.6260 c2        1 4FZ     -0.106000
     12 HN1         2.5810   -1.0060    2.5870 hn        1 4FZ      0.195500
     13 HN1A        1.1460   -1.4810    3.0440 hn        1 4FZ      0.195500
     14 HN2         1.6390    1.5490    3.2300 DU        1 4FZ      0.142000
     15 H3          2.0340    0.0140   -0.5740 ha        1 4FZ      0.149000
     16 H4          0.8530    0.0140   -2.6200 ha        1 4FZ      0.137000
     17 H6         -1.2890    0.0140   -3.9300 ha        1 4FZ      0.092000
     18 H7         -2.6900    0.0140   -0.5740 ha        1 4FZ      0.158000
     19 H8         -1.5090    0.0140    1.4710 ha        1 4FZ      0.154000
@<TRIPOS>BOND
     1    1    9 1   
     2    2    4 1   
     3    2    5 1   
     4    3   12 1   
     5    3   13 1   
     6    4    6 1   
     7    4   11 1   
     8    6   15 1   
     9    7    8 1   
    10    7   16 1   
    11    8   10 1   
    12    9   17 1   
    13   10   11 1   
    14   10   18 1   
    15   11   19 1   
@<TRIPOS>SUBSTRUCTURE
     1 4FZ         1 TEMP              0 ****  ****    0 ROOT
