@<TRIPOS>MOLECULE
4G2
   24    25     1     0     0
SMALL
bcc


@<TRIPOS>ATOM
      1 O14        -0.0130   -0.8640   -0.0580 o         1 4G2     -0.818800
      2 C12         1.1540   -0.3880    0.0560 c         1 4G2      0.836100
      3 O13         1.6770   -0.0310    1.1420 o         1 4G2     -0.818800
      4 C10         1.9460   -0.2080   -1.2320 cc        1 4G2      0.299800
      5 C9          1.3750    0.1070   -2.5000 cd        1 4G2     -0.191900
      6 N8          2.4370    0.1980   -3.3980 na        1 4G2     -0.316900
      7 C7          3.6160   -0.0620   -2.6710 cd        1 4G2      0.355000
      8 N11         3.3200   -0.3090   -1.3560 nc        1 4G2     -0.613000
      9 C6          4.9440   -0.0590   -3.2650 ca        1 4G2     -0.053500
     10 C1          6.0710    0.0200   -2.4280 ca        1 4G2     -0.100000
     11 C2          7.3470    0.0280   -2.9920 ca        1 4G2      0.019400
     12 C3          7.5290   -0.0420   -4.3780 ca        1 4G2     -0.153000
     13 C4          6.4090   -0.1250   -5.2000 ca        1 4G2     -0.126000
     14 C5          5.1270   -0.1370   -4.6540 ca        1 4G2     -0.154000
     15 Cl1         8.7160    0.1260   -1.9780 cl        1 4G2     -0.119400
     16 C15        -0.0380    0.3010   -2.8540 c3        1 4G2     -0.037800
     17 H8          2.3800    0.4260   -4.3510 hn        1 4G2      0.275700
     18 H151       -0.6560    0.0050   -1.9610 hc        1 4G2      0.052033
     19 H152       -0.3310   -0.3330   -3.7270 hc        1 4G2      0.052033
     20 H153       -0.2440    1.3700   -3.1100 hc        1 4G2      0.052033
     21 H1          5.9400    0.0720   -1.3340 ha        1 4G2      0.183000
     22 H5          4.2650   -0.2230   -5.3310 ha        1 4G2      0.123000
     23 H3          8.5390   -0.0330   -4.8100 ha        1 4G2      0.132000
     24 H4          6.5380   -0.1860   -6.2900 ha        1 4G2      0.121000
@<TRIPOS>BOND
     1    1    2 1   
     2    2    3 1   
     3    2    4 1   
     4    4    5 2   
     5    4    8 1   
     6    5    6 1   
     7    5   16 1   
     8    6    7 1   
     9    6   17 1   
    10    7    8 2   
    11    7    9 1   
    12    9   10 ar  
    13    9   14 ar  
    14   10   11 ar  
    15   10   21 1   
    16   11   12 ar  
    17   11   15 1   
    18   12   13 ar  
    19   12   23 1   
    20   13   14 ar  
    21   13   24 1   
    22   14   22 1   
    23   16   18 1   
    24   16   19 1   
    25   16   20 1   
@<TRIPOS>SUBSTRUCTURE
     1 4G2         1 TEMP              0 ****  ****    0 ROOT
