@<TRIPOS>MOLECULE
4G2
   24    25     1     0     0
SMALL
bcc


@<TRIPOS>ATOM
      1 O14        -4.6720    0.8400    0.7970 o         1 4G2     -0.818800
      2 C12        -3.6020    1.2800    0.2860 c         1 4G2      0.836100
      3 O13        -3.4420    2.4510   -0.1400 o         1 4G2     -0.818800
      4 C10        -2.4530    0.2890    0.1530 cc        1 4G2      0.299800
      5 C9         -2.6080   -1.1090   -0.0810 cd        1 4G2     -0.191900
      6 N8         -1.3210   -1.6410   -0.1520 na        1 4G2     -0.316900
      7 C7         -0.4220   -0.5730    0.0390 cd        1 4G2      0.355000
      8 N11        -1.1060    0.6000    0.2250 nc        1 4G2     -0.613000
      9 C6          1.0240   -0.7300    0.0330 ca        1 4G2     -0.053500
     10 C1          1.8380    0.4070   -0.1200 ca        1 4G2     -0.100000
     11 C2          3.2250    0.2630   -0.1310 ca        1 4G2      0.019400
     12 C3          3.8260   -0.9930    0.0070 ca        1 4G2     -0.153000
     13 C4          3.0150   -2.1130    0.1630 ca        1 4G2     -0.126000
     14 C5          1.6270   -1.9880    0.1800 ca        1 4G2     -0.154000
     15 CL1         4.2140    1.6400   -0.3190 cl        1 4G2     -0.119400
     16 C15        -3.8440   -1.8900   -0.2200 c3        1 4G2     -0.037800
     17 H8         -1.0840   -2.5770   -0.3290 hn        1 4G2      0.275700
     18 H151       -3.9710   -2.2580   -1.2690 hc        1 4G2      0.052033
     19 H152       -3.8490   -2.7730    0.4670 hc        1 4G2      0.052033
     20 H153       -4.7050   -1.2150    0.0450 hc        1 4G2      0.052033
     21 H1          1.3750    1.4030   -0.2270 ha        1 4G2      0.183000
     22 H5          1.0160   -2.8910    0.3240 ha        1 4G2      0.123000
     23 H3          4.9200   -1.0940   -0.0060 ha        1 4G2      0.132000
     24 H4          3.4740   -3.1060    0.2790 ha        1 4G2      0.121000
@<TRIPOS>BOND
     1    1    2 1   
     2    2    3 1   
     3    2    4 1   
     4    4    5 2   
     5    4    8 1   
     6    5    6 1   
     7    5   16 1   
     8    6    7 1   
     9    6   17 1   
    10    7    8 2   
    11    7    9 1   
    12    9   10 ar  
    13    9   14 ar  
    14   10   11 ar  
    15   10   21 1   
    16   11   12 ar  
    17   11   15 1   
    18   12   13 ar  
    19   12   23 1   
    20   13   14 ar  
    21   13   24 1   
    22   14   22 1   
    23   16   18 1   
    24   16   19 1   
    25   16   20 1   
@<TRIPOS>SUBSTRUCTURE
     1 4G2         1 TEMP              0 ****  ****    0 ROOT
