@<TRIPOS>MOLECULE
4G2
   24    25     1     0     0
SMALL
bcc


@<TRIPOS>ATOM
      1 O14         0.0060   -0.8740   -0.0360 o         1 4G2     -0.818800
      2 C12         1.1640   -0.3740    0.0670 c         1 4G2      0.836100
      3 O13         1.6820    0.0140    1.1440 o         1 4G2     -0.818800
      4 C10         1.9510   -0.2060   -1.2260 cc        1 4G2      0.299800
      5 C9          1.3730    0.0720   -2.4990 cd        1 4G2     -0.191900
      6 N8          2.4330    0.1640   -3.4010 na        1 4G2     -0.316900
      7 C7          3.6170   -0.0590   -2.6700 cd        1 4G2      0.355000
      8 N11         3.3270   -0.2840   -1.3500 nc        1 4G2     -0.613000
      9 C6          4.9440   -0.0440   -3.2660 ca        1 4G2     -0.053500
     10 C1          6.0710    0.0740   -2.4320 ca        1 4G2     -0.100000
     11 C2          7.3450    0.0930   -2.9980 ca        1 4G2      0.019400
     12 C3          7.5270   -0.0020   -4.3820 ca        1 4G2     -0.153000
     13 C4          6.4080   -0.1240   -5.2010 ca        1 4G2     -0.126000
     14 C5          5.1270   -0.1490   -4.6540 ca        1 4G2     -0.154000
     15 CL1         8.7130    0.2390   -1.9890 cl        1 4G2     -0.119400
     16 C15        -0.0430    0.2330   -2.8550 c3        1 4G2     -0.037800
     17 H8          2.3710    0.3710   -4.3590 hn        1 4G2      0.275700
     18 H151       -0.6550   -0.0550   -1.9560 hc        1 4G2      0.052033
     19 H152       -0.3260   -0.4240   -3.7150 hc        1 4G2      0.052033
     20 H153       -0.2690    1.2930   -3.1330 hc        1 4G2      0.052033
     21 H1          5.9390    0.1470   -1.3390 ha        1 4G2      0.183000
     22 H5          4.2660   -0.2650   -5.3270 ha        1 4G2      0.123000
     23 H3          8.5370    0.0160   -4.8160 ha        1 4G2      0.132000
     24 H4          6.5380   -0.2060   -6.2900 ha        1 4G2      0.121000
@<TRIPOS>BOND
     1    1    2 1   
     2    2    3 1   
     3    2    4 1   
     4    4    5 2   
     5    4    8 1   
     6    5    6 1   
     7    5   16 1   
     8    6    7 1   
     9    6   17 1   
    10    7    8 2   
    11    7    9 1   
    12    9   10 ar  
    13    9   14 ar  
    14   10   11 ar  
    15   10   21 1   
    16   11   12 ar  
    17   11   15 1   
    18   12   13 ar  
    19   12   23 1   
    20   13   14 ar  
    21   13   24 1   
    22   14   22 1   
    23   16   18 1   
    24   16   19 1   
    25   16   20 1   
@<TRIPOS>SUBSTRUCTURE
     1 4G2         1 TEMP              0 ****  ****    0 ROOT
