@<TRIPOS>MOLECULE
4G2
   24    19     1     0     0
SMALL
bcc


@<TRIPOS>ATOM
      1 O14        -1.6690    1.1660    4.0530 o         1 4G2     -0.577000
      2 C12        -2.1470    0.5410    3.0700 c1        1 4G2      0.395000
      3 O13        -3.2340   -0.0840    3.1900 os        1 4G2     -0.531000
      4 C10        -1.4070    0.5250    1.7500 c2        1 4G2     -0.119000
      5 C9         -1.3790    1.5380    0.8310 c1        1 4G2     -0.093000
      6 N8         -0.5770    1.1650   -0.1700 n2        1 4G2     -0.201000
      7 C7         -0.1030   -0.0730    0.1120 c2        1 4G2     -0.105000
      8 N11        -0.6220   -0.4590    1.3030 n2        1 4G2     -0.088000
      9 C6          0.7830   -0.8020   -0.6650 c1        1 4G2      0.055000
     10 C1          2.1490   -0.6500   -0.4870 c1        1 4G2     -0.150000
     11 C2          3.0350   -1.3920   -1.2530 c1        1 4G2     -0.057000
     12 C3          2.5540   -2.2860   -2.1960 c1        1 4G2     -0.151000
     13 C4          1.1880   -2.4380   -2.3740 c1        1 4G2     -0.116500
     14 C5          0.3020   -1.6960   -1.6090 c1        1 4G2     -0.116500
     15 CL1         4.7530   -1.2200   -1.0100 cl        1 4G2     -0.054000
     16 C15        -2.1520    2.8360    0.9150 c2        1 4G2     -0.163000
     17 H8         -0.3760    1.6610   -0.9090 DU        1 4G2      0.228000
     18 H151       -3.0950    2.6670    0.7130 ha        1 4G2      0.092000
     19 H152       -1.7880    3.4750    0.2670 ha        1 4G2      0.092000
     20 H153       -2.0710    3.2060    1.8190 ha        1 4G2      0.092000
     21 H1          2.4870   -0.0200    0.1770 ha        1 4G2      0.134000
     22 H5         -0.6590   -1.7910   -1.7460 ha        1 4G2      0.150000
     23 H3          3.1780   -2.8000   -2.7440 ha        1 4G2      0.133000
     24 H4          0.8500   -3.0680   -3.0390 ha        1 4G2      0.150000
@<TRIPOS>BOND
     1    1    2 1   
     2    2    4 1   
     3    4    5 1   
     4    4    8 1   
     5    5    6 1   
     6    6    7 1   
     7    7    8 1   
     8    7    9 1   
     9    9   10 1   
    10   10   21 1   
    11   11   12 1   
    12   11   15 1   
    13   12   23 1   
    14   13   14 1   
    15   13   24 1   
    16   14   22 1   
    17   16   18 1   
    18   16   19 1   
    19   16   20 1   
@<TRIPOS>SUBSTRUCTURE
     1 4G2         1 TEMP              0 ****  ****    0 ROOT
