@<TRIPOS>MOLECULE
4G5
   37    38     1     0     0
SMALL
bcc


@<TRIPOS>ATOM
      1 C10         0.8590    0.2210    1.3150 ca        1 4G5     -0.089500
      2 C11         2.1730    0.1080    1.7660 ca        1 4G5     -0.125500
      3 C12         2.4350   -0.2180    3.0960 ca        1 4G5     -0.087000
      4 C13         1.3780   -0.4380    3.9830 ca        1 4G5     -0.125500
      5 C14         0.0610   -0.3280    3.5440 ca        1 4G5     -0.089500
      6 C9         -0.2020    0.0080    2.2070 ca        1 4G5     -0.180500
      7 C5         -1.5760    0.1260    1.7280 cc        1 4G5      0.528000
      8 N1         -2.0120   -0.1790    0.4500 nd        1 4G5     -0.556000
      9 N4         -2.6280    0.5920    2.5600 na        1 4G5     -0.209900
     10 C3         -3.7550    0.5740    1.7850 cc        1 4G5     -0.291200
     11 C15        -5.1830    0.8460    1.7730 c         1 4G5      0.796200
     12 O17        -6.0530    1.2450    2.5180 o         1 4G5     -0.482500
     13 O16        -5.6280    0.5250    0.4480 os        1 4G5     -0.543200
     14 C2         -3.3520    0.0950    0.4810 cd        1 4G5      0.271800
     15 C6         -4.5460    0.0690   -0.3490 c         1 4G5      0.713100
     16 O8         -4.8870   -0.2200   -1.4900 o         1 4G5     -0.600500
     17 N7         -5.8490    0.0820   -4.4390 n3        1 4G5     -0.834200
     18 C22        -5.3640    1.2120   -5.1810 c3        1 4G5      0.152100
     19 C18        -7.1970    0.0960   -4.0190 c3        1 4G5      0.163800
     20 C19        -7.5080    1.1070   -2.8880 c         1 4G5      0.478100
     21 O21        -7.5690    2.3210   -2.9650 o         1 4G5     -0.410100
     22 N20        -7.6970    0.5330   -1.5020 n4        1 4G5     -0.765400
     23 H10         0.6590    0.4740    0.2620 ha        1 4G5      0.143500
     24 H11         3.0060    0.2750    1.0650 ha        1 4G5      0.153000
     25 H12         3.4750   -0.3070    3.4490 ha        1 4G5      0.153000
     26 H13         1.5850   -0.7040    5.0310 ha        1 4G5      0.153000
     27 H14        -0.7580   -0.5280    4.2500 ha        1 4G5      0.143500
     28 H4         -2.5490    0.8690    3.5090 hn        1 4G5      0.342700
     29 H221       -5.9680    1.3290   -6.1210 h1        1 4G5      0.057033
     30 H222       -5.4230    2.1720   -4.5970 h1        1 4G5      0.057033
     31 H223       -4.2940    1.0190   -5.4610 h1        1 4G5      0.057033
     32 H181       -7.4930   -0.9370   -3.6820 h1        1 4G5      0.101700
     33 H182       -7.8670    0.4160   -4.8730 h1        1 4G5      0.101700
     34 H201       -8.6150    0.0920   -1.4260 hn        1 4G5      0.468133
     35 H202       -7.6130    1.2620   -0.7810 hn        1 4G5      0.468133
     36 H71        -5.2030   -0.2740   -3.7620 hn        1 4G5      0.422800
     37 H203       -6.9640   -0.1710   -1.3260 hn        1 4G5      0.468133
@<TRIPOS>BOND
     1    1    2 ar  
     2    1    6 ar  
     3    1   23 1   
     4    2    3 ar  
     5    2   24 1   
     6    3    4 ar  
     7    3   25 1   
     8    4    5 ar  
     9    4   26 1   
    10    5    6 ar  
    11    5   27 1   
    12    6    7 1   
    13    7    8 2   
    14    7    9 1   
    15    8   14 1   
    16    9   10 1   
    17    9   28 1   
    18   10   11 1   
    19   10   14 2   
    20   11   12 2   
    21   11   13 1   
    22   13   15 1   
    23   14   15 1   
    24   15   16 2   
    25   17   18 1   
    26   17   19 1   
    27   17   36 1   
    28   18   29 1   
    29   18   30 1   
    30   18   31 1   
    31   19   20 1   
    32   19   32 1   
    33   19   33 1   
    34   20   21 2   
    35   20   22 1   
    36   22   34 1   
    37   22   35 1   
    38   22   37 1   
@<TRIPOS>SUBSTRUCTURE
     1 4G5         1 TEMP              0 ****  ****    0 ROOT
