@<TRIPOS>MOLECULE
4G5
   37    38     1     0     0
SMALL
bcc


@<TRIPOS>ATOM
      1 C10         0.8780    0.2520    1.2630 ca        1 4G5     -0.089500
      2 C11         2.2000    0.1490    1.6950 ca        1 4G5     -0.125500
      3 C12         2.4830   -0.2140    3.0110 ca        1 4G5     -0.087000
      4 C13         1.4420   -0.4820    3.9020 ca        1 4G5     -0.125500
      5 C14         0.1180   -0.3840    3.4820 ca        1 4G5     -0.089500
      6 C9         -0.1680   -0.0110    2.1590 ca        1 4G5     -0.180500
      7 C5         -1.5490    0.0960    1.7000 cc        1 4G5      0.528000
      8 N1         -1.9950   -0.1780    0.4190 nd        1 4G5     -0.556000
      9 N4         -2.5990    0.5170    2.5570 na        1 4G5     -0.209900
     10 C3         -3.7350    0.5010    1.7960 cc        1 4G5     -0.291200
     11 C15        -5.1680    0.7470    1.8090 c         1 4G5      0.796200
     12 O17        -6.0360    1.1070    2.5750 o         1 4G5     -0.482500
     13 O16        -5.6240    0.4590    0.4800 os        1 4G5     -0.543200
     14 C2         -3.3400    0.0710    0.4730 cd        1 4G5      0.271800
     15 C6         -4.5430    0.0470   -0.3440 c         1 4G5      0.713100
     16 O8         -4.8920   -0.2130   -1.4880 o         1 4G5     -0.600500
     17 N7         -5.8890    0.1440   -4.4190 n3        1 4G5     -0.833200
     18 C22        -5.4410    1.3010   -5.1420 c3        1 4G5      0.152100
     19 C18        -7.2300    0.1190   -3.9780 c3        1 4G5      0.163800
     20 C19        -7.5450    1.0970   -2.8210 c         1 4G5      0.478100
     21 O21        -7.6230    2.3120   -2.8680 o         1 4G5     -0.411100
     22 N20        -7.7150    0.4880   -1.4480 n4        1 4G5     -0.765400
     23 H10         0.6610    0.5350    0.2210 ha        1 4G5      0.143500
     24 H11         3.0210    0.3550    0.9900 ha        1 4G5      0.153000
     25 H12         3.5290   -0.2940    3.3490 ha        1 4G5      0.153000
     26 H13         1.6660   -0.7770    4.9390 ha        1 4G5      0.153000
     27 H14        -0.6900   -0.6220    4.1890 ha        1 4G5      0.143500
     28 H4         -2.5140    0.7670    3.5140 hn        1 4G5      0.342700
     29 H221       -5.5120    2.2460   -4.5350 h1        1 4G5      0.057033
     30 H222       -6.0610    1.4250   -6.0700 h1        1 4G5      0.057033
     31 H223       -4.3710    1.1380   -5.4420 h1        1 4G5      0.057033
     32 H181       -7.4980   -0.9280   -3.6600 h1        1 4G5      0.101700
     33 H182       -7.9210    0.4430   -4.8140 h1        1 4G5      0.101700
     34 H201       -6.9680   -0.2070   -1.2930 hn        1 4G5      0.468133
     35 H202       -7.6390    1.2010   -0.7110 hn        1 4G5      0.468133
     36 H71        -5.2260   -0.2120   -3.7600 hn        1 4G5      0.422800
     37 H203       -8.6240    0.0290   -1.3760 hn        1 4G5      0.468133
@<TRIPOS>BOND
     1    1    2 ar  
     2    1    6 ar  
     3    1   23 1   
     4    2    3 ar  
     5    2   24 1   
     6    3    4 ar  
     7    3   25 1   
     8    4    5 ar  
     9    4   26 1   
    10    5    6 ar  
    11    5   27 1   
    12    6    7 1   
    13    7    8 2   
    14    7    9 1   
    15    8   14 1   
    16    9   10 1   
    17    9   28 1   
    18   10   11 1   
    19   10   14 2   
    20   11   12 2   
    21   11   13 1   
    22   13   15 1   
    23   14   15 1   
    24   15   16 2   
    25   17   18 1   
    26   17   19 1   
    27   17   36 1   
    28   18   29 1   
    29   18   30 1   
    30   18   31 1   
    31   19   20 1   
    32   19   32 1   
    33   19   33 1   
    34   20   21 2   
    35   20   22 1   
    36   22   34 1   
    37   22   35 1   
    38   22   37 1   
@<TRIPOS>SUBSTRUCTURE
     1 4G5         1 TEMP              0 ****  ****    0 ROOT
