@<TRIPOS>MOLECULE
4G5
   35    36     1     0     0
SMALL
bcc


@<TRIPOS>ATOM
      1 C10        -3.8650   -1.5550   -0.8920 ca        1 4G5     -0.120500
      2 C11        -5.2420   -1.7350   -0.9980 ca        1 4G5     -0.135500
      3 C12        -6.1190   -0.7350   -0.5790 ca        1 4G5     -0.146000
      4 C13        -5.6120    0.4530   -0.0570 ca        1 4G5     -0.135500
      5 C14        -4.2350    0.6450    0.0490 ca        1 4G5     -0.120500
      6 C9         -3.3490   -0.3610   -0.3630 ca        1 4G5     -0.079500
      7 C5         -1.9050   -0.1840   -0.2560 cc        1 4G5      0.380000
      8 N1         -0.9560   -0.8790   -0.9500 nd        1 4G5     -0.632000
      9 N4         -1.2940    0.7490    0.6040 na        1 4G5     -0.273900
     10 C3          0.0800    0.6380    0.4570 cc        1 4G5     -0.175200
     11 C15         1.0320    1.5040    1.2720 c         1 4G5      0.946200
     12 O17         0.5130    2.4160    1.9680 o         1 4G5     -0.814300
     13 O16         2.2620    1.2390    1.2160 o         1 4G5     -0.814300
     14 C2          0.2690   -0.3780   -0.5200 cd        1 4G5      0.229800
     15 C6          1.5470   -0.8250   -1.1210 c         1 4G5      0.627600
     16 O8          1.8730   -0.5040   -2.2800 o         1 4G5     -0.609100
     17 N7          2.3530   -1.6900   -0.3740 n         1 4G5     -0.457800
     18 C22         2.0930   -1.8920    1.0260 c3        1 4G5      0.060300
     19 C18         3.6710   -2.0090   -0.8510 c3        1 4G5      0.019000
     20 C19         4.8410   -1.1770   -0.3040 c         1 4G5      0.623100
     21 O21         5.9610   -1.7280   -0.1650 o         1 4G5     -0.677100
     22 N20         4.6710    0.1530   -0.0640 n         1 4G5     -0.632000
     23 H10        -3.1790   -2.3470   -1.2280 ha        1 4G5      0.144000
     24 H11        -5.6380   -2.6730   -1.4150 ha        1 4G5      0.122500
     25 H12        -7.2050   -0.8830   -0.6610 ha        1 4G5      0.119000
     26 H13        -6.2980    1.2480    0.2700 ha        1 4G5      0.122500
     27 H14        -3.8580    1.5980    0.4470 ha        1 4G5      0.144000
     28 H4         -1.7350    1.3900    1.2130 hn        1 4G5      0.315700
     29 H221        1.0090   -2.1470    1.1670 h1        1 4G5      0.050700
     30 H222        2.7180   -2.7440    1.4020 h1        1 4G5      0.050700
     31 H223        2.3270   -0.9630    1.6200 h1        1 4G5      0.050700
     32 H181        3.8950   -3.0830   -0.5870 h1        1 4G5      0.080200
     33 H182        3.6950   -1.9000   -1.9740 h1        1 4G5      0.080200
     34 H201        3.7580    0.5540   -0.0150 hn        1 4G5      0.328000
     35 H202        5.4030    0.6500    0.3830 hn        1 4G5      0.328000
@<TRIPOS>BOND
     1    1    2 ar  
     2    1    6 ar  
     3    1   23 1   
     4    2    3 ar  
     5    2   24 1   
     6    3    4 ar  
     7    3   25 1   
     8    4    5 ar  
     9    4   26 1   
    10    5    6 ar  
    11    5   27 1   
    12    6    7 1   
    13    7    8 2   
    14    7    9 1   
    15    8   14 1   
    16    9   10 1   
    17    9   28 1   
    18   10   11 1   
    19   10   14 2   
    20   11   12 1   
    21   11   13 1   
    22   14   15 1   
    23   15   16 2   
    24   15   17 1   
    25   17   18 1   
    26   17   19 1   
    27   18   29 1   
    28   18   30 1   
    29   18   31 1   
    30   19   20 1   
    31   19   32 1   
    32   19   33 1   
    33   20   21 2   
    34   20   22 1   
    35   22   34 1   
    36   22   35 1   
@<TRIPOS>SUBSTRUCTURE
     1 4G5         1 TEMP              0 ****  ****    0 ROOT
