@<TRIPOS>MOLECULE
4G5
   37    38     1     0     0
SMALL
bcc


@<TRIPOS>ATOM
      1 C10         0.6790   -0.9900    1.5660 ca        1 4G5     -0.089500
      2 C11         1.9950   -1.0830    2.0190 ca        1 4G5     -0.125500
      3 C12         2.4300   -0.2920    3.0820 ca        1 4G5     -0.087000
      4 C13         1.5490    0.6020    3.6940 ca        1 4G5     -0.125500
      5 C14         0.2330    0.7040    3.2500 ca        1 4G5     -0.089500
      6 C9         -0.2070   -0.0980    2.1860 ca        1 4G5     -0.181500
      7 C5         -1.5830   -0.0040    1.7050 cc        1 4G5      0.528000
      8 N1         -1.9920   -0.1850    0.3960 nd        1 4G5     -0.556000
      9 N4         -2.6680    0.2800    2.5750 na        1 4G5     -0.209900
     10 C3         -3.7870    0.2840    1.7890 cc        1 4G5     -0.291200
     11 C15        -5.2290    0.4720    1.7900 c         1 4G5      0.796200
     12 O17        -6.1260    0.7290    2.5640 o         1 4G5     -0.482500
     13 O16        -5.6460    0.2850    0.4300 os        1 4G5     -0.543200
     14 C2         -3.3480   -0.0090    0.4420 cd        1 4G5      0.271800
     15 C6         -4.5330   -0.0080   -0.4010 c         1 4G5      0.713100
     16 O8         -4.8470   -0.1780   -1.5720 o         1 4G5     -0.600500
     17 N7         -5.7910    0.4740   -4.4700 n7        1 4G5     -0.834200
     18 C22        -5.3590    1.7190   -5.0430 c3        1 4G5      0.152100
     19 C18        -7.1430    0.3600   -4.0800 c3        1 4G5      0.163800
     20 C19        -7.5240    1.1890   -2.8290 c         1 4G5      0.478100
     21 O21        -7.6560    2.3970   -2.7430 o         1 4G5     -0.410100
     22 N20        -7.6940    0.4230   -1.5370 nz        1 4G5     -0.765400
     23 H10         0.3430   -1.6150    0.7230 ha        1 4G5      0.143500
     24 H11         2.6900   -1.7850    1.5320 ha        1 4G5      0.153000
     25 H12         3.4700   -0.3690    3.4370 ha        1 4G5      0.153000
     26 H13         1.8950    1.2320    4.5280 ha        1 4G5      0.153000
     27 H14        -0.4410    1.4300    3.7280 ha        1 4G5      0.143500
     28 H4         -2.6130    0.4430    3.5520 hn        1 4G5      0.342700
     29 H221       -5.9560    1.9300   -5.9700 h1        1 4G5      0.057033
     30 H222       -5.4790    2.5860   -4.3350 h1        1 4G5      0.057033
     31 H223       -4.2770    1.6230   -5.3230 h1        1 4G5      0.057033
     32 H181       -7.3860   -0.7240   -3.8920 h1        1 4G5      0.101700
     33 H182       -7.8180    0.7570   -4.8960 h1        1 4G5      0.101700
     34 H201       -8.5860   -0.0740   -1.5360 hn        1 4G5      0.468133
     35 H202       -7.6590    1.0510   -0.7230 hn        1 4G5      0.468133
     36 H71        -5.1350    0.0640   -3.8340 hn        1 4G5      0.422800
     37 H203       -6.9240   -0.2580   -1.4440 hn        1 4G5      0.468133
@<TRIPOS>BOND
     1    1    2 ar  
     2    1    6 ar  
     3    1   23 1   
     4    2    3 ar  
     5    2   24 1   
     6    3    4 ar  
     7    3   25 1   
     8    4    5 ar  
     9    4   26 1   
    10    5    6 ar  
    11    5   27 1   
    12    6    7 1   
    13    7    8 2   
    14    7    9 1   
    15    8   14 1   
    16    9   10 1   
    17    9   28 1   
    18   10   11 1   
    19   10   14 2   
    20   11   12 2   
    21   11   13 1   
    22   13   15 1   
    23   14   15 1   
    24   15   16 2   
    25   17   18 1   
    26   17   19 1   
    27   17   36 1   
    28   18   29 1   
    29   18   30 1   
    30   18   31 1   
    31   19   20 1   
    32   19   32 1   
    33   19   33 1   
    34   20   21 2   
    35   20   22 1   
    36   22   34 1   
    37   22   35 1   
    38   22   37 1   
@<TRIPOS>SUBSTRUCTURE
     1 4G5         1 TEMP              0 ****  ****    0 ROOT
