@<TRIPOS>MOLECULE
4G5
   35    29     1     0     0
SMALL
bcc


@<TRIPOS>ATOM
      1 C10         3.2660    1.0120   -1.2910 c1        1 4G5     -0.046500
      2 C11         4.6630    1.0070   -1.2840 c1        1 4G5     -0.080750
      3 C12         5.3570   -0.2020   -1.3700 c1        1 4G5     -0.080750
      4 C13         4.6600   -1.3970   -1.4620 c1        1 4G5     -0.080750
      5 C14         3.2660   -1.3910   -1.4690 c1        1 4G5     -0.080750
      6 C9          2.5720   -0.1790   -1.3830 c1        1 4G5      0.027000
      7 C5          1.2030   -0.1730   -1.3750 c1        1 4G5      0.361800
      8 N1          0.4260   -0.2230   -0.2890 ne        1 4G5     -0.405400
      9 N4          0.4060   -0.1070   -2.4550 nf        1 4G5     -0.405400
     10 C3         -0.8480   -0.1170   -2.0390 ch        1 4G5     -0.074500
     11 C15        -2.0480   -0.2000   -2.9060 c1        1 4G5      0.862000
     12 O17        -2.5610    0.8350   -3.3540 o         1 4G5     -0.782500
     13 O16        -2.5490   -1.3320   -3.1880 o         1 4G5     -0.782500
     14 C2         -0.8370   -0.1890   -0.6850 cg        1 4G5     -0.074500
     15 C6         -2.0490   -0.1800    0.2200 c1        1 4G5      0.644500
     16 O8         -3.1970   -0.1490   -0.2710 o         1 4G5     -0.604500
     17 N7         -1.8810   -0.2840    1.6260 n3        1 4G5     -0.277400
     18 C22        -1.6690   -1.5640    2.2210 c3        1 4G5      0.003600
     19 C18        -2.1220    0.9150    2.5010 c3        1 4G5     -0.036700
     20 C19        -3.5960    1.2060    2.5640 c         1 4G5      0.623100
     21 O21        -4.3600    0.6910    1.7460 o         1 4G5     -0.677100
     22 N20        -4.1450    1.9850    3.6970 n         1 4G5     -0.632000
     23 H10         2.7950    1.8410   -1.3490 ha        1 4G5      0.100500
     24 H11         5.1570    1.8630   -1.3380 ha        1 4G5      0.066500
     25 H12         6.3700   -0.2070   -1.3390 ha        1 4G5      0.066500
     26 H13         5.1770   -2.2970   -1.5360 ha        1 4G5      0.066500
     27 H14         2.7670   -2.2380   -1.6260 ha        1 4G5      0.066500
     28 H4          0.6820   -0.1050   -3.3260 DU        1 4G5      0.266000
     29 H221       -2.4900   -2.1310    2.0970 h1        1 4G5      0.050700
     30 H222       -1.4800   -1.4460    3.2340 h1        1 4G5      0.050700
     31 H223       -0.8680   -2.0220    1.7750 h1        1 4G5      0.050700
     32 H181       -1.6640    1.6730    2.1380 h1        1 4G5      0.080200
     33 H182       -1.7830    0.7290    3.4150 h1        1 4G5      0.080200
     34 H201       -3.6280    2.1770    4.3960 hn        1 4G5      0.328000
     35 H202       -4.9910    2.2020    3.7080 hn        1 4G5      0.328000
@<TRIPOS>BOND
     1    1    6 3   
     2    1   23 1   
     3    2    3 3   
     4    2   24 1   
     5    3   25 1   
     6    4    5 3   
     7    4   26 1   
     8    5   27 1   
     9    7    8 2   
    10    7    9 2   
    11    8   14 1   
    12    9   10 1   
    13   10   14 3   
    14   11   12 2   
    15   11   13 2   
    16   15   16 2   
    17   15   17 2   
    18   17   18 1   
    19   17   19 1   
    20   18   29 1   
    21   18   30 1   
    22   18   31 1   
    23   19   20 1   
    24   19   32 1   
    25   19   33 1   
    26   20   21 2   
    27   20   22 1   
    28   22   34 1   
    29   22   35 1   
@<TRIPOS>SUBSTRUCTURE
     1 4G5         1 TEMP              0 ****  ****    0 ROOT
