@<TRIPOS>MOLECULE
4G6
   20    19     1     0     0
SMALL
bcc


@<TRIPOS>ATOM
      1 CAA         0.0330   -0.1570   -0.1350 c3        1 4G6     -0.157600
      2 CAF         1.5580   -0.0810   -0.0510 c3        1 4G6      0.138200
      3 CAB         1.9680    0.1450    1.4160 c3        1 4G6     -0.157600
      4 NAD         2.1580   -1.4000   -0.5170 n4        1 4G6     -0.856600
      5 CAE         2.1320    1.1170   -0.8610 c3        1 4G6      0.065800
      6 NAC         1.3740    1.5290   -2.0720 n4        1 4G6     -0.842600
      7 HAC        -0.3660   -0.9080    0.5990 hc        1 4G6      0.105200
      8 HAB        -0.4050    0.8320    0.1600 hc        1 4G6      0.105200
      9 HAA        -0.3340   -0.4420   -1.1500 hc        1 4G6      0.105200
     10 HAF         3.0700    0.3000    1.5160 hc        1 4G6      0.105200
     11 HAD         1.4410    1.0520    1.8110 hc        1 4G6      0.105200
     12 HAE         1.6590   -0.7200    2.0580 hc        1 4G6      0.105200
     13 HAL         3.1810   -1.3810   -0.4230 hn        1 4G6      0.476800
     14 H1          1.9030   -1.6090   -1.4850 hn        1 4G6      0.476800
     15 HAH         3.2050    0.9330   -1.1680 hx        1 4G6      0.150200
     16 HAG         2.1390    2.0140   -0.1600 hx        1 4G6      0.150200
     17 HAI         1.8050    2.3850   -2.4650 hn        1 4G6      0.482800
     18 H3          1.3830    0.8040   -2.7970 hn        1 4G6      0.482800
     19 HAD3        1.7920   -2.1530    0.0860 hn        1 4G6      0.476800
     20 HAC3        0.3940    1.7440   -1.8340 hn        1 4G6      0.482800
@<TRIPOS>BOND
     1    1    2 1   
     2    1    7 1   
     3    1    8 1   
     4    1    9 1   
     5    2    3 1   
     6    2    4 1   
     7    2    5 1   
     8    3   10 1   
     9    3   11 1   
    10    3   12 1   
    11    4   13 1   
    12    4   14 1   
    13    4   19 1   
    14    5    6 1   
    15    5   15 1   
    16    5   16 1   
    17    6   17 1   
    18    6   18 1   
    19    6   20 1   
@<TRIPOS>SUBSTRUCTURE
     1 4G6         1 TEMP              0 ****  ****    0 ROOT
