@<TRIPOS>MOLECULE
4G6
   20    19     1     0     0
SMALL
bcc


@<TRIPOS>ATOM
      1 CAA         0.0340   -0.1470   -0.1170 c3        1 4G6     -0.157600
      2 CAF         1.5600   -0.0830   -0.0540 c3        1 4G6      0.138200
      3 CAB         1.9900    0.1310    1.4090 c3        1 4G6     -0.157600
      4 NAD         2.1430   -1.4050   -0.5340 nz        1 4G6     -0.856600
      5 CAE         2.1330    1.1140   -0.8650 c3        1 4G6      0.065800
      6 NAC         1.3630    1.5390   -2.0630 nz        1 4G6     -0.842600
      7 HAC        -0.3930    0.8440    0.1880 hc        1 4G6      0.105200
      8 HAB        -0.3620   -0.8990    0.6180 hc        1 4G6      0.105200
      9 HAA        -0.3490   -0.4240   -1.1290 hc        1 4G6      0.105200
     10 HAF         1.4760    1.0410    1.8160 hc        1 4G6      0.105200
     11 HAD         1.6830   -0.7340    2.0520 hc        1 4G6      0.105200
     12 HAE         3.0950    0.2770    1.4960 hc        1 4G6      0.105200
     13 HAL         1.7790   -2.1580    0.0710 hn        1 4G6      0.476800
     14 H1          1.8740   -1.6070   -1.4990 hn        1 4G6      0.476800
     15 HAH         3.2010    0.9230   -1.1870 hx        1 4G6      0.150200
     16 HAG         2.1560    2.0080   -0.1590 hx        1 4G6      0.150200
     17 HAI         0.3870    1.7600   -1.8110 hn        1 4G6      0.482800
     18 H3          1.7950    2.3930   -2.4570 hn        1 4G6      0.482800
     19 HAD3        3.1670   -1.3950   -0.4530 hn        1 4G6      0.476800
     20 HAC3        1.3560    0.8180   -2.7920 hn        1 4G6      0.482800
@<TRIPOS>BOND
     1    1    2 1   
     2    1    7 1   
     3    1    8 1   
     4    1    9 1   
     5    2    3 1   
     6    2    4 1   
     7    2    5 1   
     8    3   10 1   
     9    3   11 1   
    10    3   12 1   
    11    4   13 1   
    12    4   14 1   
    13    4   19 1   
    14    5    6 1   
    15    5   15 1   
    16    5   16 1   
    17    6   17 1   
    18    6   18 1   
    19    6   20 1   
@<TRIPOS>SUBSTRUCTURE
     1 4G6         1 TEMP              0 ****  ****    0 ROOT
