@<TRIPOS>MOLECULE
4G8
   44    46     1     0     0
SMALL
bcc


@<TRIPOS>ATOM
      1 C20        -0.2580   -0.4200   -0.3430 ca        1 4G8     -0.094500
      2 C21         1.0020    0.1250   -0.5900 ca        1 4G8     -0.149500
      3 C22         1.6180    0.9310    0.3660 ca        1 4G8     -0.123000
      4 C23         0.9740    1.1970    1.5750 ca        1 4G8     -0.149500
      5 C24        -0.2870    0.6580    1.8300 ca        1 4G8     -0.094500
      6 C19        -0.9050   -0.1520    0.8690 ca        1 4G8     -0.129300
      7 C18        -2.2900   -0.6650    1.0910 c3        1 4G8      0.154100
      8 N17        -2.4150   -1.8810    1.9610 n4        1 4G8     -0.554200
      9 C25        -1.7620   -1.7090    3.2870 c3        1 4G8     -0.055200
     10 C26        -2.4920   -0.6080    4.1390 c         1 4G8      0.917600
     11 O27        -1.7740    0.0090    4.9570 o         1 4G8     -0.797800
     12 O28        -3.7210   -0.4470    3.9110 o         1 4G8     -0.797800
     13 C15        -1.9580   -3.1410    1.2720 c         1 4G8      0.539600
     14 O16        -0.7600   -3.3660    1.1760 o         1 4G8     -0.446100
     15 C9         -3.0580   -3.9950    0.8210 cc        1 4G8      0.149800
     16 N8         -3.6710   -4.9260    1.6640 nc        1 4G8     -0.629000
     17 C10        -3.6130   -4.0530   -0.4850 cd        1 4G8     -0.135200
     18 C12        -3.3300   -3.2350   -1.7450 c         1 4G8      0.946200
     19 O14        -3.8460   -3.6450   -2.8120 o         1 4G8     -0.796300
     20 O13        -2.6160   -2.2100   -1.5890 o         1 4G8     -0.796300
     21 N11        -4.5690   -5.0490   -0.4270 na        1 4G8     -0.275900
     22 C1         -4.5880   -5.5650    0.8880 cd        1 4G8      0.416000
     23 C2         -5.4900   -6.6310    1.3180 ca        1 4G8     -0.102500
     24 C3         -5.9040   -6.6910    2.6560 ca        1 4G8     -0.110500
     25 C4         -6.7640   -7.7050    3.0730 ca        1 4G8     -0.135500
     26 C5         -7.2180   -8.6620    2.1640 ca        1 4G8     -0.133000
     27 C6         -6.8040   -8.6050    0.8340 ca        1 4G8     -0.135500
     28 C7         -5.9410   -7.5970    0.4080 ca        1 4G8     -0.110500
     29 H20        -0.7520   -1.0600   -1.0990 ha        1 4G8      0.181000
     30 H21         1.5090   -0.0870   -1.5430 ha        1 4G8      0.127500
     31 H22         2.6120    1.3580    0.1690 ha        1 4G8      0.117000
     32 H23         1.4580    1.8290    2.3330 ha        1 4G8      0.127500
     33 H24        -0.7940    0.8600    2.7920 ha        1 4G8      0.181000
     34 H181       -2.9020    0.1340    1.6100 hx        1 4G8      0.126200
     35 H182       -2.7600   -0.9290    0.0910 hx        1 4G8      0.126200
     36 H251       -0.6840   -1.4380    3.1420 hx        1 4G8      0.085200
     37 H252       -1.8290   -2.6830    3.8410 hx        1 4G8      0.085200
     38 H11        -5.1290   -5.3320   -1.1910 hn        1 4G8      0.322700
     39 H3         -5.5480   -5.9380    3.3770 ha        1 4G8      0.146000
     40 H7         -5.6110   -7.5770   -0.6410 ha        1 4G8      0.146000
     41 H4         -7.0860   -7.7480    4.1240 ha        1 4G8      0.128500
     42 H5         -7.8990   -9.4580    2.4960 ha        1 4G8      0.124000
     43 H6         -7.1560   -9.3600    0.1160 ha        1 4G8      0.128500
     44 H171       -3.4300   -1.9680    2.1630 hn        1 4G8      0.474800
@<TRIPOS>BOND
     1    1    2 ar  
     2    1    6 ar  
     3    1   29 1   
     4    2    3 ar  
     5    2   30 1   
     6    3    4 ar  
     7    3   31 1   
     8    4    5 ar  
     9    4   32 1   
    10    5    6 ar  
    11    5   33 1   
    12    6    7 1   
    13    7    8 1   
    14    7   34 1   
    15    7   35 1   
    16    8    9 1   
    17    8   13 1   
    18    8   44 1   
    19    9   10 1   
    20    9   36 1   
    21    9   37 1   
    22   10   11 1   
    23   10   12 1   
    24   13   14 2   
    25   13   15 1   
    26   15   16 1   
    27   15   17 2   
    28   16   22 2   
    29   17   18 1   
    30   17   21 1   
    31   18   19 1   
    32   18   20 1   
    33   21   22 1   
    34   21   38 1   
    35   22   23 1   
    36   23   24 ar  
    37   23   28 ar  
    38   24   25 ar  
    39   24   39 1   
    40   25   26 ar  
    41   25   41 1   
    42   26   27 ar  
    43   26   42 1   
    44   27   28 ar  
    45   27   43 1   
    46   28   40 1   
@<TRIPOS>SUBSTRUCTURE
     1 4G8         1 TEMP              0 ****  ****    0 ROOT
