@<TRIPOS>MOLECULE
4G8
   43    45     1     0     0
SMALL
bcc


@<TRIPOS>ATOM
      1 C20        -3.8950   -0.5150   -0.3610 ca        1 4G8     -0.120000
      2 C21        -5.0400   -1.0730   -0.9320 ca        1 4G8     -0.148000
      3 C22        -6.2700   -0.4250   -0.8300 ca        1 4G8     -0.169000
      4 C23        -6.3550    0.7940   -0.1580 ca        1 4G8     -0.148000
      5 C24        -5.2140    1.3580    0.4090 ca        1 4G8     -0.120000
      6 C19        -3.9760    0.7070    0.3170 ca        1 4G8     -0.074300
      7 C18        -2.7920    1.3400    1.0020 c3        1 4G8      0.111300
      8 N17        -1.4970    1.0940    0.4140 n         1 4G8     -0.418800
      9 C25        -1.0980    1.9470   -0.6810 c3        1 4G8     -0.024000
     10 C26        -1.0120    3.4760   -0.4150 c         1 4G8      0.907600
     11 O27        -1.7110    4.0350    0.4790 o         1 4G8     -0.853300
     12 O28        -0.2460    4.1190   -1.1920 o         1 4G8     -0.853300
     13 C15        -0.7700   -0.0000    0.8430 c         1 4G8      0.620600
     14 O16        -1.1580   -0.6890    1.8170 o         1 4G8     -0.659100
     15 C9          0.5170   -0.3430    0.1780 cc        1 4G8      0.264800
     16 N8          1.7130    0.2600    0.5450 nc        1 4G8     -0.619000
     17 C10         0.7480   -1.3600   -0.7950 cd        1 4G8     -0.170200
     18 C12        -0.1310   -2.3560   -1.5410 c         1 4G8      0.942200
     19 O14        -1.3780   -2.2820   -1.4150 o         1 4G8     -0.820300
     20 O13         0.4740   -3.2100   -2.2550 o         1 4G8     -0.820300
     21 N11         2.1190   -1.3490   -1.0090 na        1 4G8     -0.276900
     22 C1          2.6880   -0.3580   -0.1900 cd        1 4G8      0.348000
     23 C2          4.1090   -0.0490   -0.1560 ca        1 4G8     -0.055500
     24 C3          4.5340    1.2160    0.2900 ca        1 4G8     -0.125500
     25 C4          5.8910    1.5220    0.3300 ca        1 4G8     -0.140000
     26 C5          6.8410    0.5830   -0.0740 ca        1 4G8     -0.165000
     27 C6          6.4250   -0.6710   -0.5170 ca        1 4G8     -0.140000
     28 C7          5.0690   -0.9900   -0.5570 ca        1 4G8     -0.125500
     29 H20        -2.9250   -1.0460   -0.4540 ha        1 4G8      0.165000
     30 H21        -4.9590   -2.0290   -1.4680 ha        1 4G8      0.111000
     31 H22        -7.1680   -0.8690   -1.2810 ha        1 4G8      0.096000
     32 H23        -7.3190    1.3140   -0.0800 ha        1 4G8      0.111000
     33 H24        -5.2790    2.3280    0.9240 ha        1 4G8      0.165000
     34 H181       -2.9410    2.4640    1.0320 h1        1 4G8      0.089200
     35 H182       -2.7860    0.9520    2.0640 h1        1 4G8      0.089200
     36 H251       -0.0910    1.6230   -1.0610 h1        1 4G8      0.043700
     37 H252       -1.8420    1.8150   -1.5190 h1        1 4G8      0.043700
     38 H11         2.5790   -1.9410   -1.6510 hn        1 4G8      0.306700
     39 H3          3.7850    1.9630    0.6020 ha        1 4G8      0.150000
     40 H7          4.7620   -1.9890   -0.8970 ha        1 4G8      0.150000
     41 H4          6.2140    2.5130    0.6790 ha        1 4G8      0.112500
     42 H5          7.9110    0.8310   -0.0440 ha        1 4G8      0.106000
     43 H6          7.1680   -1.4150   -0.8360 ha        1 4G8      0.112500
@<TRIPOS>BOND
     1    1    2 ar  
     2    1    6 ar  
     3    1   29 1   
     4    2    3 ar  
     5    2   30 1   
     6    3    4 ar  
     7    3   31 1   
     8    4    5 ar  
     9    4   32 1   
    10    5    6 ar  
    11    5   33 1   
    12    6    7 1   
    13    7    8 1   
    14    7   34 1   
    15    7   35 1   
    16    8    9 1   
    17    8   13 1   
    18    9   10 1   
    19    9   36 1   
    20    9   37 1   
    21   10   11 1   
    22   10   12 1   
    23   13   14 2   
    24   13   15 1   
    25   15   16 1   
    26   15   17 2   
    27   16   22 2   
    28   17   18 1   
    29   17   21 1   
    30   18   19 1   
    31   18   20 1   
    32   21   22 1   
    33   21   38 1   
    34   22   23 1   
    35   23   24 ar  
    36   23   28 ar  
    37   24   25 ar  
    38   24   39 1   
    39   25   26 ar  
    40   25   41 1   
    41   26   27 ar  
    42   26   42 1   
    43   27   28 ar  
    44   27   43 1   
    45   28   40 1   
@<TRIPOS>SUBSTRUCTURE
     1 4G8         1 TEMP              0 ****  ****    0 ROOT
