@<TRIPOS>MOLECULE
4G8
   43    37     1     0     0
SMALL
bcc


@<TRIPOS>ATOM
      1 C20         4.4580    0.8060   -0.6760 c1        1 4G8     -0.053500
      2 C21         5.7740    1.1410   -0.3940 c1        1 4G8     -0.085375
      3 C22         6.2630    1.0040    0.8960 c1        1 4G8     -0.085375
      4 C23         5.4370    0.5330    1.9040 c1        1 4G8     -0.085375
      5 C24         4.1220    0.1980    1.6220 c1        1 4G8     -0.085375
      6 C19         3.6320    0.3340    0.3320 c1        1 4G8     -0.061100
      7 C18         2.2280   -0.1300    0.0040 c3        1 4G8      0.098100
      8 N17         1.2840    0.7630    0.5840 n         1 4G8     -0.424800
      9 C25         1.4030    2.1650    0.3640 c3        1 4G8     -0.029000
     10 C26         0.0900    2.8420    0.7040 c         1 4G8      0.908600
     11 O27        -0.8150    2.9330   -0.1680 o         1 4G8     -0.856800
     12 O28        -0.0930    3.3200    1.8540 o         1 4G8     -0.856800
     13 C15         0.2460    0.2600    1.4090 c         1 4G8      0.729300
     14 O16         0.2690    0.4640    2.6060 o         1 4G8     -0.633100
     15 C9         -0.9120   -0.4970    0.7930 ce        1 4G8     -0.101700
     16 N8         -1.7410   -0.0340   -0.1470 ne        1 4G8     -0.530300
     17 C10        -1.3470   -1.7410    1.1630 c1        1 4G8      0.226500
     18 C12        -0.7440   -2.6070    2.2480 c1        1 4G8      0.855000
     19 O14        -0.8530   -2.2710    3.4560 o         1 4G8     -0.782500
     20 O13        -0.1330   -3.6650    1.9410 o         1 4G8     -0.782500
     21 N11        -2.4380   -2.0260    0.4470 nf        1 4G8     -0.605700
     22 C1         -2.6910   -0.9740   -0.3690 cf        1 4G8      0.420200
     23 C2         -3.7800   -0.8470   -1.2210 ch        1 4G8      0.024800
     24 C3         -4.9630   -0.2930   -0.7550 c1        1 4G8     -0.085375
     25 C4         -6.0460   -0.1540   -1.6090 c1        1 4G8     -0.085375
     26 C5         -5.9480   -0.5690   -2.9280 c1        1 4G8     -0.085375
     27 C6         -4.7660   -1.1230   -3.3930 c1        1 4G8     -0.085375
     28 C7         -3.6820   -1.2620   -2.5390 c1        1 4G8     -0.093500
     29 H20         4.1090    0.9200   -1.5800 ha        1 4G8      0.128500
     30 H21         6.3610    1.4540   -1.1080 ha        1 4G8      0.068000
     31 H22         7.1890    1.2400    1.0940 ha        1 4G8      0.068000
     32 H23         5.7880    0.4170    2.8080 ha        1 4G8      0.068000
     33 H24         3.5400   -0.1340    2.3320 ha        1 4G8      0.068000
     34 H181        2.0890   -1.0310    0.3640 h1        1 4G8      0.072700
     35 H182        2.1080   -0.1450   -0.9680 h1        1 4G8      0.072700
     36 H251        2.1130    2.5260    0.9340 h1        1 4G8      0.043700
     37 H252        1.6220    2.3300   -0.5760 h1        1 4G8      0.043700
     38 H11        -2.9310   -2.7920    0.5020 DU        1 4G8      0.256000
     39 H3         -5.0400   -0.0220    0.1800 ha        1 4G8      0.068000
     40 H7         -2.9240   -1.7020   -2.9730 ha        1 4G8      0.069500
     41 H4         -6.8740    0.2500   -1.2850 ha        1 4G8      0.068000
     42 H5         -6.7020   -0.4480   -3.5350 ha        1 4G8      0.068000
     43 H6         -4.7020   -1.4320   -4.3170 ha        1 4G8      0.068000
@<TRIPOS>BOND
     1    1    6 3   
     2    1   29 1   
     3    2    3 3   
     4    2   30 1   
     5    3   31 1   
     6    4    5 3   
     7    4   32 1   
     8    5   33 1   
     9    6    7 1   
    10    7    8 1   
    11    7   34 1   
    12    7   35 1   
    13    8    9 1   
    14    8   13 1   
    15    9   10 1   
    16    9   36 1   
    17    9   37 1   
    18   10   11 1   
    19   10   12 1   
    20   13   14 2   
    21   13   15 1   
    22   15   16 1   
    23   15   17 2   
    24   16   22 2   
    25   17   21 2   
    26   18   19 2   
    27   18   20 2   
    28   21   22 1   
    29   22   23 1   
    30   23   28 3   
    31   24   25 3   
    32   24   39 1   
    33   25   41 1   
    34   26   27 3   
    35   26   42 1   
    36   27   43 1   
    37   28   40 1   
@<TRIPOS>SUBSTRUCTURE
     1 4G8         1 TEMP              0 ****  ****    0 ROOT
