@<TRIPOS>MOLECULE
4G8
   44    46     1     0     0
SMALL
bcc


@<TRIPOS>ATOM
      1 C20        -0.2530   -0.4140   -0.3280 ca        1 4G8     -0.094500
      2 C21         1.0060    0.1420   -0.5560 ca        1 4G8     -0.149500
      3 C22         1.5900    0.9710    0.4000 ca        1 4G8     -0.123000
      4 C23         0.9160    1.2480    1.5900 ca        1 4G8     -0.149500
      5 C24        -0.3430    0.6980    1.8260 ca        1 4G8     -0.094500
      6 C19        -0.9300   -0.1360    0.8650 ca        1 4G8     -0.129300
      7 C18        -2.3130   -0.6610    1.0650 c3        1 4G8      0.154100
      8 N17        -2.4430   -1.8650    1.9530 n4        1 4G8     -0.554200
      9 C25        -1.8210   -1.6640    3.2890 c3        1 4G8     -0.055200
     10 C26        -2.5830   -0.5590    4.1060 c         1 4G8      0.917600
     11 O27        -1.8910    0.0800    4.9300 o         1 4G8     -0.797800
     12 O28        -3.8080   -0.4160    3.8500 o         1 4G8     -0.797800
     13 C15        -1.9560   -3.1300    1.2940 c         1 4G8      0.539600
     14 O16        -0.7540   -3.3420    1.2280 o         1 4G8     -0.446100
     15 C9         -3.0360   -4.0040    0.8330 cc        1 4G8      0.149800
     16 N8         -3.6570   -4.9290    1.6770 nc        1 4G8     -0.629000
     17 C10        -3.5610   -4.0910   -0.4840 cd        1 4G8     -0.135200
     18 C12        -3.2590   -3.2890   -1.7510 c         1 4G8      0.946200
     19 O14        -3.7460   -3.7230   -2.8220 o         1 4G8     -0.796300
     20 O13        -2.5620   -2.2530   -1.5960 o         1 4G8     -0.796300
     21 N11        -4.5060   -5.0970   -0.4310 na        1 4G8     -0.275900
     22 C1         -4.5490   -5.5910    0.8920 cd        1 4G8      0.416000
     23 C2         -5.4470   -6.6600    1.3190 ca        1 4G8     -0.102500
     24 C3         -5.8910   -6.7040    2.6480 ca        1 4G8     -0.110500
     25 C4         -6.7490   -7.7210    3.0620 ca        1 4G8     -0.135500
     26 C5         -7.1710   -8.6980    2.1600 ca        1 4G8     -0.133000
     27 C6         -6.7280   -8.6590    0.8390 ca        1 4G8     -0.135500
     28 C7         -5.8670   -7.6470    0.4160 ca        1 4G8     -0.110500
     29 H20        -0.7230   -1.0730   -1.0840 ha        1 4G8      0.181000
     30 H21         1.5360   -0.0790   -1.4940 ha        1 4G8      0.127500
     31 H22         2.5830    1.4070    0.2180 ha        1 4G8      0.117000
     32 H23         1.3760    1.8980    2.3480 ha        1 4G8      0.127500
     33 H24        -0.8740    0.9090    2.7740 ha        1 4G8      0.181000
     34 H181       -2.9460    0.1380    1.5570 hx        1 4G8      0.126200
     35 H182       -2.7580   -0.9480    0.0600 hx        1 4G8      0.126200
     36 H251       -0.7440   -1.3830    3.1630 hx        1 4G8      0.085200
     37 H252       -1.8890   -2.6290    3.8570 hx        1 4G8      0.085200
     38 H11        -5.0460   -5.3990   -1.2030 hn        1 4G8      0.322700
     39 H3         -5.5610   -5.9350    3.3650 ha        1 4G8      0.146000
     40 H7         -5.5130   -7.6410   -0.6260 ha        1 4G8      0.146000
     41 H4         -7.0940   -7.7510    4.1060 ha        1 4G8      0.128500
     42 H5         -7.8490   -9.4970    2.4900 ha        1 4G8      0.124000
     43 H6         -7.0540   -9.4300    0.1260 ha        1 4G8      0.128500
     44 H171       -3.4610   -1.9610    2.1340 hn        1 4G8      0.474800
@<TRIPOS>BOND
     1    1    2 ar  
     2    1    6 ar  
     3    1   29 1   
     4    2    3 ar  
     5    2   30 1   
     6    3    4 ar  
     7    3   31 1   
     8    4    5 ar  
     9    4   32 1   
    10    5    6 ar  
    11    5   33 1   
    12    6    7 1   
    13    7    8 1   
    14    7   34 1   
    15    7   35 1   
    16    8    9 1   
    17    8   13 1   
    18    8   44 1   
    19    9   10 1   
    20    9   36 1   
    21    9   37 1   
    22   10   11 1   
    23   10   12 1   
    24   13   14 2   
    25   13   15 1   
    26   15   16 1   
    27   15   17 2   
    28   16   22 2   
    29   17   18 1   
    30   17   21 1   
    31   18   19 1   
    32   18   20 1   
    33   21   22 1   
    34   21   38 1   
    35   22   23 1   
    36   23   24 ar  
    37   23   28 ar  
    38   24   25 ar  
    39   24   39 1   
    40   25   26 ar  
    41   25   41 1   
    42   26   27 ar  
    43   26   42 1   
    44   27   28 ar  
    45   27   43 1   
    46   28   40 1   
@<TRIPOS>SUBSTRUCTURE
     1 4G8         1 TEMP              0 ****  ****    0 ROOT
