@<TRIPOS>MOLECULE
4G8
   44    46     1     0     0
SMALL
bcc


@<TRIPOS>ATOM
      1 C20        -0.2550   -0.4040   -0.3140 ca        1 4G8     -0.094500
      2 C21         1.0040    0.1490   -0.5460 ca        1 4G8     -0.149500
      3 C22         1.6010    0.9630    0.4160 ca        1 4G8     -0.123000
      4 C23         0.9390    1.2250    1.6160 ca        1 4G8     -0.149500
      5 C24        -0.3200    0.6780    1.8560 ca        1 4G8     -0.094500
      6 C19        -0.9200   -0.1390    0.8890 ca        1 4G8     -0.129300
      7 C18        -2.3030   -0.6620    1.0940 c3        1 4G8      0.154100
      8 N17        -2.4310   -1.8770    1.9660 nx        1 4G8     -0.554200
      9 C25        -1.7960   -1.6980    3.2990 c3        1 4G8     -0.055200
     10 C26        -2.5460   -0.6010    4.1390 c         1 4G8      0.917600
     11 O27        -1.8430    0.0240    4.9650 o         1 4G8     -0.797800
     12 O28        -3.7720   -0.4490    3.8960 o         1 4G8     -0.797800
     13 C15        -1.9560   -3.1350    1.2850 c         1 4G8      0.539600
     14 O16        -0.7550   -3.3510    1.2050 o         1 4G8     -0.446100
     15 C9         -3.0440   -3.9980    0.8210 cc        1 4G8      0.149800
     16 N8         -3.6610   -4.9320    1.6580 nc        1 4G8     -0.629000
     17 C10        -3.5810   -4.0630   -0.4920 cd        1 4G8     -0.135200
     18 C12        -3.2880   -3.2450   -1.7490 c         1 4G8      0.946200
     19 O14        -3.7880   -3.6610   -2.8220 o         1 4G8     -0.796300
     20 O13        -2.5840   -2.2150   -1.5870 o         1 4G8     -0.796300
     21 N11        -4.5300   -5.0660   -0.4440 na        1 4G8     -0.275900
     22 C1         -4.5630   -5.5790    0.8720 cd        1 4G8      0.416000
     23 C2         -5.4620   -6.6510    1.2920 ca        1 4G8     -0.102500
     24 C3         -5.8940   -6.7110    2.6260 ca        1 4G8     -0.110500
     25 C4         -6.7520   -7.7310    3.0330 ca        1 4G8     -0.135500
     26 C5         -7.1860   -8.6930    2.1210 ca        1 4G8     -0.133000
     27 C6         -6.7550   -8.6370    0.7960 ca        1 4G8     -0.135500
     28 C7         -5.8940   -7.6230    0.3800 ca        1 4G8     -0.110500
     29 H20        -0.7350   -1.0500   -1.0750 ha        1 4G8      0.181000
     30 H21         1.5240   -0.0610   -1.4910 ha        1 4G8      0.127500
     31 H22         2.5940    1.3960    0.2310 ha        1 4G8      0.117000
     32 H23         1.4090    1.8630    2.3790 ha        1 4G8      0.127500
     33 H24        -0.8410    0.8780    2.8120 ha        1 4G8      0.181000
     34 H181       -2.9290    0.1330    1.6030 hx        1 4G8      0.126200
     35 H182       -2.7590   -0.9310    0.0890 hx        1 4G8      0.126200
     36 H251       -0.7190   -1.4190    3.1670 hx        1 4G8      0.085200
     37 H252       -1.8630   -2.6710    3.8540 hx        1 4G8      0.085200
     38 H11        -5.0790   -5.3550   -1.2150 hn        1 4G8      0.322700
     39 H3         -5.5530   -5.9540    3.3490 ha        1 4G8      0.146000
     40 H7         -5.5500   -7.6030   -0.6650 ha        1 4G8      0.146000
     41 H4         -7.0870   -7.7740    4.0800 ha        1 4G8      0.128500
     42 H5         -7.8650   -9.4940    2.4460 ha        1 4G8      0.124000
     43 H6         -7.0910   -9.3960    0.0750 ha        1 4G8      0.128500
     44 H171       -3.4470   -1.9720    2.1550 hn        1 4G8      0.474800
@<TRIPOS>BOND
     1    1    2 ar  
     2    1    6 ar  
     3    1   29 1   
     4    2    3 ar  
     5    2   30 1   
     6    3    4 ar  
     7    3   31 1   
     8    4    5 ar  
     9    4   32 1   
    10    5    6 ar  
    11    5   33 1   
    12    6    7 1   
    13    7    8 1   
    14    7   34 1   
    15    7   35 1   
    16    8    9 1   
    17    8   13 1   
    18    8   44 1   
    19    9   10 1   
    20    9   36 1   
    21    9   37 1   
    22   10   11 1   
    23   10   12 1   
    24   13   14 2   
    25   13   15 1   
    26   15   16 1   
    27   15   17 2   
    28   16   22 2   
    29   17   18 1   
    30   17   21 1   
    31   18   19 1   
    32   18   20 1   
    33   21   22 1   
    34   21   38 1   
    35   22   23 1   
    36   23   24 ar  
    37   23   28 ar  
    38   24   25 ar  
    39   24   39 1   
    40   25   26 ar  
    41   25   41 1   
    42   26   27 ar  
    43   26   42 1   
    44   27   28 ar  
    45   27   43 1   
    46   28   40 1   
@<TRIPOS>SUBSTRUCTURE
     1 4G8         1 TEMP              0 ****  ****    0 ROOT
