@<TRIPOS>MOLECULE
4GA
   35    32     1     0     0
SMALL
bcc


@<TRIPOS>ATOM
      1 CAA        -3.6230   -2.8490   -3.4600 c3        1 4GA     -0.084100
      2 OAB         3.8010    2.1030    4.2760 o         1 4GA     -0.836667
      3 OAC         3.9160    1.2900   -0.3700 o         1 4GA     -0.836667
      4 OAD         1.8240    2.3980    1.8230 oh        1 4GA     -0.577800
      5 OAE         1.5800    1.0880    4.5510 o         1 4GA     -0.836667
      6 OAF         3.5300   -0.3110    4.0110 o         1 4GA     -0.836667
      7 OAG         4.7770    2.7630    1.4270 o         1 4GA     -0.836667
      8 OAH         5.0920    0.3180    1.5730 o         1 4GA     -0.836667
      9 CAI        -1.6110    0.4520    0.6880 c1        1 4GA     -0.330300
     10 CAJ        -0.5770    0.5930    1.5620 c1        1 4GA     -0.179300
     11 CAK         0.2560    0.2800   -0.4290 c1        1 4GA     -0.492000
     12 CAL        -3.2440   -1.3670   -3.1840 c3        1 4GA     -0.066400
     13 CAM        -2.3370   -1.2900   -1.9470 c3        1 4GA     -0.126400
     14 CAN        -1.8450    0.1600   -1.7600 c3        1 4GA      0.050300
     15 CAO         1.7950    0.0430    1.4640 c3        1 4GA     -0.050700
     16 NAP        -1.0970    0.2590   -0.5360 n3        1 4GA     -0.107400
     17 NAQ         0.5700    0.4860    0.8690 n3        1 4GA     -0.065400
     18 CAR         2.5690    1.2560    2.0100 c3        1 4GA      0.764400
     19 PAS         2.8880    1.0240    3.7900 p5        1 4GA      1.086200
     20 PAT         4.1570    1.4120    1.1230 p5        1 4GA      1.086200
     21 HAA        -2.8290   -3.3410   -3.7440 hc        1 4GA      0.013367
     22 HAAA       -4.3060   -2.8870   -4.1730 hc        1 4GA      0.013367
     23 HAAB       -3.9790   -3.2490   -2.6510 hc        1 4GA      0.013367
     24 HOAD        2.2080    3.0790    2.2580 ho        1 4GA      0.566000
     25 HAI        -2.5470    0.4850    0.9090 DU        1 4GA      0.097000
     26 HAJ        -0.6560    0.7470    2.5320 DU        1 4GA      0.097000
     27 HAK         0.8850    0.1660   -1.1540 DU        1 4GA      0.097000
     28 HAL        -2.7690   -1.0030   -3.9600 hc        1 4GA      0.006200
     29 HALA       -4.0630   -0.8420   -3.0240 hc        1 4GA      0.006200
     30 HAM        -1.5720   -1.8780   -2.0700 hc        1 4GA      0.074200
     31 HAMA       -2.8480   -1.5730   -1.1430 hc        1 4GA      0.074200
     32 HAN        -2.6110    0.7600   -1.7220 h1        1 4GA     -0.023300
     33 HANA       -1.2660    0.4120   -2.5230 h1        1 4GA     -0.023300
     34 HAO         1.5980   -0.5700    2.1920 h1        1 4GA      0.049700
     35 HAOA        2.3350   -0.4120    0.7930 h1        1 4GA      0.049700
@<TRIPOS>BOND
     1    1   12 1   
     2    1   21 1   
     3    1   22 1   
     4    1   23 1   
     5    2   19 1   
     6    3   20 1   
     7    4   18 1   
     8    4   24 1   
     9    5   19 1   
    10    6   19 1   
    11    7   20 1   
    12    8   20 1   
    13    9   10 3   
    14    9   16 1   
    15   10   17 1   
    16   11   16 2   
    17   11   17 2   
    18   12   13 1   
    19   12   28 1   
    20   12   29 1   
    21   13   14 1   
    22   13   30 1   
    23   13   31 1   
    24   14   16 1   
    25   14   32 1   
    26   14   33 1   
    27   15   17 1   
    28   15   18 1   
    29   15   34 1   
    30   15   35 1   
    31   18   19 1   
    32   18   20 1   
@<TRIPOS>SUBSTRUCTURE
     1 4GA         1 TEMP              0 ****  ****    0 ROOT
