@<TRIPOS>MOLECULE
4GA
   35    33     1     0     0
SMALL
bcc


@<TRIPOS>ATOM
      1 CAA        -0.1830   -0.8800    1.6370 c3        1 4GA     -0.202000
      2 OAB         7.8870   -0.0020    7.3880 o         1 4GA     -1.156167
      3 OAC         6.0520    5.1750    7.2150 o         1 4GA     -1.156167
      4 OAD         6.8280    2.1070    6.5370 oh        1 4GA     -0.305000
      5 OAE         7.1830   -1.5580    5.5100 o         1 4GA     -1.156167
      6 OAF         5.5470   -0.9990    7.3990 o         1 4GA     -1.156167
      7 OAG         8.3790    4.8540    6.2580 o         1 4GA     -1.156167
      8 OAH         7.6730    3.5690    8.3560 o         1 4GA     -1.156167
      9 CAI         5.2870   -0.3090    1.8750 c2        1 4GA     -0.276000
     10 CAJ         5.4960   -0.1630    3.2200 c2        1 4GA     -0.125000
     11 CAK         4.2670    1.6590    2.5180 c2        1 4GA     -0.492000
     12 CAL         0.9070   -0.2820    0.7850 c3        1 4GA     -0.145000
     13 CAM         2.2120   -0.1680    1.5420 c3        1 4GA     -0.205000
     14 CAN         3.3220    0.4100    0.6660 c3        1 4GA     -0.009000
     15 CAO         5.5720    1.8530    4.5900 c3        1 4GA     -0.110000
     16 NAP         4.5550    0.8140    1.3200 na        1 4GA     -0.181000
     17 NAQ         4.7930    0.9820    3.7250 na        1 4GA     -0.139000
     18 CAR         6.2800    1.2120    5.7560 c1        1 4GA     -0.123000
     19 PAS         6.7800   -0.6780    6.6380 p3        1 4GA      2.452500
     20 PAT         7.3320    4.4360    7.2130 p3        1 4GA      2.452500
     21 HAA        -1.1470   -0.9360    1.0750 hc        1 4GA      0.052667
     22 HAAA       -0.3400   -0.2610    2.5530 hc        1 4GA      0.052667
     23 HAAB        0.0960   -1.9120    1.9620 hc        1 4GA      0.052667
     24 HOAD        7.3570    1.7010    7.3190 ho        1 4GA      0.365000
     25 HAI         5.5970   -1.1270    1.2280 h4        1 4GA      0.096000
     26 HAJ         6.0780   -0.7990    3.9080 h4        1 4GA      0.199000
     27 HAK         4.7580    2.6500    2.3400 h5        1 4GA     -0.004000
     28 HAL         1.0510   -0.9140   -0.1330 hc        1 4GA      0.045500
     29 HALA        0.5890    0.7350    0.4330 hc        1 4GA      0.045500
     30 HAM         2.5190   -1.1750    1.9230 hc        1 4GA      0.113500
     31 HAMA        2.1070    0.5120    2.4350 hc        1 4GA      0.113500
     32 HAN         2.9190    1.3340    0.1590 h1        1 4GA      0.016000
     33 HANA        3.5670   -0.3390   -0.1430 h1        1 4GA      0.016000
     34 HAO         4.8400    2.6140    4.9970 h1        1 4GA      0.089000
     35 HAOA        6.3620    2.4400    4.0240 h1        1 4GA      0.089000
@<TRIPOS>BOND
     1    1   12 1   
     2    1   21 1   
     3    1   22 1   
     4    1   23 1   
     5    2   19 1   
     6    3   20 1   
     7    4   18 1   
     8    4   24 1   
     9    5   19 1   
    10    6   19 1   
    11    7   20 1   
    12    8   20 1   
    13    9   10 1   
    14    9   16 1   
    15    9   25 1   
    16   10   17 1   
    17   10   26 1   
    18   11   16 1   
    19   11   17 1   
    20   11   27 1   
    21   12   13 1   
    22   12   28 1   
    23   12   29 1   
    24   13   14 1   
    25   13   30 1   
    26   13   31 1   
    27   14   16 1   
    28   14   32 1   
    29   14   33 1   
    30   15   17 1   
    31   15   18 1   
    32   15   34 1   
    33   15   35 1   
@<TRIPOS>SUBSTRUCTURE
     1 4GA         1 TEMP              0 ****  ****    0 ROOT
