@<TRIPOS>MOLECULE
4GA
   35    33     1     0     0
SMALL
bcc


@<TRIPOS>ATOM
      1 CAA         5.3930    0.2220    1.9860 c3        1 4GA     -0.066100
      2 OAB         1.4970   -0.8690    1.1040 o         1 4GA     -0.950500
      3 OAC        -2.9950    2.0050    2.6120 o         1 4GA     -0.926600
      4 OAD        -0.9950   -0.1570    1.8710 oh        1 4GA     -0.622100
      5 OAE         0.6930   -1.0360   -1.2350 o         1 4GA     -0.950500
      6 OAF         0.4590   -3.0650    0.2640 o         1 4GA     -0.950500
      7 OAG        -0.9280    1.4110    3.9840 o         1 4GA     -0.926600
      8 OAH        -3.0340   -0.0210    4.1230 o         1 4GA     -0.926600
      9 CAI         2.4370    0.0680   -3.3340 cc        1 4GA     -0.169600
     10 CAJ         2.9190    0.3430   -4.6390 cd        1 4GA      0.162200
     11 CAK         4.1870    1.4680   -3.2630 cc        1 4GA      0.292400
     12 CAL         4.1920    0.6610    1.1920 c3        1 4GA     -0.132400
     13 CAM         4.4230    0.5070   -0.2940 c3        1 4GA     -0.056400
     14 CAN         3.1280    0.8270   -1.0370 c3        1 4GA     -0.031700
     15 CAO        -2.1720   -1.2790    0.1720 c2        1 4GA     -0.329000
     16 NAP         3.2490    0.7880   -2.4720 na        1 4GA     -0.140900
     17 NAQ         4.0060    1.2120   -4.5830 nd        1 4GA     -0.737000
     18 CAR        -1.0140   -0.9700    0.7580 c2        1 4GA     -0.001500
     19 PAS         0.5090   -1.5630    0.1800 p5        1 4GA      1.238100
     20 PAT        -2.2460    1.0280    3.4360 p3        1 4GA      1.760800
     21 HAA         6.3040    0.8120    1.7140 hc        1 4GA      0.001700
     22 HAAA        5.2020    0.3570    3.0790 hc        1 4GA      0.001700
     23 HAAB        5.6110   -0.8580    1.8000 hc        1 4GA      0.001700
     24 HOAD       -0.0510   -0.0340    2.1250 ho        1 4GA      0.485000
     25 HAI         1.6040   -0.5500   -2.9260 h4        1 4GA      0.296000
     26 HAJ         2.5380   -0.0360   -5.5810 h4        1 4GA     -0.001900
     27 HAK         4.9540    2.1130   -2.8370 h5        1 4GA      0.022100
     28 HAL         3.2730    0.0460    1.4770 hc        1 4GA      0.107700
     29 HALA        3.9560    1.7310    1.4290 hc        1 4GA      0.107700
     30 HAM         5.2580    1.1800   -0.6310 hc        1 4GA      0.003200
     31 HAMA        4.7340   -0.5470   -0.5170 hc        1 4GA      0.003200
     32 HAN         2.2950    0.0770   -0.7100 h1        1 4GA      0.133700
     33 HANA        2.7840    1.8590   -0.7470 h1        1 4GA      0.133700
     34 HAO        -3.1570   -0.9350    0.4980 ha        1 4GA      0.082500
     35 HAOA       -2.1420   -1.9330   -0.7060 ha        1 4GA      0.082500
@<TRIPOS>BOND
     1    1   12 1   
     2    1   21 1   
     3    1   22 1   
     4    1   23 1   
     5    2   19 1   
     6    3   20 1   
     7    4   18 1   
     8    4   24 1   
     9    5   19 1   
    10    6   19 1   
    11    7   20 1   
    12    8   20 1   
    13    9   10 2   
    14    9   16 1   
    15    9   25 1   
    16   10   17 1   
    17   10   26 1   
    18   11   16 1   
    19   11   17 2   
    20   11   27 1   
    21   12   13 1   
    22   12   28 1   
    23   12   29 1   
    24   13   14 1   
    25   13   30 1   
    26   13   31 1   
    27   14   16 1   
    28   14   32 1   
    29   14   33 1   
    30   15   18 2   
    31   15   34 1   
    32   15   35 1   
    33   18   19 1   
@<TRIPOS>SUBSTRUCTURE
     1 4GA         1 TEMP              0 ****  ****    0 ROOT
