@<TRIPOS>MOLECULE
4GD
   38    41     1     0     0
SMALL
bcc


@<TRIPOS>ATOM
      1 N01         0.1540    0.2620    0.2720 ns        1 4GD     -0.466100
      2 C02         1.5440    0.4300    0.2510 c         1 4GD      0.728300
      3 O03         2.2050    0.5810    1.2900 o         1 4GD     -0.552100
      4 C04         2.1370    0.4340   -1.0870 cc        1 4GD     -0.343800
      5 C05         1.5650    0.9100   -2.3190 cc        1 4GD      0.408500
      6 N06         2.4330    0.7980   -3.3580 nd        1 4GD     -0.553100
      7 N07         3.5580    0.2590   -2.8560 na        1 4GD      0.040200
      8 C08         3.4480    0.0020   -1.4290 cd        1 4GD      0.417500
      9 N09         4.4690   -0.5590   -0.6960 nd        1 4GD     -0.605000
     10 C10         5.5800   -0.8450   -1.3530 cc        1 4GD      0.440200
     11 C11         5.7690   -0.6120   -2.7590 cc        1 4GD     -0.301300
     12 C12         4.7440   -0.0600   -3.4970 cd        1 4GD      0.002700
     13 C13        -0.5940    0.2090    1.4440 cc        1 4GD      0.048300
     14 C14        -0.1780    0.2150    2.7900 cd        1 4GD     -0.302300
     15 C15        -1.4010    0.1310    3.5620 cd        1 4GD      0.329600
     16 N16        -2.4830    0.0700    2.7400 nc        1 4GD     -0.507800
     17 N17        -2.0260    0.1570    1.4730 na        1 4GD      0.117300
     18 C18        -1.4580    0.1270    5.0360 c3        1 4GD     -0.122400
     19 C19        -2.8540   -0.0230    0.3310 ca        1 4GD      0.023800
     20 C20        -3.8170   -1.0520    0.2960 ca        1 4GD     -0.136000
     21 C21        -4.6190   -1.2100   -0.8320 ca        1 4GD     -0.121000
     22 C22        -4.4790   -0.3620   -1.9280 ca        1 4GD     -0.132000
     23 C23        -3.5370    0.6650   -1.8910 ca        1 4GD     -0.121000
     24 C24        -2.7310    0.8490   -0.7710 ca        1 4GD     -0.136000
     25 H1         -0.3130    0.0510   -0.5830 hn        1 4GD      0.325500
     26 H2          0.5690    1.3370   -2.4640 h4        1 4GD      0.059800
     27 H3          6.3990   -1.2930   -0.7590 h4        1 4GD      0.043100
     28 H4          6.7210   -0.8730   -3.2360 ha        1 4GD      0.168000
     29 H5          4.8070    0.1470   -4.5810 h4        1 4GD      0.186000
     30 H6          0.8410    0.2760    3.1610 ha        1 4GD      0.194000
     31 H7         -2.2150   -0.6050    5.4140 hc        1 4GD      0.050700
     32 H8         -1.7350    1.1440    5.4110 hc        1 4GD      0.050700
     33 H9         -0.4560   -0.1460    5.4480 hc        1 4GD      0.050700
     34 H10        -3.9460   -1.7260    1.1580 ha        1 4GD      0.151000
     35 H11        -5.3700   -2.0150   -0.8510 ha        1 4GD      0.137500
     36 H12        -5.1140   -0.4960   -2.8160 ha        1 4GD      0.137000
     37 H13        -3.4350    1.3480   -2.7480 ha        1 4GD      0.137500
     38 H14        -2.0230    1.6920   -0.7450 ha        1 4GD      0.151000
@<TRIPOS>BOND
     1    1    2 1   
     2    1   13 1   
     3    1   25 1   
     4    2    3 2   
     5    2    4 1   
     6    4    5 1   
     7    4    8 2   
     8    5    6 2   
     9    5   26 1   
    10    6    7 1   
    11    7    8 1   
    12    7   12 1   
    13    8    9 1   
    14    9   10 2   
    15   10   11 1   
    16   10   27 1   
    17   11   12 2   
    18   11   28 1   
    19   12   29 1   
    20   13   14 2   
    21   13   17 1   
    22   14   15 1   
    23   14   30 1   
    24   15   16 2   
    25   15   18 1   
    26   16   17 1   
    27   17   19 1   
    28   18   31 1   
    29   18   32 1   
    30   18   33 1   
    31   19   20 ar  
    32   19   24 ar  
    33   20   21 ar  
    34   20   34 1   
    35   21   22 ar  
    36   21   35 1   
    37   22   23 ar  
    38   22   36 1   
    39   23   24 ar  
    40   23   37 1   
    41   24   38 1   
@<TRIPOS>SUBSTRUCTURE
     1 4GD         1 TEMP              0 ****  ****    0 ROOT
