@<TRIPOS>MOLECULE
4GD
   38    41     1     0     0
SMALL
bcc


@<TRIPOS>ATOM
      1 N01         0.1530    0.2600    0.2730 n         1 4GD     -0.466100
      2 C02         1.5430    0.4300    0.2520 c         1 4GD      0.728300
      3 O03         2.2040    0.5790    1.2920 o         1 4GD     -0.552100
      4 C04         2.1380    0.4370   -1.0850 cc        1 4GD     -0.343800
      5 C05         1.5650    0.9160   -2.3160 cc        1 4GD      0.408500
      6 N06         2.4340    0.8070   -3.3550 nd        1 4GD     -0.553100
      7 N07         3.5590    0.2680   -2.8530 na        1 4GD      0.040200
      8 C08         3.4490    0.0070   -1.4270 cd        1 4GD      0.417500
      9 N09         4.4700   -0.5550   -0.6950 nd        1 4GD     -0.605000
     10 C10         5.5810   -0.8400   -1.3530 cc        1 4GD      0.440200
     11 C11         5.7700   -0.6030   -2.7580 cc        1 4GD     -0.301300
     12 C12         4.7450   -0.0490   -3.4950 cd        1 4GD      0.002700
     13 C13        -0.5950    0.2050    1.4450 cc        1 4GD      0.048300
     14 C14        -0.1790    0.2080    2.7910 cd        1 4GD     -0.302300
     15 C15        -1.4020    0.1210    3.5620 cd        1 4GD      0.329600
     16 N16        -2.4840    0.0630    2.7390 nc        1 4GD     -0.507800
     17 N17        -2.0260    0.1520    1.4730 na        1 4GD      0.117300
     18 C18        -1.4610    0.1140    5.0360 c3        1 4GD     -0.122400
     19 C19        -2.8540   -0.0250    0.3300 ca        1 4GD      0.023800
     20 C20        -3.8170   -1.0550    0.2920 ca        1 4GD     -0.136000
     21 C21        -4.6190   -1.2100   -0.8360 ca        1 4GD     -0.121000
     22 C22        -4.4780   -0.3590   -1.9310 ca        1 4GD     -0.132000
     23 C23        -3.5360    0.6680   -1.8920 ca        1 4GD     -0.121000
     24 C24        -2.7310    0.8490   -0.7710 ca        1 4GD     -0.136000
     25 H1         -0.3120    0.0520   -0.5830 hn        1 4GD      0.325500
     26 H2          0.5690    1.3430   -2.4610 h4        1 4GD      0.059800
     27 H3          6.4000   -1.2890   -0.7590 h4        1 4GD      0.043100
     28 H4          6.7230   -0.8630   -3.2360 ha        1 4GD      0.168000
     29 H5          4.8090    0.1600   -4.5780 h4        1 4GD      0.186000
     30 H6          0.8390    0.2680    3.1620 ha        1 4GD      0.194000
     31 H7         -2.2170   -0.6180    5.4120 hc        1 4GD      0.050700
     32 H8         -0.4580   -0.1590    5.4480 hc        1 4GD      0.050700
     33 H9         -1.7380    1.1310    5.4130 hc        1 4GD      0.050700
     34 H10        -3.9470   -1.7300    1.1530 ha        1 4GD      0.151000
     35 H11        -5.3700   -2.0150   -0.8580 ha        1 4GD      0.137500
     36 H12        -5.1120   -0.4920   -2.8190 ha        1 4GD      0.137000
     37 H13        -3.4340    1.3530   -2.7470 ha        1 4GD      0.137500
     38 H14        -2.0230    1.6920   -0.7430 ha        1 4GD      0.151000
@<TRIPOS>BOND
     1    1    2 1   
     2    1   13 1   
     3    1   25 1   
     4    2    3 2   
     5    2    4 1   
     6    4    5 1   
     7    4    8 2   
     8    5    6 2   
     9    5   26 1   
    10    6    7 1   
    11    7    8 1   
    12    7   12 1   
    13    8    9 1   
    14    9   10 2   
    15   10   11 1   
    16   10   27 1   
    17   11   12 2   
    18   11   28 1   
    19   12   29 1   
    20   13   14 2   
    21   13   17 1   
    22   14   15 1   
    23   14   30 1   
    24   15   16 2   
    25   15   18 1   
    26   16   17 1   
    27   17   19 1   
    28   18   31 1   
    29   18   32 1   
    30   18   33 1   
    31   19   20 ar  
    32   19   24 ar  
    33   20   21 ar  
    34   20   34 1   
    35   21   22 ar  
    36   21   35 1   
    37   22   23 ar  
    38   22   36 1   
    39   23   24 ar  
    40   23   37 1   
    41   24   38 1   
@<TRIPOS>SUBSTRUCTURE
     1 4GD         1 TEMP              0 ****  ****    0 ROOT
