@<TRIPOS>MOLECULE
4GE
   42    44     1     0     0
SMALL
bcc


@<TRIPOS>ATOM
      1 C5         -0.0840   -0.8110   -0.0630 ca        1 4GE     -0.082000
      2 C6          1.3020   -0.9890   -0.1100 ca        1 4GE      0.013400
      3 CL1         2.0020   -1.7470   -1.4590 cl        1 4GE     -0.078400
      4 C1          2.1170   -0.5510    0.9390 ca        1 4GE     -0.108000
      5 C2          1.5360    0.0740    2.0410 ca        1 4GE     -0.120000
      6 C3          0.1570    0.2610    2.1030 ca        1 4GE     -0.119000
      7 C4         -0.6560   -0.1850    1.0520 ca        1 4GE     -0.127500
      8 C7         -2.1060    0.0010    1.1000 cc        1 4GE      0.483000
      9 N8         -2.8400   -0.0180    2.3020 na        1 4GE     -0.280900
     10 N11        -2.9280    0.2200    0.0420 nd        1 4GE     -0.653000
     11 C10        -4.2190    0.3410    0.5670 cd        1 4GE      0.240800
     12 C13        -5.4080    0.5640   -0.2600 c         1 4GE      0.575600
     13 O15        -6.5460    0.7980    0.1540 o         1 4GE     -0.505000
     14 O14        -5.3230    0.5280   -1.6190 oh        1 4GE     -0.569100
     15 C9         -4.1760    0.1960    1.9780 cc        1 4GE     -0.157200
     16 C16        -5.2320    0.1220    3.0280 c         1 4GE      0.695700
     17 O18        -5.2910   -0.9050    3.7400 o         1 4GE     -0.608100
     18 N17        -6.0800    1.1870    3.2140 n         1 4GE     -0.435800
     19 C21        -5.9740    2.4290    2.5020 c3        1 4GE      0.075300
     20 C19        -7.1810    1.0670    4.1530 c3        1 4GE      0.137300
     21 C20        -6.8850    1.6270    5.5160 ca        1 4GE     -0.115300
     22 C22        -7.3590    2.8890    5.8840 ca        1 4GE     -0.115000
     23 C23        -7.1080    3.3830    7.1640 ca        1 4GE     -0.135000
     24 C24        -6.3780    2.6220    8.0760 ca        1 4GE     -0.123000
     25 C25        -5.8980    1.3640    7.7090 ca        1 4GE     -0.135000
     26 C26        -6.1490    0.8660    6.4310 ca        1 4GE     -0.115000
     27 H5         -0.7190   -1.1560   -0.8950 ha        1 4GE      0.169000
     28 H1          3.2080   -0.6950    0.8950 ha        1 4GE      0.154000
     29 H2          2.1730    0.4260    2.8670 ha        1 4GE      0.145000
     30 H3         -0.2810    0.7720    2.9740 ha        1 4GE      0.136000
     31 H8         -2.4960   -0.2430    3.2020 hn        1 4GE      0.325700
     32 H211       -4.9850    2.5060    1.9780 h1        1 4GE      0.052700
     33 H212       -6.7930    2.5020    1.7330 h1        1 4GE      0.052700
     34 H213       -6.0720    3.2790    3.2300 h1        1 4GE      0.052700
     35 H191       -8.0700    1.6030    3.7100 h1        1 4GE      0.074200
     36 H192       -7.4440   -0.0270    4.2610 h1        1 4GE      0.074200
     37 H22        -7.9360    3.4910    5.1660 ha        1 4GE      0.142000
     38 H26        -5.7730   -0.1260    6.1300 ha        1 4GE      0.142000
     39 H23        -7.4870    4.3740    7.4520 ha        1 4GE      0.132500
     40 H24        -6.1820    3.0120    9.0860 ha        1 4GE      0.131000
     41 H25        -5.3240    0.7620    8.4280 ha        1 4GE      0.132500
     42 H171       -4.4200    0.3430   -1.9120 ho        1 4GE      0.449000
@<TRIPOS>BOND
     1    1    2 ar  
     2    1    7 ar  
     3    1   27 1   
     4    2    3 1   
     5    2    4 ar  
     6    4    5 ar  
     7    4   28 1   
     8    5    6 ar  
     9    5   29 1   
    10    6    7 ar  
    11    6   30 1   
    12    7    8 1   
    13    8    9 1   
    14    8   10 2   
    15    9   15 1   
    16    9   31 1   
    17   10   11 1   
    18   11   12 1   
    19   11   15 2   
    20   12   13 2   
    21   12   14 1   
    22   14   42 1   
    23   15   16 1   
    24   16   17 2   
    25   16   18 1   
    26   18   19 1   
    27   18   20 1   
    28   19   32 1   
    29   19   33 1   
    30   19   34 1   
    31   20   21 1   
    32   20   35 1   
    33   20   36 1   
    34   21   22 ar  
    35   21   26 ar  
    36   22   23 ar  
    37   22   37 1   
    38   23   24 ar  
    39   23   39 1   
    40   24   25 ar  
    41   24   40 1   
    42   25   26 ar  
    43   25   41 1   
    44   26   38 1   
@<TRIPOS>SUBSTRUCTURE
     1 4GE         1 TEMP              0 ****  ****    0 ROOT
