@<TRIPOS>MOLECULE
4GE
   41    43     1     0     0
SMALL
bcc


@<TRIPOS>ATOM
      1 C5         -4.4600    0.0140   -0.1850 ca        1 4GE     -0.089000
      2 C6         -5.6730    0.6710   -0.3990 ca        1 4GE      0.014400
      3 CL1        -7.1330   -0.2060   -0.3060 cl        1 4GE     -0.113400
      4 C1         -5.7150    2.0380   -0.6900 ca        1 4GE     -0.140000
      5 C2         -4.5200    2.7510   -0.7600 ca        1 4GE     -0.129000
      6 C3         -3.3000    2.1120   -0.5480 ca        1 4GE     -0.137000
      7 C4         -3.2600    0.7400   -0.2640 ca        1 4GE     -0.077500
      8 C7         -1.9940    0.0480   -0.0460 cc        1 4GE      0.416000
      9 N8         -0.7610    0.5380   -0.4890 na        1 4GE     -0.288900
     10 N11        -1.8290   -1.1340    0.6280 nd        1 4GE     -0.647000
     11 C10        -0.4750   -1.4240    0.6030 cd        1 4GE      0.369800
     12 C13         0.1100   -2.6890    1.2330 c         1 4GE      0.834100
     13 O15         0.1760   -2.7250    2.4900 o         1 4GE     -0.806800
     14 O14         0.5120   -3.5840    0.4470 o         1 4GE     -0.806800
     15 C9          0.2150   -0.3940   -0.0980 cc        1 4GE     -0.286200
     16 C16         1.6060   -0.1990   -0.5460 c         1 4GE      0.723700
     17 O18         1.8290    0.4080   -1.6280 o         1 4GE     -0.685100
     18 N17         2.6700   -0.6400    0.2160 n         1 4GE     -0.445800
     19 C21         2.5410   -1.1660    1.5470 c3        1 4GE      0.063300
     20 C19         3.9880   -0.6930   -0.3730 c3        1 4GE      0.139300
     21 C20         4.8700    0.4820   -0.0420 ca        1 4GE     -0.092300
     22 C22         5.9690    0.3310    0.8080 ca        1 4GE     -0.116000
     23 C23         6.8000    1.4190    1.0770 ca        1 4GE     -0.142000
     24 C24         6.5340    2.6610    0.5030 ca        1 4GE     -0.140000
     25 C25         5.4330    2.8170   -0.3400 ca        1 4GE     -0.142000
     26 C26         4.6010    1.7320   -0.6120 ca        1 4GE     -0.116000
     27 H5         -4.4380   -1.0630    0.0500 ha        1 4GE      0.181000
     28 H1         -6.6760    2.5450   -0.8580 ha        1 4GE      0.136000
     29 H2         -4.5410    3.8280   -0.9830 ha        1 4GE      0.127000
     30 H3         -2.3730    2.7020   -0.5930 ha        1 4GE      0.132000
     31 H8         -0.6020    1.2860   -1.1100 hn        1 4GE      0.299700
     32 H211        2.5200   -2.2920    1.5300 h1        1 4GE      0.061700
     33 H212        3.4150   -0.8180    2.1600 h1        1 4GE      0.061700
     34 H213        1.5890   -0.8090    2.0260 h1        1 4GE      0.061700
     35 H191        4.4900   -1.6420   -0.0250 h1        1 4GE      0.063200
     36 H192        3.8840   -0.7400   -1.4980 h1        1 4GE      0.063200
     37 H22         6.1750   -0.6460    1.2690 ha        1 4GE      0.147000
     38 H26         3.7230    1.8390   -1.2720 ha        1 4GE      0.147000
     39 H23         7.6640    1.2950    1.7450 ha        1 4GE      0.121000
     40 H24         7.1890    3.5180    0.7170 ha        1 4GE      0.117000
     41 H25         5.2180    3.7970   -0.7880 ha        1 4GE      0.121000
@<TRIPOS>BOND
     1    1    2 ar  
     2    1    7 ar  
     3    1   27 1   
     4    2    3 1   
     5    2    4 ar  
     6    4    5 ar  
     7    4   28 1   
     8    5    6 ar  
     9    5   29 1   
    10    6    7 ar  
    11    6   30 1   
    12    7    8 1   
    13    8    9 1   
    14    8   10 2   
    15    9   15 1   
    16    9   31 1   
    17   10   11 1   
    18   11   12 1   
    19   11   15 2   
    20   12   13 1   
    21   12   14 1   
    22   15   16 1   
    23   16   17 2   
    24   16   18 1   
    25   18   19 1   
    26   18   20 1   
    27   19   32 1   
    28   19   33 1   
    29   19   34 1   
    30   20   21 1   
    31   20   35 1   
    32   20   36 1   
    33   21   22 ar  
    34   21   26 ar  
    35   22   23 ar  
    36   22   37 1   
    37   23   24 ar  
    38   23   39 1   
    39   24   25 ar  
    40   24   40 1   
    41   25   26 ar  
    42   25   41 1   
    43   26   38 1   
@<TRIPOS>SUBSTRUCTURE
     1 4GE         1 TEMP              0 ****  ****    0 ROOT
