@<TRIPOS>MOLECULE
4GE
   41    34     1     0     0
SMALL
bcc


@<TRIPOS>ATOM
      1 C5          3.1560    1.2560   -3.4680 c1        1 4GE     -0.089000
      2 C6          3.6040    1.2140   -4.7880 c1        1 4GE     -0.065000
      3 CL1         3.7460    2.6890   -5.7040 cl        1 4GE     -0.034000
      4 C1          3.8000   -0.0200   -5.4200 c1        1 4GE     -0.138000
      5 C2          3.5460   -1.2100   -4.7270 c1        1 4GE     -0.133750
      6 C3          3.0950   -1.1660   -3.3980 c1        1 4GE     -0.133750
      7 C4          2.9000    0.0570   -2.7700 c1        1 4GE      0.029000
      8 C7          2.4580    0.0990   -1.4270 c1        1 4GE     -0.046000
      9 N8          1.1590    0.1220   -1.0120 n2        1 4GE     -0.145000
     10 N11         3.2420    0.0940   -0.3380 n2        1 4GE     -0.145000
     11 C10         2.4520    0.1130    0.7430 c1        1 4GE     -0.116000
     12 C13         2.9070    0.2460    2.1490 c1        1 4GE      0.394000
     13 O15         2.8000    1.3250    2.7320 o         1 4GE     -0.544500
     14 O14         3.4360   -0.7280    2.7300 o         1 4GE     -0.544500
     15 C9          1.1520    0.1300    0.3150 c1        1 4GE     -0.116000
     16 C16        -0.0980    0.2440    1.2160 c1        1 4GE      0.393000
     17 O18         0.0270    0.2390    2.4490 o         1 4GE     -0.426000
     18 N17        -1.4240    0.4010    0.6150 n3        1 4GE     -0.305000
     19 C21        -1.7870    1.6860   -0.0790 c3        1 4GE     -0.096000
     20 C19        -2.3860   -0.6570    0.7170 c3        1 4GE      0.013000
     21 C20        -2.9980   -0.6520    2.0910 c2        1 4GE     -0.099000
     22 C22        -3.8890    0.3500    2.4510 c2        1 4GE     -0.143000
     23 C23        -4.5530    0.2830    3.6790 c1        1 4GE     -0.148000
     24 C24        -4.3200   -0.7900    4.5410 c1        1 4GE     -0.133750
     25 C25        -3.4240   -1.7950    4.1770 c1        1 4GE     -0.133750
     26 C26        -2.7650   -1.7290    2.9580 c1        1 4GE     -0.102000
     27 H5          3.0240    2.0810   -3.0450 ha        1 4GE      0.181000
     28 H1          4.1120   -0.0500   -6.3410 ha        1 4GE      0.136000
     29 H2          3.7420   -2.0270   -5.1230 ha        1 4GE      0.128250
     30 H3          2.9140   -2.0130   -2.9050 ha        1 4GE      0.128250
     31 H8          0.4110    0.1300   -1.5620 DU        1 4GE      0.250000
     32 H211       -0.9690    2.2560   -0.1750 h1        1 4GE      0.099333
     33 H212       -2.4600    2.1670    0.4510 h1        1 4GE      0.099333
     34 H213       -2.1630    1.4800   -0.9940 h1        1 4GE      0.099333
     35 H191       -3.1050   -0.5240    0.0280 h1        1 4GE      0.098500
     36 H192       -1.9350   -1.5320    0.5600 h1        1 4GE      0.098500
     37 H22        -4.1220    1.0430    1.8130 ha        1 4GE      0.114000
     38 H26        -2.1170   -2.4570    2.6960 ha        1 4GE      0.209000
     39 H23        -5.1930    1.0000    3.9400 ha        1 4GE      0.112000
     40 H24        -4.7820   -0.8370    5.3950 ha        1 4GE      0.128250
     41 H25        -3.1900   -2.5180    4.8330 ha        1 4GE      0.128250
@<TRIPOS>BOND
     1    1    7 1   
     2    1   27 1   
     3    2    3 1   
     4    2    4 1   
     5    4   28 1   
     6    5    6 1   
     7    5   29 1   
     8    6   30 1   
     9    8    9 1   
    10    8   10 1   
    11    9   15 1   
    12   10   11 1   
    13   11   15 1   
    14   12   13 1   
    15   12   14 1   
    16   16   17 1   
    17   16   18 1   
    18   18   19 1   
    19   18   20 1   
    20   19   32 1   
    21   19   33 1   
    22   19   34 1   
    23   20   21 1   
    24   20   35 1   
    25   20   36 1   
    26   21   22 1   
    27   21   26 1   
    28   22   23 1   
    29   22   37 1   
    30   23   39 1   
    31   24   25 1   
    32   24   40 1   
    33   25   41 1   
    34   26   38 1   
@<TRIPOS>SUBSTRUCTURE
     1 4GE         1 TEMP              0 ****  ****    0 ROOT
