@<TRIPOS>MOLECULE
4GE
   42    44     1     0     0
SMALL
bcc


@<TRIPOS>ATOM
      1 C5         -0.0880   -0.8130   -0.0660 ca        1 4GE     -0.082000
      2 C6          1.2990   -0.9860   -0.1180 ca        1 4GE      0.013400
      3 CL1         1.9960   -1.7500   -1.4640 cl        1 4GE     -0.078400
      4 C1          2.1150   -0.5380    0.9250 ca        1 4GE     -0.108000
      5 C2          1.5360    0.0910    2.0260 ca        1 4GE     -0.120000
      6 C3          0.1560    0.2730    2.0920 ca        1 4GE     -0.119000
      7 C4         -0.6580   -0.1830    1.0470 ca        1 4GE     -0.127500
      8 C7         -2.1090   -0.0010    1.1000 cc        1 4GE      0.483000
      9 N8         -2.8380   -0.0150    2.3050 na        1 4GE     -0.280900
     10 N11        -2.9360    0.2070    0.0430 nd        1 4GE     -0.653000
     11 C10        -4.2260    0.3260    0.5730 cd        1 4GE      0.240800
     12 C13        -5.4180    0.5390   -0.2520 c         1 4GE      0.575600
     13 O15        -6.5560    0.7700    0.1650 o         1 4GE     -0.505000
     14 O14        -5.3390    0.4940   -1.6110 oh        1 4GE     -0.569100
     15 C9         -4.1760    0.1910    1.9840 cc        1 4GE     -0.157200
     16 C16        -5.2280    0.1200    3.0390 c         1 4GE      0.695700
     17 O18        -5.2800   -0.9020    3.7580 o         1 4GE     -0.608100
     18 N17        -6.0810    1.1820    3.2200 n         1 4GE     -0.435800
     19 C21        -5.9830    2.4190    2.4980 c3        1 4GE      0.075300
     20 C19        -7.1770    1.0650    4.1640 c3        1 4GE      0.137300
     21 C20        -6.8790    1.6360    5.5220 ca        1 4GE     -0.115300
     22 C22        -7.3580    2.8980    5.8820 ca        1 4GE     -0.115000
     23 C23        -7.1040    3.4040    7.1570 ca        1 4GE     -0.135000
     24 C24        -6.3670    2.6530    8.0730 ca        1 4GE     -0.123000
     25 C25        -5.8830    1.3950    7.7130 ca        1 4GE     -0.135000
     26 C26        -6.1360    0.8860    6.4400 ca        1 4GE     -0.115000
     27 H5         -0.7250   -1.1660   -0.8930 ha        1 4GE      0.169000
     28 H1          3.2060   -0.6790    0.8780 ha        1 4GE      0.154000
     29 H2          2.1750    0.4500    2.8470 ha        1 4GE      0.145000
     30 H3         -0.2800    0.7880    2.9610 ha        1 4GE      0.136000
     31 H8         -2.4900   -0.2330    3.2040 hn        1 4GE      0.325700
     32 H211       -6.0810    3.2740    3.2210 h1        1 4GE      0.052700
     33 H212       -6.8060    2.4840    1.7330 h1        1 4GE      0.052700
     34 H213       -4.9970    2.4970    1.9700 h1        1 4GE      0.052700
     35 H191       -7.4340   -0.0300    4.2810 h1        1 4GE      0.074200
     36 H192       -8.0700    1.5920    3.7210 h1        1 4GE      0.074200
     37 H22        -7.9390    3.4920    5.1610 ha        1 4GE      0.142000
     38 H26        -5.7560   -0.1060    6.1450 ha        1 4GE      0.142000
     39 H23        -7.4860    4.3950    7.4390 ha        1 4GE      0.132500
     40 H24        -6.1690    3.0520    9.0780 ha        1 4GE      0.131000
     41 H25        -5.3030    0.8010    8.4350 ha        1 4GE      0.132500
     42 H171       -4.4350    0.3110   -1.9060 ho        1 4GE      0.449000
@<TRIPOS>BOND
     1    1    2 ar  
     2    1    7 ar  
     3    1   27 1   
     4    2    3 1   
     5    2    4 ar  
     6    4    5 ar  
     7    4   28 1   
     8    5    6 ar  
     9    5   29 1   
    10    6    7 ar  
    11    6   30 1   
    12    7    8 1   
    13    8    9 1   
    14    8   10 2   
    15    9   15 1   
    16    9   31 1   
    17   10   11 1   
    18   11   12 1   
    19   11   15 2   
    20   12   13 2   
    21   12   14 1   
    22   14   42 1   
    23   15   16 1   
    24   16   17 2   
    25   16   18 1   
    26   18   19 1   
    27   18   20 1   
    28   19   32 1   
    29   19   33 1   
    30   19   34 1   
    31   20   21 1   
    32   20   35 1   
    33   20   36 1   
    34   21   22 ar  
    35   21   26 ar  
    36   22   23 ar  
    37   22   37 1   
    38   23   24 ar  
    39   23   39 1   
    40   24   25 ar  
    41   24   40 1   
    42   25   26 ar  
    43   25   41 1   
    44   26   38 1   
@<TRIPOS>SUBSTRUCTURE
     1 4GE         1 TEMP              0 ****  ****    0 ROOT
