@<TRIPOS>MOLECULE
4GE
   42    44     1     0     0
SMALL
bcc


@<TRIPOS>ATOM
      1 C5          0.0120    0.2050    0.0440 ca        1 4GE     -0.082000
      2 C6          1.3990    0.0450   -0.0170 ca        1 4GE      0.012400
      3 Cl1         2.2660    0.7510   -1.2960 cl        1 4GE     -0.078400
      4 C1          2.0800   -0.6880    0.9610 ca        1 4GE     -0.108000
      5 C2          1.3610   -1.2670    2.0050 ca        1 4GE     -0.121000
      6 C3         -0.0220   -1.1190    2.0810 ca        1 4GE     -0.117000
      7 C4         -0.6970   -0.3770    1.1020 ca        1 4GE     -0.128500
      8 C7         -2.1500   -0.2120    1.1670 cc        1 4GE      0.482000
      9 N8         -2.8500   -0.0860    2.3820 na        1 4GE     -0.279900
     10 N11        -3.0040   -0.1440    0.1140 nd        1 4GE     -0.652000
     11 C10        -4.2820    0.0240    0.6560 cd        1 4GE      0.239800
     12 C13        -5.4960    0.1160   -0.1590 c         1 4GE      0.576600
     13 O15        -6.6130    0.4590    0.2380 o         1 4GE     -0.506000
     14 O14        -5.4630   -0.1880   -1.4860 oh        1 4GE     -0.569100
     15 C9         -4.1970    0.0660    2.0720 cc        1 4GE     -0.158200
     16 C16        -5.2230    0.1110    3.1540 c         1 4GE      0.695700
     17 O18        -5.2470   -0.8220    3.9880 o         1 4GE     -0.610100
     18 N17        -6.0850    1.1780    3.2290 n         1 4GE     -0.435800
     19 C21        -6.0130    2.3270    2.3710 c3        1 4GE      0.075300
     20 C19        -7.1530    1.1650    4.2120 c3        1 4GE      0.136300
     21 C20        -6.8240    1.8930    5.4850 ca        1 4GE     -0.115300
     22 C22        -7.3040    3.1860    5.7080 ca        1 4GE     -0.115000
     23 C23        -7.0200    3.8380    6.9080 ca        1 4GE     -0.134500
     24 C24        -6.2520    3.2030    7.8840 ca        1 4GE     -0.123000
     25 C25        -5.7670    1.9150    7.6600 ca        1 4GE     -0.134500
     26 C26        -6.0500    1.2590    6.4630 ca        1 4GE     -0.115000
     27 H5         -0.5190    0.7790   -0.7320 ha        1 4GE      0.169000
     28 H1          3.1730   -0.8090    0.9060 ha        1 4GE      0.154000
     29 H2          1.8910   -1.8510    2.7730 ha        1 4GE      0.145000
     30 H3         -0.5740   -1.6010    2.9010 ha        1 4GE      0.138000
     31 H8         -2.4730   -0.1620    3.2930 hn        1 4GE      0.324700
     32 H211       -6.0760    3.2580    2.9980 h1        1 4GE      0.053033
     33 H212       -6.8690    2.3140    1.6400 h1        1 4GE      0.053033
     34 H213       -5.0530    2.3370    1.7940 h1        1 4GE      0.053033
     35 H191       -7.3970    0.0900    4.4620 h1        1 4GE      0.074200
     36 H192       -8.0630    1.6330    3.7350 h1        1 4GE      0.074200
     37 H22        -7.9100    3.6880    4.9400 ha        1 4GE      0.142000
     38 H26        -5.6690    0.2420    6.2750 ha        1 4GE      0.142000
     39 H23        -7.4040    4.8540    7.0840 ha        1 4GE      0.132500
     40 H24        -6.0310    3.7180    8.8300 ha        1 4GE      0.131000
     41 H25        -5.1620    1.4130    8.4300 ha        1 4GE      0.132500
     42 H171       -4.5750   -0.4560   -1.7650 ho        1 4GE      0.449000
@<TRIPOS>BOND
     1    1    2 ar  
     2    1    7 ar  
     3    1   27 1   
     4    2    3 1   
     5    2    4 ar  
     6    4    5 ar  
     7    4   28 1   
     8    5    6 ar  
     9    5   29 1   
    10    6    7 ar  
    11    6   30 1   
    12    7    8 1   
    13    8    9 1   
    14    8   10 2   
    15    9   15 1   
    16    9   31 1   
    17   10   11 1   
    18   11   12 1   
    19   11   15 2   
    20   12   13 2   
    21   12   14 1   
    22   14   42 1   
    23   15   16 1   
    24   16   17 2   
    25   16   18 1   
    26   18   19 1   
    27   18   20 1   
    28   19   32 1   
    29   19   33 1   
    30   19   34 1   
    31   20   21 1   
    32   20   35 1   
    33   20   36 1   
    34   21   22 ar  
    35   21   26 ar  
    36   22   23 ar  
    37   22   37 1   
    38   23   24 ar  
    39   23   39 1   
    40   24   25 ar  
    41   24   40 1   
    42   25   26 ar  
    43   25   41 1   
    44   26   38 1   
@<TRIPOS>SUBSTRUCTURE
     1 4GE         1 TEMP              0 ****  ****    0 ROOT
