@<TRIPOS>MOLECULE
4GF
   66    71     1     0     0
SMALL
bcc


@<TRIPOS>ATOM
      1 N01         0.2700   -0.3850    0.0610 n         1 4GF     -0.466100
      2 C02         1.6590   -0.4950   -0.0840 c         1 4GF      0.727300
      3 O03         2.4200   -0.5370    0.8950 o         1 4GF     -0.549100
      4 C04         2.1230   -0.5790   -1.4690 cc        1 4GF     -0.344800
      5 C05         1.4740   -1.2040   -2.5920 cc        1 4GF      0.408500
      6 N06         2.2300   -1.1320   -3.7180 nd        1 4GF     -0.554100
      7 N07         3.3540   -0.4770   -3.3790 na        1 4GF      0.040200
      8 C08         3.3600   -0.0960   -1.9750 cd        1 4GF      0.416500
      9 N09         4.4000    0.5960   -1.3990 nd        1 4GF     -0.605000
     10 C10         5.4220    0.8910   -2.1860 cc        1 4GF      0.440200
     11 C11         5.4950    0.5400   -3.5780 cc        1 4GF     -0.301300
     12 C12         4.4490   -0.1440   -4.1600 cd        1 4GF      0.002700
     13 C13        -0.3660   -0.2970    1.2950 cc        1 4GF      0.046300
     14 C14         0.1190   -0.5470    2.5920 cd        1 4GF     -0.293300
     15 C15        -1.0110   -0.3060    3.4700 cd        1 4GF      0.333600
     16 N16        -2.1060    0.0600    2.7520 nc        1 4GF     -0.491800
     17 N17        -1.7320    0.1140    1.4570 na        1 4GF      0.117300
     18 C18        -0.9830   -0.4380    4.9530 c3        1 4GF     -0.090000
     19 C19        -0.6410   -1.8660    5.3530 c3        1 4GF     -0.074400
     20 C20        -0.5490   -1.9970    6.8700 c3        1 4GF      0.167800
     21 N21         0.3540   -1.0430    7.5030 n3        1 4GF     -0.722600
     22 C22         0.1310    0.3300    7.0670 c3        1 4GF      0.167800
     23 C23         0.0510    0.5040    5.5530 c3        1 4GF     -0.074400
     24 C24         0.3220   -1.1580    8.9720 c3        1 4GF      0.183500
     25 C25         0.6190   -2.5790    9.4560 c3        1 4GF     -0.093100
     26 C26         1.3090   -0.2090    9.6550 c3        1 4GF     -0.093100
     27 C27        -2.6400    0.2930    0.3820 ca        1 4GF     -0.023200
     28 C28        -3.8390   -0.4650    0.2730 ca        1 4GF      0.147900
     29 C29        -4.7180   -0.2410   -0.8020 ca        1 4GF     -0.162000
     30 C30        -4.4260    0.7160   -1.7770 ca        1 4GF     -0.014300
     31 C31        -3.2440    1.4600   -1.6670 ca        1 4GF     -0.142000
     32 C32        -2.3700    1.2620   -0.6060 ca        1 4GF     -0.119000
     33 F33        -4.1570   -1.4100    1.1850 f         1 4GF     -0.117900
     34 C34        -5.3670    0.9170   -2.8860 cx        1 4GF     -0.093400
     35 C35        -4.8700    1.2740   -4.2680 cx        1 4GF     -0.120900
     36 C36        -5.6030    2.2960   -3.4570 cx        1 4GF     -0.120900
     37 H1         -0.2890   -0.2890   -0.7570 hn        1 4GF      0.323500
     38 H2          0.5040   -1.7100   -2.5980 h4        1 4GF      0.061800
     39 H3          6.2580    1.4440   -1.7160 h4        1 4GF      0.043100
     40 H4          6.3780    0.8150   -4.1680 ha        1 4GF      0.168000
     41 H5          4.4260   -0.4470   -5.2220 h4        1 4GF      0.186000
     42 H6          1.1270   -0.8410    2.8710 ha        1 4GF      0.195000
     43 H7         -1.9940   -0.1790    5.3790 hc        1 4GF      0.066700
     44 H8         -1.4310   -2.5680    4.9840 hc        1 4GF      0.054700
     45 H9          0.3320   -2.1630    4.8810 hc        1 4GF      0.054700
     46 H10        -1.5930   -1.9230    7.2990 h1        1 4GF      0.030200
     47 H11        -0.1580   -3.0300    7.0980 h1        1 4GF      0.030200
     48 H13        -0.8090    0.7600    7.5250 h1        1 4GF      0.030200
     49 H14         1.0030    0.9430    7.4330 h1        1 4GF      0.030200
     50 H15         1.0530    0.3050    5.0890 hc        1 4GF      0.054700
     51 H16        -0.2250    1.5680    5.3330 hc        1 4GF      0.054700
     52 H17        -0.7160   -0.8870    9.3500 h1        1 4GF      0.013700
     53 H18         0.7280   -2.5720   10.5670 hc        1 4GF      0.038367
     54 H19         1.5650   -2.9660    9.0070 hc        1 4GF      0.038367
     55 H20        -0.2150   -3.2730    9.1960 hc        1 4GF      0.038367
     56 H21         2.3340   -0.3220    9.2300 hc        1 4GF      0.038367
     57 H22         0.9860    0.8540    9.5440 hc        1 4GF      0.038367
     58 H23         1.3480   -0.4450   10.7460 hc        1 4GF      0.038367
     59 H24        -5.6430   -0.8360   -0.8590 ha        1 4GF      0.155000
     60 H25        -3.0060    2.2230   -2.4250 ha        1 4GF      0.142000
     61 H26        -1.4630    1.8850   -0.5300 ha        1 4GF      0.152000
     62 H27        -6.2460    0.2400   -2.8280 hc        1 4GF      0.088700
     63 H28        -5.3700    0.8140   -5.1390 hc        1 4GF      0.075700
     64 H29        -3.7840    1.3940   -4.4320 hc        1 4GF      0.075700
     65 H30        -6.6330    2.5760   -3.7410 hc        1 4GF      0.075700
     66 H31        -5.0450    3.1520   -3.0360 hc        1 4GF      0.075700
@<TRIPOS>BOND
     1    1    2 1   
     2    1   13 1   
     3    1   37 1   
     4    2    3 2   
     5    2    4 1   
     6    4    5 1   
     7    4    8 2   
     8    5    6 2   
     9    5   38 1   
    10    6    7 1   
    11    7    8 1   
    12    7   12 1   
    13    8    9 1   
    14    9   10 2   
    15   10   11 1   
    16   10   39 1   
    17   11   12 2   
    18   11   40 1   
    19   12   41 1   
    20   13   14 2   
    21   13   17 1   
    22   14   15 1   
    23   14   42 1   
    24   15   16 2   
    25   15   18 1   
    26   16   17 1   
    27   17   27 1   
    28   18   19 1   
    29   18   23 1   
    30   18   43 1   
    31   19   20 1   
    32   19   44 1   
    33   19   45 1   
    34   20   21 1   
    35   20   46 1   
    36   20   47 1   
    37   21   22 1   
    38   21   24 1   
    39   22   23 1   
    40   22   48 1   
    41   22   49 1   
    42   23   50 1   
    43   23   51 1   
    44   24   25 1   
    45   24   26 1   
    46   24   52 1   
    47   25   53 1   
    48   25   54 1   
    49   25   55 1   
    50   26   56 1   
    51   26   57 1   
    52   26   58 1   
    53   27   28 ar  
    54   27   32 ar  
    55   28   29 ar  
    56   28   33 1   
    57   29   30 ar  
    58   29   59 1   
    59   30   31 ar  
    60   30   34 1   
    61   31   32 ar  
    62   31   60 1   
    63   32   61 1   
    64   34   35 1   
    65   34   36 1   
    66   34   62 1   
    67   35   36 1   
    68   35   63 1   
    69   35   64 1   
    70   36   65 1   
    71   36   66 1   
@<TRIPOS>SUBSTRUCTURE
     1 4GF         1 TEMP              0 ****  ****    0 ROOT
