@<TRIPOS>MOLECULE
4GF
   66    71     1     0     0
SMALL
bcc


@<TRIPOS>ATOM
      1 N01         0.2690   -0.3850    0.0610 ns        1 4GF     -0.466100
      2 C02         1.6570   -0.4980   -0.0850 c         1 4GF      0.727300
      3 O03         2.4190   -0.5440    0.8940 o         1 4GF     -0.549100
      4 C04         2.1210   -0.5810   -1.4700 cc        1 4GF     -0.344800
      5 C05         1.4690   -1.2020   -2.5940 cc        1 4GF      0.408500
      6 N06         2.2250   -1.1310   -3.7210 nd        1 4GF     -0.554100
      7 N07         3.3520   -0.4790   -3.3800 na        1 4GF      0.040200
      8 C08         3.3590   -0.1010   -1.9760 cd        1 4GF      0.416500
      9 N09         4.4020    0.5870   -1.3990 nd        1 4GF     -0.605000
     10 C10         5.4240    0.8800   -2.1860 cc        1 4GF      0.440200
     11 C11         5.4960    0.5300   -3.5780 cc        1 4GF     -0.301300
     12 C12         4.4470   -0.1480   -4.1610 cd        1 4GF      0.002700
     13 C13        -0.3660   -0.2950    1.2950 cc        1 4GF      0.046300
     14 C14         0.1180   -0.5490    2.5910 cd        1 4GF     -0.293300
     15 C15        -1.0100   -0.3060    3.4700 cd        1 4GF      0.333600
     16 N16        -2.1040    0.0650    2.7530 nc        1 4GF     -0.491800
     17 N17        -1.7310    0.1190    1.4580 na        1 4GF      0.117300
     18 C18        -0.9820   -0.4390    4.9520 c3        1 4GF     -0.090000
     19 C19        -0.6460   -1.8690    5.3510 c3        1 4GF     -0.074400
     20 C20        -0.5540   -2.0030    6.8680 c3        1 4GF      0.167800
     21 N21         0.3530   -1.0530    7.5010 n3        1 4GF     -0.722600
     22 C22         0.1360    0.3210    7.0670 c3        1 4GF      0.167800
     23 C23         0.0560    0.4980    5.5530 c3        1 4GF     -0.074400
     24 C24         0.3210   -1.1700    8.9700 c3        1 4GF      0.183500
     25 C25         0.6120   -2.5930    9.4520 c3        1 4GF     -0.093100
     26 C26         1.3130   -0.2260    9.6550 c3        1 4GF     -0.093100
     27 C27        -2.6390    0.3030    0.3830 ca        1 4GF     -0.023200
     28 C28        -3.8400   -0.4520    0.2740 ca        1 4GF      0.147900
     29 C29        -4.7190   -0.2240   -0.8000 ca        1 4GF     -0.162000
     30 C30        -4.4250    0.7320   -1.7740 ca        1 4GF     -0.014300
     31 C31        -3.2400    1.4730   -1.6640 ca        1 4GF     -0.142000
     32 C32        -2.3660    1.2720   -0.6040 ca        1 4GF     -0.119000
     33 F33        -4.1600   -1.3970    1.1850 f         1 4GF     -0.117900
     34 C34        -5.3650    0.9380   -2.8830 cx        1 4GF     -0.093400
     35 C35        -4.8680    1.2950   -4.2640 cx        1 4GF     -0.120900
     36 C36        -5.5980    2.3180   -3.4520 cx        1 4GF     -0.120900
     37 H1         -0.2900   -0.2850   -0.7570 hn        1 4GF      0.323500
     38 H2          0.4980   -1.7050   -2.6010 h4        1 4GF      0.061800
     39 H3          6.2620    1.4290   -1.7150 h4        1 4GF      0.043100
     40 H4          6.3800    0.8040   -4.1680 ha        1 4GF      0.168000
     41 H5          4.4240   -0.4500   -5.2240 h4        1 4GF      0.186000
     42 H6          1.1250   -0.8460    2.8700 ha        1 4GF      0.195000
     43 H7         -1.9930   -0.1760    5.3800 hc        1 4GF      0.066700
     44 H8         -1.4400   -2.5680    4.9810 hc        1 4GF      0.054700
     45 H9          0.3260   -2.1700    4.8780 hc        1 4GF      0.054700
     46 H10        -1.5980   -1.9250    7.2970 h1        1 4GF      0.030200
     47 H11        -0.1680   -3.0370    7.0950 h1        1 4GF      0.030200
     48 H13        -0.8020    0.7550    7.5270 h1        1 4GF      0.030200
     49 H14         1.0100    0.9300    7.4340 h1        1 4GF      0.030200
     50 H15         1.0560    0.2950    5.0890 hc        1 4GF      0.054700
     51 H16        -0.2150    1.5620    5.3350 hc        1 4GF      0.054700
     52 H17        -0.7160   -0.8950    9.3490 h1        1 4GF      0.013700
     53 H18         1.5550   -2.9840    9.0020 hc        1 4GF      0.038367
     54 H19         0.7210   -2.5880   10.5630 hc        1 4GF      0.038367
     55 H20        -0.2260   -3.2830    9.1920 hc        1 4GF      0.038367
     56 H21         2.3370   -0.3440    9.2280 hc        1 4GF      0.038367
     57 H22         1.3510   -0.4630   10.7450 hc        1 4GF      0.038367
     58 H23         0.9950    0.8380    9.5450 hc        1 4GF      0.038367
     59 H24        -5.6460   -0.8170   -0.8570 ha        1 4GF      0.155000
     60 H25        -3.0010    2.2360   -2.4210 ha        1 4GF      0.142000
     61 H26        -1.4580    1.8920   -0.5270 ha        1 4GF      0.152000
     62 H27        -6.2460    0.2630   -2.8250 hc        1 4GF      0.088700
     63 H28        -3.7820    1.4120   -4.4290 hc        1 4GF      0.075700
     64 H29        -5.3700    0.8370   -5.1360 hc        1 4GF      0.075700
     65 H30        -5.0380    3.1710   -3.0300 hc        1 4GF      0.075700
     66 H31        -6.6280    2.6000   -3.7360 hc        1 4GF      0.075700
@<TRIPOS>BOND
     1    1    2 1   
     2    1   13 1   
     3    1   37 1   
     4    2    3 2   
     5    2    4 1   
     6    4    5 1   
     7    4    8 2   
     8    5    6 2   
     9    5   38 1   
    10    6    7 1   
    11    7    8 1   
    12    7   12 1   
    13    8    9 1   
    14    9   10 2   
    15   10   11 1   
    16   10   39 1   
    17   11   12 2   
    18   11   40 1   
    19   12   41 1   
    20   13   14 2   
    21   13   17 1   
    22   14   15 1   
    23   14   42 1   
    24   15   16 2   
    25   15   18 1   
    26   16   17 1   
    27   17   27 1   
    28   18   19 1   
    29   18   23 1   
    30   18   43 1   
    31   19   20 1   
    32   19   44 1   
    33   19   45 1   
    34   20   21 1   
    35   20   46 1   
    36   20   47 1   
    37   21   22 1   
    38   21   24 1   
    39   22   23 1   
    40   22   48 1   
    41   22   49 1   
    42   23   50 1   
    43   23   51 1   
    44   24   25 1   
    45   24   26 1   
    46   24   52 1   
    47   25   53 1   
    48   25   54 1   
    49   25   55 1   
    50   26   56 1   
    51   26   57 1   
    52   26   58 1   
    53   27   28 ar  
    54   27   32 ar  
    55   28   29 ar  
    56   28   33 1   
    57   29   30 ar  
    58   29   59 1   
    59   30   31 ar  
    60   30   34 1   
    61   31   32 ar  
    62   31   60 1   
    63   32   61 1   
    64   34   35 1   
    65   34   36 1   
    66   34   62 1   
    67   35   36 1   
    68   35   63 1   
    69   35   64 1   
    70   36   65 1   
    71   36   66 1   
@<TRIPOS>SUBSTRUCTURE
     1 4GF         1 TEMP              0 ****  ****    0 ROOT
