@<TRIPOS>MOLECULE
4GH
  157   157     1     0     0
SMALL
bcc


@<TRIPOS>ATOM
      1 C1         -5.6750    4.4580   -2.8030 c3        1 4GH      0.121400
      2 C2         -4.1760    4.5510   -3.0600 c3        1 4GH      0.090700
      3 N2         -3.4820    4.6130   -1.8160 n         1 4GH     -0.557900
      4 C3         -3.8740    5.8060   -3.8760 c3        1 4GH      0.126100
      5 O3         -4.9330    6.7110   -3.7510 oh        1 4GH     -0.609800
      6 C4         -3.7000    5.4300   -5.3380 c3        1 4GH     -0.121400
      7 C5         -3.6110    6.7100   -6.1950 c3        1 4GH     -0.079400
      8 C6         -3.4270    6.3230   -7.6790 c3        1 4GH     -0.078400
      9 C7         -4.1350    7.3590   -8.5730 c3        1 4GH     -0.079400
     10 C8         -4.3590    6.7630   -9.9720 c3        1 4GH     -0.079400
     11 C9         -5.5590    7.4520  -10.6350 c3        1 4GH     -0.079400
     12 C10        -6.2080    6.4890  -11.6580 c3        1 4GH     -0.079400
     13 C11        -7.5950    7.0260  -12.0640 c3        1 4GH     -0.079400
     14 C12        -8.4440    5.8650  -12.6810 c3        1 4GH     -0.079400
     15 C13        -9.9150    6.3250  -12.8300 c3        1 4GH     -0.079400
     16 C14       -10.8270    5.0860  -13.0410 c3        1 4GH     -0.079400
     17 C15       -12.3040    5.5340  -13.0600 c3        1 4GH     -0.079400
     18 C16       -13.2160    4.3010  -13.0450 c3        1 4GH     -0.079400
     19 C17       -14.6830    4.7480  -12.8700 c3        1 4GH     -0.080400
     20 C18       -15.5700    3.5200  -12.6850 c3        1 4GH     -0.092100
     21 C1A        -7.4780    2.8670   -2.6530 c3        1 4GH      0.338900
     22 O1A        -6.1120    3.0720   -2.9520 os        1 4GH     -0.431600
     23 C2A        -7.6280    1.5620   -1.8960 c3        1 4GH      0.137100
     24 O2A        -6.7100    1.5590   -0.7900 oh        1 4GH     -0.587800
     25 C3A        -7.3530    0.3790   -2.7510 c3        1 4GH      0.104100
     26 O3A        -7.6940   -0.8250   -2.0100 oh        1 4GH     -0.611800
     27 C4A        -8.1360    0.4040   -4.0110 c3        1 4GH     -0.136400
     28 O5A       -10.2550    1.7010   -5.4170 oh        1 4GH     -0.602800
     29 C5M        -7.9840    1.7140   -4.7570 c3        1 4GH      0.096100
     30 C6A        -8.9310    1.7290   -5.9020 c3        1 4GH      0.139400
     31 O6A        -8.2510    2.8830   -3.9060 os        1 4GH     -0.462600
     32 CAA        -2.5230    3.5840   -1.4680 c         1 4GH      0.666100
     33 OAA        -2.3600    2.6310   -2.2060 o         1 4GH     -0.630100
     34 CAB        -1.7500    3.6650   -0.1160 c3        1 4GH     -0.150400
     35 CAC        -1.4220    2.2240    0.3870 c3        1 4GH     -0.073400
     36 CAD        -0.4180    2.3060    1.5840 c3        1 4GH     -0.080400
     37 CAE        -0.0440    0.8560    2.0530 c3        1 4GH     -0.078400
     38 CAF         1.0590    0.9310    3.1460 c3        1 4GH     -0.079400
     39 CAG         1.6340   -0.4940    3.4030 c3        1 4GH     -0.079400
     40 CAH         2.7090   -0.4280    4.5360 c3        1 4GH     -0.079400
     41 CAI         3.4000   -1.8050    4.6740 c3        1 4GH     -0.079400
     42 CAJ         4.4180   -1.7620    5.8550 c3        1 4GH     -0.079400
     43 CAK         5.1310   -3.1310    5.9710 c3        1 4GH     -0.079400
     44 CAL         6.1860   -3.0710    7.1030 c3        1 4GH     -0.079400
     45 CAM         6.8760   -4.4410    7.2330 c3        1 4GH     -0.079400
     46 CAN         7.9890   -4.3560    8.2780 c3        1 4GH     -0.079400
     47 CAO         8.6340   -5.7580    8.4640 c3        1 4GH     -0.079400
     48 CAP         9.7210   -5.6880    9.5700 c3        1 4GH     -0.079400
     49 CAQ        10.3830   -7.0850    9.7370 c3        1 4GH     -0.079400
     50 CAR        11.5160   -6.9980   10.7950 c3        1 4GH     -0.079400
     51 CAS        12.1620   -8.3830   10.9740 c3        1 4GH     -0.079400
     52 CAT        13.2390   -8.3110   12.0900 c3        1 4GH     -0.079400
     53 CAU        13.9700   -9.6650   12.1880 c3        1 4GH     -0.079400
     54 CAV        15.0670   -9.5840   13.2860 c3        1 4GH     -0.079400
     55 CAW        15.7430  -10.9740   13.4470 c3        1 4GH     -0.079400
     56 CAX        16.8160  -10.9020   14.5600 c3        1 4GH     -0.079400
     57 CAY        17.4980  -12.2720   14.7020 c3        1 4GH     -0.080400
     58 CAZ        18.6550  -12.1660   15.6930 c3        1 4GH     -0.092100
     59 H1         -6.1510    5.0200   -3.4470 h1        1 4GH      0.059200
     60 H1A        -5.8710    4.7680   -1.8900 h1        1 4GH      0.059200
     61 H2         -3.8830    3.7660   -3.5540 h1        1 4GH      0.098700
     62 HN2        -3.6490    5.2970   -1.2350 hn        1 4GH      0.316500
     63 H3         -3.0520    6.2190   -3.5470 h1        1 4GH      0.047700
     64 HO3        -4.6240    7.4910   -3.4560 ho        1 4GH      0.405000
     65 H4         -4.4620    4.8960   -5.6290 hc        1 4GH      0.059200
     66 H4A        -2.8770    4.9080   -5.4440 hc        1 4GH      0.059200
     67 H5         -2.8460    7.2490   -5.9000 hc        1 4GH      0.038700
     68 H5A        -4.4340    7.2300   -6.0920 hc        1 4GH      0.038700
     69 H6         -3.8140    5.4400   -7.8350 hc        1 4GH      0.044200
     70 H6A        -2.4730    6.3040   -7.8950 hc        1 4GH      0.044200
     71 H7         -3.5760    8.1650   -8.6460 hc        1 4GH      0.039200
     72 H7A        -4.9950    7.5950   -8.1780 hc        1 4GH      0.039200
     73 H8         -4.5360    5.8060   -9.8930 hc        1 4GH      0.041200
     74 H8A        -3.5610    6.9030  -10.5170 hc        1 4GH      0.041200
     75 H9         -6.2150    7.6920   -9.9510 hc        1 4GH      0.039700
     76 H9A        -5.2560    8.2630  -11.0950 hc        1 4GH      0.039700
     77 H10        -6.3080    5.6060  -11.2550 hc        1 4GH      0.040200
     78 H10A       -5.6400    6.4240  -12.4500 hc        1 4GH      0.040200
     79 H11        -7.4880    7.7390  -12.7250 hc        1 4GH      0.039700
     80 H11A       -8.0510    7.3800  -11.2750 hc        1 4GH      0.039700
     81 H12        -8.0860    5.6310  -13.5600 hc        1 4GH      0.039700
     82 H12A       -8.4040    5.0840  -12.0930 hc        1 4GH      0.039700
     83 H13       -10.1920    6.7980  -12.0210 hc        1 4GH      0.039700
     84 H13A       -9.9940    6.9210  -13.5990 hc        1 4GH      0.039700
     85 H14       -10.6050    4.6590  -13.8900 hc        1 4GH      0.039700
     86 H14A      -10.6890    4.4510  -12.3100 hc        1 4GH      0.039700
     87 H15       -12.4740    6.0550  -13.8670 hc        1 4GH      0.039700
     88 H15A      -12.4870    6.0840  -12.2740 hc        1 4GH      0.039700
     89 H16       -13.1220    3.8150  -13.8900 hc        1 4GH      0.039700
     90 H16A      -12.9620    3.7150  -12.3000 hc        1 4GH      0.039700
     91 H17       -14.7570    5.3250  -12.0820 hc        1 4GH      0.038700
     92 H17A      -14.9700    5.2400  -13.6620 hc        1 4GH      0.038700
     93 H18       -15.3070    3.0480  -11.8670 hc        1 4GH      0.032700
     94 H18A      -15.4650    2.9230  -13.4540 hc        1 4GH      0.032700
     95 H18B      -16.5140    3.8020  -12.6140 hc        1 4GH      0.032700
     96 H1AA       -7.7890    3.5970   -2.0840 h2        1 4GH      0.084700
     97 H2A        -8.5420    1.4980   -1.5500 h1        1 4GH      0.059700
     98 HO2A       -7.1420    1.3340   -0.0460 ho        1 4GH      0.423000
     99 H3A        -6.3980    0.3590   -2.9690 h1        1 4GH      0.066700
    100 HO3A       -7.5240   -1.5480   -2.5190 ho        1 4GH      0.411000
    101 H4AA       -9.0800    0.2690   -3.7990 hc        1 4GH      0.065700
    102 H4AB       -7.8310   -0.3280   -4.5880 hc        1 4GH      0.065700
    103 HO5A      -10.8120    1.5320   -6.0880 ho        1 4GH      0.411000
    104 H5M        -7.0710    1.7770   -5.1020 h1        1 4GH      0.093700
    105 H6AA       -8.7930    2.5410   -6.4270 h1        1 4GH      0.054700
    106 H6AB       -8.7720    0.9420   -6.4680 h1        1 4GH      0.054700
    107 HAB        -2.3050    4.1260    0.5500 hc        1 4GH      0.064200
    108 HABA       -0.9170    4.1630   -0.2470 hc        1 4GH      0.064200
    109 HAC        -1.0190    1.7070   -0.3410 hc        1 4GH      0.057700
    110 HACA       -2.2410    1.7880    0.6800 hc        1 4GH      0.057700
    111 HAD        -0.8320    2.7900    2.3240 hc        1 4GH      0.038200
    112 HADA        0.3930    2.7770    1.2990 hc        1 4GH      0.038200
    113 HAE        -0.8410    0.4150    2.4230 hc        1 4GH      0.042200
    114 HAEA        0.2860    0.3440    1.2930 hc        1 4GH      0.042200
    115 HAF         1.7750    1.5200    2.8450 hc        1 4GH      0.039200
    116 HAFA        0.6770    1.2800    3.9690 hc        1 4GH      0.039200
    117 HAG         0.9090   -1.0940    3.6760 hc        1 4GH      0.040200
    118 HAGA        2.0460   -0.8330    2.5810 hc        1 4GH      0.040200
    119 HAH         2.2760   -0.1940    5.3830 hc        1 4GH      0.039700
    120 HAHA        3.3750    0.2490    4.3130 hc        1 4GH      0.039700
    121 HAI         2.7260   -2.4920    4.8490 hc        1 4GH      0.039700
    122 HAIA        3.8730   -2.0160    3.8450 hc        1 4GH      0.039700
    123 HAJ         3.9410   -1.5700    6.6920 hc        1 4GH      0.039700
    124 HAJA        5.0810   -1.0630    5.6890 hc        1 4GH      0.039700
    125 HAK         5.5730   -3.3410    5.1240 hc        1 4GH      0.039700
    126 HAKA        4.4730   -3.8240    6.1750 hc        1 4GH      0.039700
    127 HAL         5.7450   -2.8450    7.9510 hc        1 4GH      0.039700
    128 HALA        6.8540   -2.3890    6.8900 hc        1 4GH      0.039700
    129 HAM         7.2570   -4.6940    6.3740 hc        1 4GH      0.039700
    130 HAMA        6.2210   -5.1100    7.5090 hc        1 4GH      0.039700
    131 HAN         8.6690   -3.7210    7.9780 hc        1 4GH      0.039700
    132 HANA        7.6150   -4.0540    9.1280 hc        1 4GH      0.039700
    133 HAO         9.0450   -6.0430    7.6210 hc        1 4GH      0.039700
    134 HAOA        7.9440   -6.4030    8.7250 hc        1 4GH      0.039700
    135 HAP         9.3100   -5.4200   10.4140 hc        1 4GH      0.039700
    136 HAPA       10.3990   -5.0360    9.3190 hc        1 4GH      0.039700
    137 HAQ         9.7090   -7.7330   10.0330 hc        1 4GH      0.039700
    138 HAQA       10.7590   -7.3740    8.8780 hc        1 4GH      0.039700
    139 HAR        12.1940   -6.3600   10.4960 hc        1 4GH      0.039700
    140 HARA       11.1420   -6.7010   11.6500 hc        1 4GH      0.039700
    141 HAS        11.4760   -9.0330   11.2250 hc        1 4GH      0.039700
    142 HASA       12.5820   -8.6600   10.1310 hc        1 4GH      0.039700
    143 HAT        13.8850   -7.6060   11.8760 hc        1 4GH      0.039700
    144 HATA       12.8080   -8.1100   12.9470 hc        1 4GH      0.039700
    145 HAU        13.3300  -10.3640   12.4190 hc        1 4GH      0.039700
    146 HAUA       14.3850   -9.8750   11.3270 hc        1 4GH      0.039700
    147 HAV        15.7420   -8.9200   13.0240 hc        1 4GH      0.039700
    148 HAVA       14.6600   -9.3180   14.1360 hc        1 4GH      0.039700
    149 HAW        16.1670  -11.2310   12.6010 hc        1 4GH      0.039700
    150 HAWA       15.0650  -11.6420   13.6890 hc        1 4GH      0.039700
    151 HAX        16.3910  -10.6610   15.4060 hc        1 4GH      0.039700
    152 HAXA       17.4850  -10.2280   14.3260 hc        1 4GH      0.039700
    153 HAY        17.8400  -12.5580   13.8320 hc        1 4GH      0.038700
    154 HAYA       16.8490  -12.9260   15.0270 hc        1 4GH      0.038700
    155 HAZ        19.1060  -13.0350   15.7620 hc        1 4GH      0.032700
    156 HAZA       18.3090  -11.9070   16.5730 hc        1 4GH      0.032700
    157 HAZB       19.2890  -11.4930   15.3810 hc        1 4GH      0.032700
@<TRIPOS>BOND
     1    1    2 1   
     2    1   22 1   
     3    1   59 1   
     4    1   60 1   
     5    2    3 1   
     6    2    4 1   
     7    2   61 1   
     8    3   32 1   
     9    3   62 1   
    10    4    5 1   
    11    4    6 1   
    12    4   63 1   
    13    5   64 1   
    14    6    7 1   
    15    6   65 1   
    16    6   66 1   
    17    7    8 1   
    18    7   67 1   
    19    7   68 1   
    20    8    9 1   
    21    8   69 1   
    22    8   70 1   
    23    9   10 1   
    24    9   71 1   
    25    9   72 1   
    26   10   11 1   
    27   10   73 1   
    28   10   74 1   
    29   11   12 1   
    30   11   75 1   
    31   11   76 1   
    32   12   13 1   
    33   12   77 1   
    34   12   78 1   
    35   13   14 1   
    36   13   79 1   
    37   13   80 1   
    38   14   15 1   
    39   14   81 1   
    40   14   82 1   
    41   15   16 1   
    42   15   83 1   
    43   15   84 1   
    44   16   17 1   
    45   16   85 1   
    46   16   86 1   
    47   17   18 1   
    48   17   87 1   
    49   17   88 1   
    50   18   19 1   
    51   18   89 1   
    52   18   90 1   
    53   19   20 1   
    54   19   91 1   
    55   19   92 1   
    56   20   93 1   
    57   20   94 1   
    58   20   95 1   
    59   21   22 1   
    60   21   23 1   
    61   21   31 1   
    62   21   96 1   
    63   23   24 1   
    64   23   25 1   
    65   23   97 1   
    66   24   98 1   
    67   25   26 1   
    68   25   27 1   
    69   25   99 1   
    70   26  100 1   
    71   27   29 1   
    72   27  101 1   
    73   27  102 1   
    74   28   30 1   
    75   28  103 1   
    76   29   30 1   
    77   29   31 1   
    78   29  104 1   
    79   30  105 1   
    80   30  106 1   
    81   32   33 2   
    82   32   34 1   
    83   34   35 1   
    84   34  107 1   
    85   34  108 1   
    86   35   36 1   
    87   35  109 1   
    88   35  110 1   
    89   36   37 1   
    90   36  111 1   
    91   36  112 1   
    92   37   38 1   
    93   37  113 1   
    94   37  114 1   
    95   38   39 1   
    96   38  115 1   
    97   38  116 1   
    98   39   40 1   
    99   39  117 1   
   100   39  118 1   
   101   40   41 1   
   102   40  119 1   
   103   40  120 1   
   104   41   42 1   
   105   41  121 1   
   106   41  122 1   
   107   42   43 1   
   108   42  123 1   
   109   42  124 1   
   110   43   44 1   
   111   43  125 1   
   112   43  126 1   
   113   44   45 1   
   114   44  127 1   
   115   44  128 1   
   116   45   46 1   
   117   45  129 1   
   118   45  130 1   
   119   46   47 1   
   120   46  131 1   
   121   46  132 1   
   122   47   48 1   
   123   47  133 1   
   124   47  134 1   
   125   48   49 1   
   126   48  135 1   
   127   48  136 1   
   128   49   50 1   
   129   49  137 1   
   130   49  138 1   
   131   50   51 1   
   132   50  139 1   
   133   50  140 1   
   134   51   52 1   
   135   51  141 1   
   136   51  142 1   
   137   52   53 1   
   138   52  143 1   
   139   52  144 1   
   140   53   54 1   
   141   53  145 1   
   142   53  146 1   
   143   54   55 1   
   144   54  147 1   
   145   54  148 1   
   146   55   56 1   
   147   55  149 1   
   148   55  150 1   
   149   56   57 1   
   150   56  151 1   
   151   56  152 1   
   152   57   58 1   
   153   57  153 1   
   154   57  154 1   
   155   58  155 1   
   156   58  156 1   
   157   58  157 1   
@<TRIPOS>SUBSTRUCTURE
     1 4GH         1 TEMP              0 ****  ****    0 ROOT
