@<TRIPOS>MOLECULE
4GH
  157   157     1     0     0
SMALL
bcc


@<TRIPOS>ATOM
      1 C1         -6.7020    5.6220    1.4630 c3        1 4GH      0.109400
      2 C2         -6.4280    4.1030    1.5520 c3        1 4GH      0.062700
      3 N2         -5.2650    3.7000    0.8060 n         1 4GH     -0.560900
      4 C3         -7.7200    3.3500    1.1210 c3        1 4GH      0.135100
      5 O3         -8.7740    3.7470    1.9860 oh        1 4GH     -0.596800
      6 C4         -7.5330    1.8390    1.1230 c3        1 4GH     -0.108400
      7 C5         -8.8260    1.1260    0.7870 c3        1 4GH     -0.080400
      8 C6         -8.6570   -0.3760    0.8570 c3        1 4GH     -0.078400
      9 C7         -9.9470   -1.0890    0.5130 c3        1 4GH     -0.079400
     10 C8         -9.7800   -2.5920    0.5860 c3        1 4GH     -0.079400
     11 C9        -11.0700   -3.3050    0.2410 c3        1 4GH     -0.079400
     12 C10       -10.9030   -4.8080    0.3130 c3        1 4GH     -0.079400
     13 C11       -12.1930   -5.5210   -0.0320 c3        1 4GH     -0.079400
     14 C12       -12.0270   -7.0230    0.0410 c3        1 4GH     -0.079400
     15 C13       -13.3160   -7.7370   -0.3040 c3        1 4GH     -0.079400
     16 C14       -13.1500   -9.2390   -0.2310 c3        1 4GH     -0.079400
     17 C15       -14.4400   -9.9530   -0.5760 c3        1 4GH     -0.079400
     18 C16       -14.2730  -11.4550   -0.5040 c3        1 4GH     -0.079400
     19 C17       -15.5620  -12.1700   -0.8490 c3        1 4GH     -0.080400
     20 C18       -15.4010  -13.6660   -0.7780 c3        1 4GH     -0.092100
     21 C1A        -6.6880    7.3280   -0.2030 c3        1 4GH      0.299900
     22 O1A        -6.9060    5.9580    0.0880 os        1 4GH     -0.466600
     23 C2A        -7.6160    7.7130   -1.3750 c3        1 4GH      0.136100
     24 O2A        -8.9450    7.3740   -1.0560 oh        1 4GH     -0.571800
     25 C3A        -7.1480    7.0540   -2.6830 c3        1 4GH      0.113100
     26 O3A        -7.8870    7.6680   -3.7280 oh        1 4GH     -0.580800
     27 C4A        -5.6520    7.2740   -2.8840 c3        1 4GH     -0.142400
     28 C5M        -4.8860    6.7720   -1.6740 c3        1 4GH      0.107100
     29 C6A        -3.3860    7.0570   -1.7920 c3        1 4GH      0.136400
     30 O6A        -5.3100    7.4450   -0.4820 os        1 4GH     -0.443600
     31 CAA        -4.0610    3.3980    1.4290 c         1 4GH      0.655100
     32 OAA        -4.0020    3.2470    2.6650 o         1 4GH     -0.610100
     33 CAB        -2.8540    3.2310    0.5260 c3        1 4GH     -0.158400
     34 CAC        -1.6660    2.7030    1.2990 c3        1 4GH     -0.071400
     35 CAD        -0.4540    2.5720    0.4020 c3        1 4GH     -0.080400
     36 CAE         0.7380    2.0450    1.1720 c3        1 4GH     -0.078400
     37 CAF         1.9530    1.9120    0.2780 c3        1 4GH     -0.079400
     38 CAG         3.1460    1.3860    1.0480 c3        1 4GH     -0.079400
     39 CAH         4.3610    1.2540    0.1550 c3        1 4GH     -0.078400
     40 CAI         5.5530    0.7280    0.9250 c3        1 4GH     -0.079400
     41 CAJ         6.7690    0.5960    0.0320 c3        1 4GH     -0.078400
     42 CAK         7.9610    0.0710    0.8020 c3        1 4GH     -0.079400
     43 CAL         9.1770   -0.0610   -0.0900 c3        1 4GH     -0.079400
     44 CAM        10.3700   -0.5860    0.6800 c3        1 4GH     -0.079400
     45 CAN        11.5850   -0.7180   -0.2130 c3        1 4GH     -0.079400
     46 CAO        12.7780   -1.2430    0.5580 c3        1 4GH     -0.079400
     47 CAP        13.9930   -1.3750   -0.3350 c3        1 4GH     -0.079400
     48 CAQ        15.1860   -1.8990    0.4350 c3        1 4GH     -0.079400
     49 CAR        16.4020   -2.0310   -0.4570 c3        1 4GH     -0.079400
     50 CAS        17.5950   -2.5550    0.3140 c3        1 4GH     -0.079400
     51 CAT        18.8100   -2.6870   -0.5790 c3        1 4GH     -0.079400
     52 CAU        20.0030   -3.2110    0.1920 c3        1 4GH     -0.079400
     53 CAV        21.2190   -3.3430   -0.7010 c3        1 4GH     -0.079400
     54 CAW        22.4120   -3.8670    0.0700 c3        1 4GH     -0.079400
     55 CAX        23.6270   -3.9990   -0.8230 c3        1 4GH     -0.079400
     56 CAY        24.8220   -4.5230   -0.0530 c3        1 4GH     -0.080400
     57 CAZ        26.0340   -4.6560   -0.9380 c3        1 4GH     -0.092100
     58 H1         -7.6440    5.8590    2.0260 h1        1 4GH      0.056700
     59 H1A        -5.8400    6.2020    1.8810 h1        1 4GH      0.056700
     60 H2         -6.2450    3.8740    2.6470 h1        1 4GH      0.093700
     61 HN2        -5.2490    3.9720   -0.1490 hn        1 4GH      0.309500
     62 H3         -8.0480    3.7130    0.1060 h1        1 4GH      0.082700
     63 HO3        -8.6210    3.3250    2.8410 ho        1 4GH      0.400000
     64 H4         -6.7500    1.5580    0.3720 hc        1 4GH      0.053700
     65 H4A        -7.1670    1.5100    2.1310 hc        1 4GH      0.053700
     66 H5         -9.6300    1.4540    1.5000 hc        1 4GH      0.045700
     67 H5A        -9.1610    1.4220   -0.2420 hc        1 4GH      0.045700
     68 H6         -7.8490   -0.6970    0.1490 hc        1 4GH      0.039700
     69 H6A        -8.3280   -0.6710    1.8890 hc        1 4GH      0.039700
     70 H7        -10.7560   -0.7650    1.2200 hc        1 4GH      0.040700
     71 H7A       -10.2750   -0.7960   -0.5190 hc        1 4GH      0.040700
     72 H8         -8.9710   -2.9150   -0.1210 hc        1 4GH      0.039200
     73 H8A        -9.4530   -2.8840    1.6180 hc        1 4GH      0.039200
     74 H9        -11.8790   -2.9820    0.9480 hc        1 4GH      0.039700
     75 H9A       -11.3980   -3.0120   -0.7920 hc        1 4GH      0.039700
     76 H10       -10.0940   -5.1310   -0.3930 hc        1 4GH      0.039700
     77 H10A      -10.5760   -5.1000    1.3460 hc        1 4GH      0.039700
     78 H11       -13.0020   -5.1970    0.6750 hc        1 4GH      0.039700
     79 H11A      -12.5210   -5.2280   -1.0640 hc        1 4GH      0.039700
     80 H12       -11.2170   -7.3470   -0.6660 hc        1 4GH      0.039700
     81 H12A      -11.7000   -7.3160    1.0740 hc        1 4GH      0.039700
     82 H13       -14.1260   -7.4130    0.4030 hc        1 4GH      0.039700
     83 H13A      -13.6440   -7.4440   -1.3360 hc        1 4GH      0.039700
     84 H14       -12.3410   -9.5620   -0.9380 hc        1 4GH      0.039700
     85 H14A      -12.8230   -9.5320    0.8010 hc        1 4GH      0.039700
     86 H15       -15.2490   -9.6290    0.1300 hc        1 4GH      0.039700
     87 H15A      -14.7670   -9.6600   -1.6090 hc        1 4GH      0.039700
     88 H16       -13.4640  -11.7790   -1.2110 hc        1 4GH      0.039700
     89 H16A      -13.9460  -11.7480    0.5290 hc        1 4GH      0.039700
     90 H17       -16.3710  -11.8440   -0.1420 hc        1 4GH      0.038700
     91 H17A      -15.8890  -11.8740   -1.8810 hc        1 4GH      0.038700
     92 H18       -15.1010  -13.9820    0.2500 hc        1 4GH      0.032700
     93 H18A      -16.3630  -14.1730   -1.0360 hc        1 4GH      0.032700
     94 H18B      -14.6170  -14.0130   -1.4940 hc        1 4GH      0.032700
     95 H1AA       -6.8650    7.9970    0.6860 h2        1 4GH      0.093700
     96 H2A        -7.6230    8.8330   -1.4960 h1        1 4GH      0.105700
     97 HO2A       -8.9780    6.4160   -0.9210 ho        1 4GH      0.415000
     98 H3A        -7.3770    5.9520   -2.6460 h1        1 4GH      0.045700
     99 HO3A       -7.6340    7.2210   -4.5450 ho        1 4GH      0.401000
    100 H4AA       -5.3080    6.7310   -3.8000 hc        1 4GH      0.062700
    101 H4AB       -5.4570    8.3680   -3.0380 hc        1 4GH      0.062700
    102 HO5A       -2.9870    6.8100    0.0790 ho        1 4GH      0.416000
    103 H5M        -5.0570    5.6670   -1.5370 h1        1 4GH      0.054700
    104 H6AA       -3.2020    8.1630   -1.7840 h1        1 4GH      0.057700
    105 H6AB       -2.9870    6.6040   -2.7380 h1        1 4GH      0.057700
    106 HAB        -3.1030    2.5290   -0.3130 hc        1 4GH      0.073700
    107 HABA       -2.6060    4.2320    0.0740 hc        1 4GH      0.073700
    108 HAC        -1.4400    3.3950    2.1530 hc        1 4GH      0.057200
    109 HACA       -1.9230    1.7080    1.7480 hc        1 4GH      0.057200
    110 HAD        -0.6870    1.8790   -0.4500 hc        1 4GH      0.039700
    111 HADA       -0.2030    3.5710   -0.0430 hc        1 4GH      0.039700
    112 HAE         0.9710    2.7370    2.0230 hc        1 4GH      0.042200
    113 HAEA        0.4870    1.0460    1.6170 hc        1 4GH      0.042200
    114 HAF         1.7200    1.2200   -0.5740 hc        1 4GH      0.039200
    115 HAFA        2.2030    2.9110   -0.1670 hc        1 4GH      0.039200
    116 HAG         3.3780    2.0780    1.9000 hc        1 4GH      0.040200
    117 HAGA        2.8950    0.3870    1.4930 hc        1 4GH      0.040200
    118 HAH         4.1280    0.5610   -0.6970 hc        1 4GH      0.039200
    119 HAHA        4.6110    2.2520   -0.2900 hc        1 4GH      0.039200
    120 HAI         5.7860    1.4210    1.7760 hc        1 4GH      0.039700
    121 HAIA        5.3030   -0.2710    1.3700 hc        1 4GH      0.039700
    122 HAJ         6.5360   -0.0970   -0.8190 hc        1 4GH      0.039200
    123 HAJA        7.0190    1.5950   -0.4130 hc        1 4GH      0.039200
    124 HAK         8.1940    0.7630    1.6540 hc        1 4GH      0.039700
    125 HAKA        7.7110   -0.9280    1.2480 hc        1 4GH      0.039700
    126 HAL         8.9450   -0.7540   -0.9420 hc        1 4GH      0.039700
    127 HALA        9.4270    0.9370   -0.5360 hc        1 4GH      0.039700
    128 HAM        10.6020    0.1060    1.5310 hc        1 4GH      0.039700
    129 HAMA       10.1200   -1.5850    1.1250 hc        1 4GH      0.039700
    130 HAN        11.3530   -1.4110   -1.0640 hc        1 4GH      0.039700
    131 HANA       11.8350    0.2810   -0.6580 hc        1 4GH      0.039700
    132 HAO        13.0100   -0.5500    1.4090 hc        1 4GH      0.039700
    133 HAOA       12.5280   -2.2410    1.0030 hc        1 4GH      0.039700
    134 HAP        13.7610   -2.0680   -1.1860 hc        1 4GH      0.039700
    135 HAPA       14.2430   -0.3760   -0.7810 hc        1 4GH      0.039700
    136 HAQ        15.4180   -1.2060    1.2870 hc        1 4GH      0.039700
    137 HAQA       14.9370   -2.8980    0.8820 hc        1 4GH      0.039700
    138 HAR        16.1700   -2.7240   -1.3080 hc        1 4GH      0.039700
    139 HARA       16.6510   -1.0320   -0.9030 hc        1 4GH      0.039700
    140 HAS        17.8270   -1.8620    1.1650 hc        1 4GH      0.039700
    141 HASA       17.3450   -3.5540    0.7600 hc        1 4GH      0.039700
    142 HAT        18.5780   -3.3810   -1.4300 hc        1 4GH      0.039700
    143 HATA       19.0600   -1.6890   -1.0250 hc        1 4GH      0.039700
    144 HAU        20.2350   -2.5180    1.0420 hc        1 4GH      0.039700
    145 HAUA       19.7540   -4.2100    0.6380 hc        1 4GH      0.039700
    146 HAV        20.9870   -4.0370   -1.5520 hc        1 4GH      0.039700
    147 HAVA       21.4680   -2.3450   -1.1470 hc        1 4GH      0.039700
    148 HAW        22.6440   -3.1730    0.9200 hc        1 4GH      0.039700
    149 HAWA       22.1630   -4.8650    0.5160 hc        1 4GH      0.039700
    150 HAX        23.3960   -4.6930   -1.6740 hc        1 4GH      0.039700
    151 HAXA       23.8770   -3.0010   -1.2690 hc        1 4GH      0.039700
    152 HAY        25.0510   -3.8290    0.7980 hc        1 4GH      0.038700
    153 HAYA       24.5690   -5.5210    0.3940 hc        1 4GH      0.038700
    154 HAZ        26.9020   -5.0430   -0.3510 hc        1 4GH      0.032700
    155 HAZA       25.8330   -5.3630   -1.7790 hc        1 4GH      0.032700
    156 HAZB       26.3160   -3.6670   -1.3730 hc        1 4GH      0.032700
    157 O5A        -2.6720    6.4270   -0.7500 oh        1 4GH     -0.604800
@<TRIPOS>BOND
     1    1    2 1   
     2    1   22 1   
     3    1   58 1   
     4    1   59 1   
     5    2    3 1   
     6    2    4 1   
     7    2   60 1   
     8    3   31 1   
     9    3   61 1   
    10    4    5 1   
    11    4    6 1   
    12    4   62 1   
    13    5   63 1   
    14    6    7 1   
    15    6   64 1   
    16    6   65 1   
    17    7    8 1   
    18    7   66 1   
    19    7   67 1   
    20    8    9 1   
    21    8   68 1   
    22    8   69 1   
    23    9   10 1   
    24    9   70 1   
    25    9   71 1   
    26   10   11 1   
    27   10   72 1   
    28   10   73 1   
    29   11   12 1   
    30   11   74 1   
    31   11   75 1   
    32   12   13 1   
    33   12   76 1   
    34   12   77 1   
    35   13   14 1   
    36   13   78 1   
    37   13   79 1   
    38   14   15 1   
    39   14   80 1   
    40   14   81 1   
    41   15   16 1   
    42   15   82 1   
    43   15   83 1   
    44   16   17 1   
    45   16   84 1   
    46   16   85 1   
    47   17   18 1   
    48   17   86 1   
    49   17   87 1   
    50   18   19 1   
    51   18   88 1   
    52   18   89 1   
    53   19   20 1   
    54   19   90 1   
    55   19   91 1   
    56   20   92 1   
    57   20   93 1   
    58   20   94 1   
    59   21   22 1   
    60   21   23 1   
    61   21   30 1   
    62   21   95 1   
    63   23   24 1   
    64   23   25 1   
    65   23   96 1   
    66   24   97 1   
    67   25   26 1   
    68   25   27 1   
    69   25   98 1   
    70   26   99 1   
    71   27   28 1   
    72   27  100 1   
    73   27  101 1   
    74   28   29 1   
    75   28   30 1   
    76   28  103 1   
    77   29  104 1   
    78   29  105 1   
    79   29  157 1   
    80   31   32 2   
    81   31   33 1   
    82   33   34 1   
    83   33  106 1   
    84   33  107 1   
    85   34   35 1   
    86   34  108 1   
    87   34  109 1   
    88   35   36 1   
    89   35  110 1   
    90   35  111 1   
    91   36   37 1   
    92   36  112 1   
    93   36  113 1   
    94   37   38 1   
    95   37  114 1   
    96   37  115 1   
    97   38   39 1   
    98   38  116 1   
    99   38  117 1   
   100   39   40 1   
   101   39  118 1   
   102   39  119 1   
   103   40   41 1   
   104   40  120 1   
   105   40  121 1   
   106   41   42 1   
   107   41  122 1   
   108   41  123 1   
   109   42   43 1   
   110   42  124 1   
   111   42  125 1   
   112   43   44 1   
   113   43  126 1   
   114   43  127 1   
   115   44   45 1   
   116   44  128 1   
   117   44  129 1   
   118   45   46 1   
   119   45  130 1   
   120   45  131 1   
   121   46   47 1   
   122   46  132 1   
   123   46  133 1   
   124   47   48 1   
   125   47  134 1   
   126   47  135 1   
   127   48   49 1   
   128   48  136 1   
   129   48  137 1   
   130   49   50 1   
   131   49  138 1   
   132   49  139 1   
   133   50   51 1   
   134   50  140 1   
   135   50  141 1   
   136   51   52 1   
   137   51  142 1   
   138   51  143 1   
   139   52   53 1   
   140   52  144 1   
   141   52  145 1   
   142   53   54 1   
   143   53  146 1   
   144   53  147 1   
   145   54   55 1   
   146   54  148 1   
   147   54  149 1   
   148   55   56 1   
   149   55  150 1   
   150   55  151 1   
   151   56   57 1   
   152   56  152 1   
   153   56  153 1   
   154   57  154 1   
   155   57  155 1   
   156   57  156 1   
   157  102  157 1   
@<TRIPOS>SUBSTRUCTURE
     1 4GH         1 TEMP              0 ****  ****    0 ROOT
