@<TRIPOS>MOLECULE
4GI
   54    52     1     0     0
SMALL
bcc


@<TRIPOS>ATOM
      1 C          -0.6740   -0.0760    0.3810 ca        1 4GI     -0.166000
      2 N          -0.9280    1.7650    4.6360 n3        1 4GI     -0.817000
      3 O          -0.0900   -0.5090    5.2400 o         1 4GI     -0.920500
      4 S          -0.9610    0.1500    4.3530 s6        1 4GI      2.843000
      5 C1          0.6690   -0.3820    0.1790 ca        1 4GI     -0.009000
      6 O1         -2.3050   -0.2810    4.3270 o         1 4GI     -0.920500
      7 C2          1.5160   -0.4970    1.2960 ca        1 4GI     -0.160000
      8 C3          1.0220   -0.3150    2.5950 ca        1 4GI      0.042000
      9 C4         -0.3280   -0.0070    2.7880 ca        1 4GI     -0.828000
     10 C5         -1.1660    0.1120    1.6710 ca        1 4GI      0.026000
     11 C6          0.2740    2.4120    5.1170 c3        1 4GI     -0.034000
     12 C7          1.0700    3.1770    4.0720 c3        1 4GI     -0.247000
     13 C8          1.4980    6.0740    4.3660 c1        1 4GI      0.139000
     14 C9          0.4950    6.8280    4.0200 c2        1 4GI     -0.549000
     15 C10        -2.0980    2.5770    4.5150 c3        1 4GI     -0.008000
     16 C11        -2.1300    3.4750    3.2890 c2        1 4GI      0.291000
     17 C12        -4.8590    0.3790    2.4110 c3        1 4GI     -0.209000
     18 C13        -6.2930    0.5990    2.6710 c2        1 4GI     -0.139000
     19 C14        -7.2700    0.1230    1.8860 c2        1 4GI     -0.144000
     20 H1         -1.3490    0.0140   -0.4850 ha        1 4GI      0.157000
     21 H2          1.0680   -0.5340   -0.8400 ha        1 4GI      0.177000
     22 H4          1.6950   -0.4310    3.4700 ha        1 4GI      0.193000
     23 H5         -2.2370    0.3590    1.8220 ha        1 4GI      0.172000
     24 H6          1.4620    2.4950    3.2800 hc        1 4GI      0.094000
     25 H7         -0.0040    3.1250    5.9470 h1        1 4GI      0.108000
     26 H8          1.9350    3.6790    4.5750 hc        1 4GI      0.094000
     27 H9          0.9360    1.6150    5.5710 h1        1 4GI      0.108000
     28 H10         0.4450    3.9660    3.5850 hc        1 4GI      0.094000
     29 H11        -2.1910    3.2630    5.4090 h1        1 4GI      0.139500
     30 H12         0.5070    7.9290    4.0350 ha        1 4GI      0.202000
     31 H13        -0.4740    6.4160    3.6760 ha        1 4GI      0.202000
     32 H14        -3.0170    1.9150    4.4660 h1        1 4GI      0.139500
     33 H15        -2.5560    3.4780    1.4120 ho        1 4GI      0.249000
     34 H16        -4.6890   -0.2360    1.4930 hc        1 4GI      0.090667
     35 H17        -4.3810   -0.1450    3.2810 hc        1 4GI      0.090667
     36 H18        -6.5220    1.1840    3.5780 ha        1 4GI      0.122000
     37 H19        -4.3380    1.3630    2.2760 hc        1 4GI      0.090667
     38 H20        -7.0230   -0.4740    0.9900 ha        1 4GI      0.122000
     39 C15        -8.6940    0.3200    2.1280 c2        1 4GI     -0.047000
     40 C16        -9.0650    1.2820    3.1630 c2        1 4GI     -0.130000
     41 C17        -9.9250    1.0450    4.1530 c2        1 4GI     -0.214000
     42 C18       -11.9550   -0.9710    0.9270 c1        1 4GI      0.201000
     43 C19       -11.0270   -0.2340    1.5020 c2        1 4GI     -0.450000
     44 C20        -9.5960   -0.3610    1.3830 c2        1 4GI     -0.074000
     45 H21        -8.5550    2.2590    3.0780 ha        1 4GI      0.127000
     46 H22       -10.1640    1.8040    4.9090 ha        1 4GI      0.117000
     47 H23       -10.4330    0.0800    4.2840 ha        1 4GI      0.117000
     48 H24       -11.3860    0.5920    2.1610 ha        1 4GI      0.201000
     49 H25        -9.2410   -1.0640    0.6080 ha        1 4GI      0.129000
     50 N1          2.9550   -0.8170    1.0930 no        1 4GI      0.571000
     51 O4          3.3500   -1.0120   -0.0250 o         1 4GI     -0.350500
     52 O5          3.6790   -0.8660    2.0500 o         1 4GI     -0.350500
     53 O2         -2.5150    2.8430    2.1480 oh        1 4GI     -0.324000
     54 O3         -1.9020    4.6840    3.2120 o         1 4GI     -0.362000
@<TRIPOS>BOND
     1    1    5 1   
     2    1   10 1   
     3    1   20 1   
     4    2    4 1   
     5    2   11 1   
     6    2   15 1   
     7    3    4 1   
     8    4    6 1   
     9    4    9 1   
    10    5    7 1   
    11    5   21 1   
    12    7    8 1   
    13    7   50 1   
    14    8    9 1   
    15    8   22 1   
    16    9   10 1   
    17   10   23 1   
    18   11   12 1   
    19   11   25 1   
    20   11   27 1   
    21   12   24 1   
    22   12   26 1   
    23   12   28 1   
    24   13   14 1   
    25   14   30 1   
    26   14   31 1   
    27   15   16 1   
    28   15   29 1   
    29   15   32 1   
    30   16   53 1   
    31   16   54 1   
    32   17   18 1   
    33   17   34 1   
    34   17   35 1   
    35   17   37 1   
    36   18   19 1   
    37   18   36 1   
    38   19   38 1   
    39   19   39 1   
    40   33   53 1   
    41   39   40 1   
    42   39   44 1   
    43   40   41 1   
    44   40   45 1   
    45   41   46 1   
    46   41   47 1   
    47   42   43 1   
    48   43   44 1   
    49   43   48 1   
    50   44   49 1   
    51   50   51 1   
    52   50   52 1   
@<TRIPOS>SUBSTRUCTURE
     1 4GI         1 TEMP              0 ****  ****    0 ROOT
