@<TRIPOS>MOLECULE
4GI
   54    56     1     0     0
SMALL
bcc


@<TRIPOS>ATOM
      1 C          -3.3930    2.4270   -1.2960 ca        1 4GI     -0.164000
      2 N          -1.2930   -1.3920    0.3180 n3        1 4GI     -0.809500
      3 O          -1.7080   -0.2220    2.4740 o         1 4GI     -0.640300
      4 S          -1.3350    0.0190    1.1370 sy        1 4GI      1.507200
      5 C1         -4.6820    2.3710   -0.7760 ca        1 4GI     -0.013000
      6 O1         -0.1350    0.7280    0.9200 o         1 4GI     -0.640300
      7 C2         -4.9300    1.5570    0.3440 ca        1 4GI     -0.207200
      8 C3         -3.8970    0.8190    0.9370 ca        1 4GI      0.037000
      9 C4         -2.6060    0.8760    0.4030 ca        1 4GI     -0.381500
     10 C5         -2.3650    1.6850   -0.7140 ca        1 4GI      0.026000
     11 C6         -2.2330   -2.4420    0.6500 c3        1 4GI      0.218800
     12 C7         -2.9740   -3.0250   -0.5530 c3        1 4GI     -0.095400
     13 C8         -1.9960   -3.4630   -1.6210 c3        1 4GI     -0.076400
     14 C9         -1.0510   -2.3380   -1.9830 c3        1 4GI     -0.091400
     15 C10        -0.3630   -1.7760   -0.7250 c3        1 4GI      0.208500
     16 C11         0.5390   -0.6310   -1.1840 c         1 4GI      0.630100
     17 C12         2.7170    0.3090   -1.0280 c3        1 4GI      0.138400
     18 C13         4.0640   -0.1160   -0.4750 c3        1 4GI     -0.083400
     19 C14         5.0750    0.9980   -0.6690 c3        1 4GI     -0.035100
     20 H1         -3.1840    3.0620   -2.1720 ha        1 4GI      0.159000
     21 H2         -5.5020    2.9550   -1.2310 ha        1 4GI      0.174000
     22 H4         -4.0970    0.2020    1.8370 ha        1 4GI      0.189000
     23 H5         -1.3410    1.7370   -1.1370 ha        1 4GI      0.188000
     24 H6         -1.6740   -3.2770    1.1650 h1        1 4GI      0.059200
     25 H7         -2.9850   -2.0290    1.3840 h1        1 4GI      0.059200
     26 H8         -3.5810   -3.8990   -0.2020 hc        1 4GI      0.055200
     27 H9         -3.6820   -2.2660   -0.9760 hc        1 4GI      0.055200
     28 H10        -1.4070   -4.3440   -1.2520 hc        1 4GI      0.050200
     29 H11        -2.5540   -3.7910   -2.5370 hc        1 4GI      0.050200
     30 H12        -0.2550   -2.7110   -2.6780 hc        1 4GI      0.064200
     31 H13        -1.6070   -1.5170   -2.5070 hc        1 4GI      0.064200
     32 H14         0.3090   -2.5870   -0.2990 h1        1 4GI      0.083700
     33 H15         2.7560    0.4960   -2.1320 h1        1 4GI      0.061700
     34 H16         2.3100    1.2140   -0.5040 h1        1 4GI      0.061700
     35 H17         3.9630   -0.3590    0.6150 hc        1 4GI      0.060200
     36 H18         4.4090   -1.0470   -0.9950 hc        1 4GI      0.060200
     37 H19         5.1700    1.2300   -1.7640 hc        1 4GI      0.051200
     38 H20         4.7020    1.9310   -0.1640 hc        1 4GI      0.051200
     39 C15         6.4030    0.6330   -0.1060 ca        1 4GI     -0.080300
     40 C16         7.4780    0.3400   -0.9520 ca        1 4GI     -0.126000
     41 C17         8.7230    0.0090   -0.4180 ca        1 4GI     -0.128000
     42 C18         8.9040   -0.0320    0.9640 ca        1 4GI     -0.131000
     43 C19         7.8360    0.2610    1.8120 ca        1 4GI     -0.128000
     44 C20         6.5910    0.5920    1.2810 ca        1 4GI     -0.126000
     45 H21         7.3410    0.3710   -2.0430 ha        1 4GI      0.132000
     46 H22         9.5630   -0.2200   -1.0900 ha        1 4GI      0.131500
     47 H23         9.8860   -0.2920    1.3840 ha        1 4GI      0.131000
     48 H24         7.9760    0.2310    2.9030 ha        1 4GI      0.131500
     49 H25         5.7500    0.8230    1.9510 ha        1 4GI      0.132000
     50 N1         -6.3040    1.4810    0.9040 no        1 4GI      0.316200
     51 O4         -7.1630    2.1730    0.4270 o         1 4GI     -0.204500
     52 O5         -6.5210    0.7240    1.8120 o         1 4GI     -0.204500
     53 O2          0.2360    0.3260   -1.9010 o         1 4GI     -0.550000
     54 O3          1.8220   -0.7940   -0.7740 os        1 4GI     -0.416900
@<TRIPOS>BOND
     1    1    5 ar  
     2    1   10 ar  
     3    1   20 1   
     4    2    4 1   
     5    2   11 1   
     6    2   15 1   
     7    3    4 2   
     8    4    6 2   
     9    4    9 1   
    10    5    7 ar  
    11    5   21 1   
    12    7    8 ar  
    13    7   50 1   
    14    8    9 ar  
    15    8   22 1   
    16    9   10 ar  
    17   10   23 1   
    18   11   12 1   
    19   11   24 1   
    20   11   25 1   
    21   12   13 1   
    22   12   26 1   
    23   12   27 1   
    24   13   14 1   
    25   13   28 1   
    26   13   29 1   
    27   14   15 1   
    28   14   30 1   
    29   14   31 1   
    30   15   16 1   
    31   15   32 1   
    32   16   53 2   
    33   16   54 1   
    34   17   18 1   
    35   17   33 1   
    36   17   34 1   
    37   17   54 1   
    38   18   19 1   
    39   18   35 1   
    40   18   36 1   
    41   19   37 1   
    42   19   38 1   
    43   19   39 1   
    44   39   40 ar  
    45   39   44 ar  
    46   40   41 ar  
    47   40   45 1   
    48   41   42 ar  
    49   41   46 1   
    50   42   43 ar  
    51   42   47 1   
    52   43   44 ar  
    53   43   48 1   
    54   44   49 1   
    55   50   51 1   
    56   50   52 1   
@<TRIPOS>SUBSTRUCTURE
     1 4GI         1 TEMP              0 ****  ****    0 ROOT
