@<TRIPOS>MOLECULE
4GI
   54    52     1     0     0
SMALL
bcc


@<TRIPOS>ATOM
      1 C           0.7530   -1.5200    1.2240 c3        1 4GI     -0.252000
      2 N          -1.3740    1.0340    3.9440 n3        1 4GI     -0.877000
      3 O           0.4590    0.8450    5.6310 o         1 4GI     -0.910500
      4 S          -0.2810    0.1160    4.6910 s6        1 4GI      2.852000
      5 C1          1.2110   -0.2950    0.5310 c2        1 4GI      0.044000
      6 O1         -0.8860   -1.0520    5.1620 o         1 4GI     -0.910500
      7 C2          1.3570    0.8740    1.2280 c2        1 4GI     -0.229000
      8 C3          1.0370    0.9830    2.6100 c1        1 4GI     -0.029000
      9 C4          0.8790   -0.2480    3.3780 c3        1 4GI     -0.851000
     10 C5          0.6760   -1.5040    2.6760 c1        1 4GI      0.026000
     11 C6          2.5520    2.5760    8.2510 c1        1 4GI      0.328000
     12 C7          2.2440    3.1470    7.1000 c2        1 4GI     -0.544000
     13 C8          2.6990    4.4330    6.7100 c1        1 4GI     -0.034000
     14 C9          2.3080    4.9910    5.4290 c3        1 4GI     -0.269000
     15 C10        -2.7180    0.6450    3.6740 c3        1 4GI     -0.006000
     16 C11        -2.9510    0.1640    2.2510 c2        1 4GI      0.287000
     17 C12        -4.5950   -0.1530    0.5580 c3        1 4GI     -0.067000
     18 C13        -7.6160    1.0850    2.5250 c2        1 4GI     -0.221000
     19 C14        -8.3900    1.0290    1.4430 c2        1 4GI     -0.161000
     20 H1         -0.3150   -1.7460    0.8820 hc        1 4GI      0.199000
     21 H2          1.3930   -0.3590   -0.5590 ha        1 4GI      0.175000
     22 H4          1.8750   -0.4020    3.9300 h1        1 4GI      0.264000
     23 H5          1.3720   -2.4090    0.8980 hc        1 4GI      0.199000
     24 H6          0.3300    3.5030    2.9780 ha        1 4GI      0.002500
     25 H7         -1.1160    1.9230    3.5640 hn        1 4GI      0.277000
     26 H8          1.5840    2.5440    6.4220 ha        1 4GI      0.212000
     27 H9         -0.1810    3.8800    3.2180 ha        1 4GI      0.002500
     28 H10         1.8410    5.9950    5.6200 hc        1 4GI      0.101333
     29 H11         1.6050    4.3820    4.8040 hc        1 4GI      0.101333
     30 H12        -3.4160    1.5130    3.8650 h1        1 4GI      0.146500
     31 H13         3.2470    5.1700    4.8380 hc        1 4GI      0.101333
     32 H14        -3.0200   -0.2110    4.3530 h1        1 4GI      0.146500
     33 H15        -4.3920   -1.2480    0.4770 h1        1 4GI      0.097333
     34 H16        -4.0090    0.4070   -0.2080 h1        1 4GI      0.097333
     35 H17        -8.0060    1.3180    3.5250 ha        1 4GI      0.119000
     36 H18        -5.6900    0.0700    0.4860 h1        1 4GI      0.097333
     37 H19        -7.9550    0.7960    0.4560 ha        1 4GI      0.114000
     38 H20        -6.5330    0.9000    2.4790 ha        1 4GI      0.119000
     39 C15        -9.8550    1.2760    1.4290 c3        1 4GI     -0.100000
     40 C16       -10.2130    2.7340    1.7700 c3        1 4GI     -0.243000
     41 C17       -11.2550    2.7390    2.8180 c1        1 4GI      0.056000
     42 C18       -11.5010    1.3630    3.2100 c2        1 4GI     -0.526000
     43 C19       -12.4040    1.0700    4.1340 c1        1 4GI      0.360000
     44 C20       -10.6230    0.4100    2.4470 c3        1 4GI     -0.084000
     45 H21       -10.5890    3.2860    0.8690 hc        1 4GI      0.139500
     46 H22        -9.3220    3.2980    2.1580 hc        1 4GI      0.139500
     47 H23        -9.9180   -0.1120    3.1430 hc        1 4GI      0.095500
     48 H24       -11.2350   -0.3640    1.9220 hc        1 4GI      0.095500
     49 H25       -10.2470    1.0390    0.4010 hc        1 4GI      0.096000
     50 N1          1.7800    2.1130    0.5080 no        1 4GI      0.575000
     51 O4          2.2750    1.9810   -0.5820 o         1 4GI     -0.346500
     52 O5          1.6160    3.1850    1.0120 o         1 4GI     -0.346500
     53 O2         -2.1500   -0.3350    1.4560 o         1 4GI     -0.389000
     54 O3         -4.2500    0.3090    1.8680 os        1 4GI     -0.268000
@<TRIPOS>BOND
     1    1    5 1   
     2    1   10 1   
     3    1   20 1   
     4    1   23 1   
     5    2    4 1   
     6    2   15 1   
     7    2   25 1   
     8    3    4 1   
     9    4    6 1   
    10    4    9 1   
    11    5    7 1   
    12    5   21 1   
    13    7    8 1   
    14    7   50 1   
    15    8    9 1   
    16    9   10 1   
    17    9   22 1   
    18   11   12 1   
    19   12   13 1   
    20   12   26 1   
    21   13   14 1   
    22   14   28 1   
    23   14   29 1   
    24   14   31 1   
    25   15   16 1   
    26   15   30 1   
    27   15   32 1   
    28   16   53 1   
    29   16   54 1   
    30   17   33 1   
    31   17   34 1   
    32   17   36 1   
    33   17   54 1   
    34   18   19 1   
    35   18   35 1   
    36   18   38 1   
    37   19   37 1   
    38   19   39 1   
    39   24   27 1   
    40   39   40 1   
    41   39   44 1   
    42   39   49 1   
    43   40   41 1   
    44   40   45 1   
    45   40   46 1   
    46   41   42 1   
    47   42   43 1   
    48   42   44 1   
    49   44   47 1   
    50   44   48 1   
    51   50   51 1   
    52   50   52 1   
@<TRIPOS>SUBSTRUCTURE
     1 4GI         1 TEMP              0 ****  ****    0 ROOT
