@<TRIPOS>MOLECULE
4GI
   54    50     1     0     0
SMALL
bcc


@<TRIPOS>ATOM
      1 C          -4.7310   -3.9430   -0.0850 c1        1 4GI     -0.108500
      2 N          -0.2120   -2.5320   -0.3520 n3        1 4GI     -0.823000
      3 O          -0.5690   -3.1910   -2.8600 o         1 4GI     -0.525400
      4 S          -1.2640   -2.6600   -1.6490 s4        1 4GI      2.061800
      5 C1         -4.9470   -5.1530   -0.7550 c1        1 4GI     -0.108500
      6 O1         -1.7020   -1.2980   -2.1280 o         1 4GI     -0.525400
      7 C2         -4.0440   -5.6010   -1.6290 c1        1 4GI     -0.157000
      8 O2          0.8800   -0.2870   -1.4340 o         1 4GI     -0.341000
      9 C3         -2.8720   -4.8560   -1.8770 c1        1 4GI      0.040000
     10 O3          1.0940    0.9840    0.3640 os        1 4GI     -0.278000
     11 C4         -2.6580   -3.6690   -1.2210 c1        1 4GI     -0.816000
     12 C5         -3.5750   -3.2110   -0.3310 c1        1 4GI      0.012000
     13 C6          1.0050   -3.3210   -0.3200 c3        1 4GI     -0.033000
     14 C7          1.5010   -3.5590    1.0490 c3        1 4GI     -0.172000
     15 C8          1.6300   -2.3040    1.8550 c3        1 4GI     -0.161000
     16 C9          0.4030   -1.5000    1.8470 c3        1 4GI     -0.164000
     17 C10        -0.1130   -1.2100    0.4290 c3        1 4GI      0.060000
     18 C11         0.7230   -0.1940   -0.2950 c2        1 4GI      0.290000
     19 C12         1.3620    2.0970   -0.5150 c3        1 4GI     -0.012000
     20 C13         1.5460    3.3650    0.3250 c3        1 4GI     -0.162000
     21 C14         1.9670    4.5660   -0.6020 c3        1 4GI     -0.121000
     22 H1         -5.4670   -3.5750    0.6280 ha        1 4GI      0.149250
     23 H2         -5.7720   -5.6770   -0.5810 ha        1 4GI      0.149250
     24 H4         -2.2230   -5.1790   -2.5080 ha        1 4GI      0.179000
     25 H5         -3.4170   -2.3320    0.1540 ha        1 4GI      0.174000
     26 H6          0.8290   -4.1860   -0.7470 h1        1 4GI      0.115500
     27 H7          1.6760   -2.8690   -0.8150 h1        1 4GI      0.115500
     28 H8          2.4230   -4.0160    0.9950 hc        1 4GI      0.092500
     29 H9          0.8560   -4.1780    1.5230 hc        1 4GI      0.092500
     30 H10         1.8590   -2.5590    2.8400 hc        1 4GI      0.095000
     31 H11         2.3880   -1.7480    1.4770 hc        1 4GI      0.095000
     32 H12         0.5760   -0.6610    2.2910 hc        1 4GI      0.100000
     33 H13        -0.3630   -2.0320    2.3930 hc        1 4GI      0.100000
     34 H14        -0.9870   -0.7420    0.4630 h1        1 4GI      0.133000
     35 H15         2.1790    1.9220   -1.0260 h1        1 4GI      0.093500
     36 H16         0.5740    2.2210   -1.1620 h1        1 4GI      0.093500
     37 H17         0.7400    3.5710    0.7510 hc        1 4GI      0.099500
     38 H18         2.3370    3.1930    1.0930 hc        1 4GI      0.099500
     39 H19         1.3060    4.7090   -1.2460 hc        1 4GI      0.090500
     40 H20         2.8420    4.3480   -1.0570 hc        1 4GI      0.090500
     41 C15         2.1340    5.8420    0.2660 c2        1 4GI     -0.074000
     42 C16         1.0490    6.6470    0.5200 c2        1 4GI     -0.126000
     43 C17         1.2050    7.8210    1.3040 c1        1 4GI     -0.127000
     44 C18         2.3960    8.1410    1.7910 c1        1 4GI     -0.108500
     45 C19         3.5170    7.3150    1.5330 c1        1 4GI     -0.108500
     46 C20         3.3730    6.1770    0.7750 c1        1 4GI     -0.126000
     47 H21         0.1750    6.4140    0.1650 ha        1 4GI      0.133000
     48 H22         0.4130    8.4120    1.4900 ha        1 4GI      0.132000
     49 H23         2.4930    8.8990    2.2960 ha        1 4GI      0.149250
     50 H24         4.3620    7.5460    1.8820 ha        1 4GI      0.149250
     51 H25         4.1410    5.6140    0.5990 ha        1 4GI      0.131000
     52 N1         -4.3310   -6.7970   -2.4250 no        1 4GI      0.571000
     53 O4         -3.3640   -7.2870   -3.3020 o         1 4GI     -0.352500
     54 O5         -5.3400   -7.4780   -2.1710 o         1 4GI     -0.352500
@<TRIPOS>BOND
     1    1    5 1   
     2    1   22 1   
     3    2    4 1   
     4    2   13 1   
     5    2   17 1   
     6    3    4 1   
     7    4    6 1   
     8    5   23 1   
     9    7    9 1   
    10    7   52 1   
    11    8   18 1   
    12    9   24 1   
    13   10   18 1   
    14   10   19 1   
    15   11   12 1   
    16   12   25 1   
    17   13   14 1   
    18   13   26 1   
    19   13   27 1   
    20   14   15 1   
    21   14   28 1   
    22   14   29 1   
    23   15   16 1   
    24   15   30 1   
    25   15   31 1   
    26   16   17 1   
    27   16   32 1   
    28   16   33 1   
    29   17   18 1   
    30   17   34 1   
    31   19   20 1   
    32   19   35 1   
    33   19   36 1   
    34   20   21 1   
    35   20   37 1   
    36   20   38 1   
    37   21   39 1   
    38   21   40 1   
    39   21   41 1   
    40   41   42 1   
    41   41   46 1   
    42   42   43 1   
    43   42   47 1   
    44   43   48 1   
    45   44   45 1   
    46   44   49 1   
    47   45   50 1   
    48   46   51 1   
    49   52   53 1   
    50   52   54 1   
@<TRIPOS>SUBSTRUCTURE
     1 4GI         1 TEMP              0 ****  ****    0 ROOT
