@<TRIPOS>MOLECULE
4GI
   54    55     1     0     0
SMALL
bcc


@<TRIPOS>ATOM
      1 C          -1.0910    0.6990    0.2340 ca        1 4GI     -0.159000
      2 N          -0.6370    1.1260    4.7160 n3        1 4GI     -0.821000
      3 O           0.3430   -1.1720    4.5750 o         1 4GI     -0.920000
      4 S          -0.7000   -0.3800    4.0600 s6        1 4GI      2.845000
      5 C1          0.1130    0.2880   -0.3270 ca        1 4GI     -0.012000
      6 O1         -2.0110   -0.8780    4.1990 o         1 4GI     -0.920000
      7 C2          1.0770   -0.3180    0.5000 ca        1 4GI     -0.162000
      8 C3          0.8320   -0.5120    1.8650 ca        1 4GI      0.036000
      9 C4         -0.3840   -0.0970    2.4210 ca        1 4GI     -0.835000
     10 C5         -1.3390    0.5090    1.5950 ca        1 4GI      0.021000
     11 C6          0.6550    1.7260    4.9540 c3        1 4GI     -0.018000
     12 C7          0.6580    3.1120    5.6030 c3        1 4GI     -0.148000
     13 C8         -0.4330    3.2680    6.5940 c2        1 4GI     -0.112000
     14 C9         -1.6090    2.6630    6.3980 c2        1 4GI     -0.197000
     15 C10        -1.8230    1.7950    5.1880 c3        1 4GI      0.077000
     16 C11        -2.4380    2.6770    4.0970 c2        1 4GI      0.305000
     17 C12        -4.1900    1.8460    2.8000 c1        1 4GI      0.017000
     18 C13        -5.6690    1.7510    2.6820 c3        1 4GI     -0.243000
     19 C14        -6.0520    0.4530    1.9990 c3        1 4GI     -0.132000
     20 H1         -1.8550    1.1820   -0.3960 ha        1 4GI      0.161000
     21 H2          0.3160    0.4340   -1.4030 ha        1 4GI      0.175000
     22 H4          1.5950   -1.0020    2.5060 ha        1 4GI      0.195000
     23 H5         -2.3130    0.8490    2.0160 ha        1 4GI      0.194000
     24 H6          1.1950    1.8050    3.9640 h1        1 4GI      0.094000
     25 H7          1.2460    1.0240    5.6160 h1        1 4GI      0.094000
     26 H8          0.5270    3.8980    4.8070 hc        1 4GI      0.113500
     27 H9          1.6600    3.2710    6.0800 hc        1 4GI      0.113500
     28 H10        -0.2350    3.9070    7.4670 ha        1 4GI      0.143000
     29 H11        -2.4660    2.7490    7.0780 ha        1 4GI      0.153000
     30 H12        -1.4710    3.8770    1.0410 ha        1 4GI      0.001500
     31 H13        -1.4750    3.2000    0.9950 ha        1 4GI      0.001500
     32 H14        -2.6030    1.0020    5.4410 h1        1 4GI      0.156000
     33 H15        -4.2910   -0.6200    4.7000 ha        1 4GI      0.001500
     34 H16        -4.4290    0.0070    4.4810 ha        1 4GI      0.001500
     35 H17        -6.2070    1.8380    3.6650 hc        1 4GI      0.116500
     36 H18        -5.9890    2.6300    2.0520 hc        1 4GI      0.116500
     37 H19        -5.7280   -0.4040    2.6500 hc        1 4GI      0.093000
     38 H20        -5.5000    0.3640    1.0260 hc        1 4GI      0.093000
     39 C15        -7.5380    0.3310    1.7420 c3        1 4GI     -0.081000
     40 C16        -8.0410    1.3200    0.6170 c3        1 4GI     -0.064000
     41 C17        -9.1410    2.0200    1.2720 cu        1 4GI     -0.175000
     42 C18       -10.0830    2.5330    2.0540 cu        1 4GI     -0.010000
     43 C19        -9.2780    1.5310    2.6910 cu        1 4GI     -0.179000
     44 C20        -8.3840    0.5990    2.9920 c2        1 4GI     -0.180000
     45 H21        -8.3860    0.7480   -0.2790 hc        1 4GI      0.110500
     46 H22        -7.2290    2.0220    0.3020 hc        1 4GI      0.110500
     47 H23       -10.9040    3.2070    2.1990 ha        1 4GI      0.203000
     48 H24        -8.2110    0.0530    3.9150 ha        1 4GI      0.157000
     49 H25        -7.7480   -0.7170    1.3970 hc        1 4GI      0.097000
     50 N1          2.3720   -0.7540   -0.0860 no        1 4GI      0.571000
     51 O4          2.5450   -0.6240   -1.2680 o         1 4GI     -0.353500
     52 O5          3.2100   -1.2200    0.6380 o         1 4GI     -0.353500
     53 O2         -1.9650    3.5650    3.4090 o         1 4GI     -0.249000
     54 O3         -3.8260    2.4550    3.9260 os        1 4GI     -0.241000
@<TRIPOS>BOND
     1    1    5 1   
     2    1   10 1   
     3    1   20 1   
     4    2    4 1   
     5    2   11 1   
     6    2   15 1   
     7    3    4 1   
     8    4    6 1   
     9    4    9 1   
    10    5    7 1   
    11    5   21 1   
    12    7    8 1   
    13    7   50 1   
    14    8    9 1   
    15    8   22 1   
    16    9   10 1   
    17   10   23 1   
    18   11   12 1   
    19   11   24 1   
    20   11   25 1   
    21   12   13 1   
    22   12   26 1   
    23   12   27 1   
    24   13   14 1   
    25   13   28 1   
    26   14   15 1   
    27   14   29 1   
    28   15   16 1   
    29   15   32 1   
    30   16   53 1   
    31   16   54 1   
    32   17   18 1   
    33   17   54 1   
    34   18   19 1   
    35   18   35 1   
    36   18   36 1   
    37   19   37 1   
    38   19   38 1   
    39   19   39 1   
    40   30   31 1   
    41   33   34 1   
    42   39   40 1   
    43   39   44 1   
    44   39   49 1   
    45   40   41 1   
    46   40   45 1   
    47   40   46 1   
    48   41   42 1   
    49   41   43 1   
    50   42   43 1   
    51   42   47 1   
    52   43   44 1   
    53   44   48 1   
    54   50   51 1   
    55   50   52 1   
@<TRIPOS>SUBSTRUCTURE
     1 4GI         1 TEMP              0 ****  ****    0 ROOT
