@<TRIPOS>MOLECULE
4GK
   46    50     1     0     0
SMALL
bcc


@<TRIPOS>ATOM
      1 CAC         0.1020    0.0390   -0.2280 c3        1 4GK      0.025600
      2 NAZ         1.5200   -0.0140   -0.1180 na        1 4GK     -0.142300
      3 CAW         2.2740    0.0050    1.0580 ca        1 4GK     -0.090200
      4 CAH         1.9080    0.0170    2.4250 ca        1 4GK     -0.111000
      5 CAG         2.9010    0.0240    3.3650 ca        1 4GK     -0.155300
      6 CAU         4.2980    0.0210    3.0060 ca        1 4GK      0.383600
      7 NAM         5.2410    0.0290    4.0120 nb        1 4GK     -0.659000
      8 CAE         6.5200    0.0250    3.6670 ca        1 4GK      0.403200
      9 CAD         6.9890    0.0130    2.3200 ca        1 4GK     -0.251300
     10 CAF         6.0630    0.0050    1.3030 ca        1 4GK     -0.068000
     11 CAV         4.6820    0.0090    1.6280 ca        1 4GK     -0.091300
     12 CAX         3.6540    0.0020    0.6490 ca        1 4GK      0.076400
     13 NAO         3.7330   -0.0100   -0.7500 nc        1 4GK     -0.555100
     14 CAT         2.4520   -0.0120   -1.1880 cd        1 4GK      0.395800
     15 CAK         2.0270   -0.0270   -2.6210 c3        1 4GK     -0.089700
     16 CAJ         1.8410   -1.4570   -3.1010 c3        1 4GK     -0.078700
     17 CAS         1.3000   -1.4640   -4.4930 cc        1 4GK      0.506300
     18 NAN         2.1190   -1.4560   -5.6330 nc        1 4GK     -0.356300
     19 NAP        -0.0530   -1.4740   -4.7850 nd        1 4GK     -0.577100
     20 NBA        -0.1030   -1.4750   -6.1210 na        1 4GK      0.187000
     21 CAQ        -1.1990   -1.4900   -6.9870 cd        1 4GK     -0.098900
     22 CAA        -2.5840   -1.5060   -6.4520 c3        1 4GK     -0.050800
     23 CAY         1.2330   -1.4640   -6.6670 cd        1 4GK     -0.146600
     24 CAR         1.3900   -1.4650   -8.1140 cd        1 4GK      0.465600
     25 CAB         2.7880   -1.4520   -8.6310 c3        1 4GK     -0.148400
     26 NAL         0.3320   -1.4760   -8.9110 nc        1 4GK     -0.640000
     27 CAI        -0.9210   -1.4890   -8.3510 cc        1 4GK      0.339200
     28 H1         -0.3640   -0.2130    0.7620 h1        1 4GK      0.055700
     29 H2         -0.2290    1.0680   -0.5370 h1        1 4GK      0.055700
     30 H3         -0.2460   -0.7000   -1.0000 h1        1 4GK      0.055700
     31 H4          0.8480    0.0190    2.7160 ha        1 4GK      0.137000
     32 H5          2.6430    0.0340    4.4370 ha        1 4GK      0.152000
     33 H6          7.2460    0.0320    4.5000 h4        1 4GK      0.020100
     34 H7          8.0680    0.0110    2.1210 ha        1 4GK      0.144000
     35 H8          6.3660   -0.0040    0.2440 ha        1 4GK      0.157000
     36 H9          2.8120    0.4820   -3.2430 hc        1 4GK      0.075700
     37 H10         1.0700    0.5490   -2.7390 hc        1 4GK      0.075700
     38 H11         1.1350   -2.0050   -2.4210 hc        1 4GK      0.077200
     39 H12         2.8270   -1.9950   -3.0780 hc        1 4GK      0.077200
     40 H13        -2.7500   -2.4110   -5.8150 hc        1 4GK      0.065367
     41 H14        -2.7740   -0.5990   -5.8240 hc        1 4GK      0.065367
     42 H15        -3.3160   -1.5190   -7.2960 hc        1 4GK      0.065367
     43 H16         2.8200   -1.4530   -9.7480 hc        1 4GK      0.068367
     44 H17         3.3120   -0.5390   -8.2530 hc        1 4GK      0.068367
     45 H18         3.3290   -2.3540   -8.2500 hc        1 4GK      0.068367
     46 H19        -1.7500   -1.4990   -9.0820 h4        1 4GK      0.043100
@<TRIPOS>BOND
     1    1    2 1   
     2    1   28 1   
     3    1   29 1   
     4    1   30 1   
     5    2    3 1   
     6    2   14 1   
     7    3    4 ar  
     8    3   12 ar  
     9    4    5 ar  
    10    4   31 1   
    11    5    6 ar  
    12    5   32 1   
    13    6    7 ar  
    14    6   11 ar  
    15    7    8 ar  
    16    8    9 ar  
    17    8   33 1   
    18    9   10 ar  
    19    9   34 1   
    20   10   11 ar  
    21   10   35 1   
    22   11   12 ar  
    23   12   13 1   
    24   13   14 2   
    25   14   15 1   
    26   15   16 1   
    27   15   36 1   
    28   15   37 1   
    29   16   17 1   
    30   16   38 1   
    31   16   39 1   
    32   17   18 1   
    33   17   19 2   
    34   18   23 2   
    35   19   20 1   
    36   20   21 1   
    37   20   23 1   
    38   21   22 1   
    39   21   27 2   
    40   22   40 1   
    41   22   41 1   
    42   22   42 1   
    43   23   24 1   
    44   24   25 1   
    45   24   26 2   
    46   25   43 1   
    47   25   44 1   
    48   25   45 1   
    49   26   27 1   
    50   27   46 1   
@<TRIPOS>SUBSTRUCTURE
     1 4GK         1 TEMP              0 ****  ****    0 ROOT
