@<TRIPOS>MOLECULE
4GP
   30    30     1     0     0
SMALL
bcc


@<TRIPOS>ATOM
      1 C1          0.0780   -0.1040   -0.0040 c3        1 4GP      0.319300
      2 C2          1.6280   -0.0190    0.0040 c3        1 4GP      0.106100
      3 O2          2.1040   -1.1370   -0.7160 oh        1 4GP     -0.606800
      4 C3          2.0830   -0.0400    1.4700 c3        1 4GP      0.074100
      5 O3          3.4940    0.1010    1.4490 oh        1 4GP     -0.600800
      6 C4          1.4300    1.1330    2.2220 c3        1 4GP      0.084100
      7 O4          1.7120    1.0180    3.6060 oh        1 4GP     -0.584800
      8 C5         -0.0980    1.0670    2.0620 c3        1 4GP      0.106100
      9 O5         -0.4380    1.0510    0.6680 os        1 4GP     -0.428600
     10 C6         -0.7710    2.3220    2.6300 c3        1 4GP      0.140400
     11 O6         -2.1630    2.1470    2.7350 oh        1 4GP     -0.582800
     12 N1         -0.4950   -0.0890   -1.3730 ny        1 4GP     -0.700800
     13 C7         -1.8470   -0.8170   -1.5830 c         1 4GP      0.365100
     14 C8         -2.5580   -0.3520   -3.0320 c         1 4GP      0.942600
     15 O7         -2.2050   -1.5730   -0.7080 o         1 4GP     -0.471100
     16 O8         -3.2600   -1.2530   -3.4740 o         1 4GP     -0.670800
     17 O9         -2.2120    0.7930   -3.3480 o         1 4GP     -0.670800
     18 H1         -0.2680   -1.0500    0.5120 hx        1 4GP      0.118700
     19 H2          1.9810    0.9310   -0.4870 h1        1 4GP      0.073700
     20 HO2         3.0570   -1.1900   -0.5560 ho        1 4GP      0.445000
     21 H3          1.7970   -1.0150    1.9550 h1        1 4GP      0.074700
     22 HO3         3.8090   -0.1260    2.3330 ho        1 4GP      0.421000
     23 H4          1.8170    2.1060    1.8110 h1        1 4GP      0.068700
     24 HO4         2.5710    1.4360    3.7500 ho        1 4GP      0.414000
     25 H5         -0.5060    0.1460    2.5620 h1        1 4GP      0.088700
     26 H61        -0.4070    2.4760    3.6820 h1        1 4GP      0.068200
     27 H62        -0.5240    3.2110    1.9920 h1        1 4GP      0.068200
     28 HO6        -2.5110    2.0500    1.8390 ho        1 4GP      0.414000
     29 HN1        -0.6710    0.8790   -1.6770 hn        1 4GP      0.461800
     30 H12         0.1860   -0.5100   -2.0120 hn        1 4GP      0.461800
@<TRIPOS>BOND
     1    1    2 1   
     2    1    9 1   
     3    1   12 1   
     4    1   18 1   
     5    2    3 1   
     6    2    4 1   
     7    2   19 1   
     8    3   20 1   
     9    4    5 1   
    10    4    6 1   
    11    4   21 1   
    12    5   22 1   
    13    6    7 1   
    14    6    8 1   
    15    6   23 1   
    16    7   24 1   
    17    8    9 1   
    18    8   10 1   
    19    8   25 1   
    20   10   11 1   
    21   10   26 1   
    22   10   27 1   
    23   11   28 1   
    24   12   13 1   
    25   12   29 1   
    26   12   30 1   
    27   13   14 1   
    28   13   15 2   
    29   14   16 1   
    30   14   17 1   
@<TRIPOS>SUBSTRUCTURE
     1 4GP         1 TEMP              0 ****  ****    0 ROOT
