@<TRIPOS>MOLECULE
4GP
   29    29     1     0     0
SMALL
bcc


@<TRIPOS>ATOM
      1 C1         -0.3140   -0.3020   -1.2880 c3        1 4GP      0.249500
      2 C2          1.1990   -0.3020   -1.2880 c3        1 4GP      0.077100
      3 O2          1.6650   -1.4750   -1.9830 oh        1 4GP     -0.603800
      4 C3          1.7640   -0.3020    0.0860 c3        1 4GP      0.084100
      5 O3          1.4840    0.9750    0.7060 oh        1 4GP     -0.594800
      6 C4          1.1860   -1.3900    0.9360 c3        1 4GP      0.113100
      7 O4          1.6500   -2.6530    0.4480 oh        1 4GP     -0.597800
      8 C5         -0.3330   -1.3870    0.9240 c3        1 4GP      0.103100
      9 O5         -0.8850   -1.3830   -0.4330 os        1 4GP     -0.451600
     10 C6         -0.8230   -0.1700    1.6520 c3        1 4GP      0.090400
     11 O6         -1.1330   -0.5130    2.9870 oh        1 4GP     -0.624800
     12 N1         -0.7660    0.9320   -0.8200 n         1 4GP     -0.584900
     13 C7         -1.8850    1.5680   -1.4480 c         1 4GP      0.533100
     14 C8         -2.3320    2.9450   -0.9870 c         1 4GP      0.886600
     15 O7         -2.4400    1.0320   -2.3890 o         1 4GP     -0.623100
     16 O8         -3.3830    3.0700   -0.3040 o         1 4GP     -0.793800
     17 O9         -1.6780    3.9670   -1.3280 o         1 4GP     -0.793800
     18 H1         -0.6280   -0.4260   -2.2040 h2        1 4GP      0.116700
     19 H2          1.5150    0.4920   -1.7600 h1        1 4GP      0.080700
     20 HO2         2.0430   -1.2340   -2.7490 ho        1 4GP      0.411000
     21 H3          2.7310   -0.4230    0.0310 h1        1 4GP      0.052700
     22 HO3         2.2460    1.4090    0.8460 ho        1 4GP      0.412000
     23 H4          1.4960   -1.2720    1.8540 h1        1 4GP      0.104700
     24 HO4         2.0460   -3.0980    1.1070 ho        1 4GP      0.397000
     25 H5         -0.6530   -2.1830    1.3910 h1        1 4GP      0.091700
     26 H61        -1.6230    0.1730    1.2100 h1        1 4GP      0.075200
     27 H62        -0.1280    0.5150    1.6450 h1        1 4GP      0.075200
     28 HO6        -1.7120    0.0730    3.3160 ho        1 4GP      0.409000
     29 HN1        -0.3090    1.3630   -0.1580 hn        1 4GP      0.305500
@<TRIPOS>BOND
     1    1    2 1   
     2    1    9 1   
     3    1   12 1   
     4    1   18 1   
     5    2    3 1   
     6    2    4 1   
     7    2   19 1   
     8    3   20 1   
     9    4    5 1   
    10    4    6 1   
    11    4   21 1   
    12    5   22 1   
    13    6    7 1   
    14    6    8 1   
    15    6   23 1   
    16    7   24 1   
    17    8    9 1   
    18    8   10 1   
    19    8   25 1   
    20   10   11 1   
    21   10   26 1   
    22   10   27 1   
    23   11   28 1   
    24   12   13 1   
    25   12   29 1   
    26   13   14 1   
    27   13   15 2   
    28   14   16 1   
    29   14   17 1   
@<TRIPOS>SUBSTRUCTURE
     1 4GP         1 TEMP              0 ****  ****    0 ROOT
