@<TRIPOS>MOLECULE
4GP
   30    30     1     0     0
SMALL
bcc


@<TRIPOS>ATOM
      1 C1          0.0800   -0.0990   -0.0070 c3        1 4GP      0.319300
      2 C2          1.6280    0.0120   -0.0120 c3        1 4GP      0.106100
      3 O2          2.1160   -1.0850   -0.7570 oh        1 4GP     -0.606800
      4 C3          2.0990   -0.0280    1.4490 c3        1 4GP      0.074100
      5 O3          3.5070    0.1370    1.4160 oh        1 4GP     -0.600800
      6 C4          1.4330    1.1200    2.2280 c3        1 4GP      0.084100
      7 O4          1.7310    0.9850    3.6070 oh        1 4GP     -0.584800
      8 C5         -0.0950    1.0310    2.0810 c3        1 4GP      0.106100
      9 O5         -0.4480    1.0340    0.6900 os        1 4GP     -0.428600
     10 C6         -0.7830    2.2640    2.6780 c3        1 4GP      0.140400
     11 O6         -2.1710    2.0640    2.7940 oh        1 4GP     -0.582800
     12 N1         -0.5070   -0.0700   -1.3710 n4        1 4GP     -0.700800
     13 C7         -1.8480   -0.8170   -1.5810 c         1 4GP      0.365100
     14 C8         -2.5810   -0.3390   -3.0140 c         1 4GP      0.942600
     15 O7         -2.1850   -1.5950   -0.7150 o         1 4GP     -0.471100
     16 O8         -3.2720   -1.2440   -3.4660 o         1 4GP     -0.670800
     17 O9         -2.2580    0.8170   -3.3130 o         1 4GP     -0.670800
     18 H1         -0.2440   -1.0610    0.4950 hx        1 4GP      0.118700
     19 H2          1.9600    0.9760   -0.4900 h1        1 4GP      0.073700
     20 HO2         3.0720   -1.1250   -0.6070 ho        1 4GP      0.445000
     21 H3          1.8340   -1.0160    1.9180 h1        1 4GP      0.074700
     22 HO3         3.8340   -0.1000    2.2930 ho        1 4GP      0.421000
     23 H4          1.8000    2.1060    1.8300 h1        1 4GP      0.068700
     24 HO4         2.5840    1.4150    3.7500 ho        1 4GP      0.414000
     25 H5         -0.4820    0.0940    2.5680 h1        1 4GP      0.088700
     26 H61        -0.4110    2.4050    3.7290 h1        1 4GP      0.068200
     27 H62        -0.5570    3.1690    2.0540 h1        1 4GP      0.068200
     28 HO6        -2.5260    1.9770    1.9000 ho        1 4GP      0.414000
     29 HN1        -0.7020    0.9000   -1.6550 hn        1 4GP      0.461800
     30 H12         0.1750   -0.4670   -2.0230 hn        1 4GP      0.461800
@<TRIPOS>BOND
     1    1    2 1   
     2    1    9 1   
     3    1   12 1   
     4    1   18 1   
     5    2    3 1   
     6    2    4 1   
     7    2   19 1   
     8    3   20 1   
     9    4    5 1   
    10    4    6 1   
    11    4   21 1   
    12    5   22 1   
    13    6    7 1   
    14    6    8 1   
    15    6   23 1   
    16    7   24 1   
    17    8    9 1   
    18    8   10 1   
    19    8   25 1   
    20   10   11 1   
    21   10   26 1   
    22   10   27 1   
    23   11   28 1   
    24   12   13 1   
    25   12   29 1   
    26   12   30 1   
    27   13   14 1   
    28   13   15 2   
    29   14   16 1   
    30   14   17 1   
@<TRIPOS>SUBSTRUCTURE
     1 4GP         1 TEMP              0 ****  ****    0 ROOT
