@<TRIPOS>MOLECULE
4GP
   29    29     1     0     0
SMALL
bcc


@<TRIPOS>ATOM
      1 C1         -0.0880   -0.1080    0.0710 c3        1 4GP      0.276500
      2 C2          0.6570   -1.4330   -0.2570 c3        1 4GP      0.086100
      3 O2          0.0350   -2.5840    0.2790 oh        1 4GP     -0.625800
      4 C3          2.0730   -1.3590    0.3410 c3        1 4GP      0.084100
      5 O3          2.8510   -2.4910   -0.0200 oh        1 4GP     -0.624800
      6 C4          2.8050   -0.1230   -0.2020 c3        1 4GP      0.118100
      7 O4          4.0570    0.0520    0.4430 oh        1 4GP     -0.606800
      8 C5          1.9590    1.1270    0.0830 c3        1 4GP      0.109100
      9 O5          0.6650    0.9870   -0.4970 os        1 4GP     -0.441600
     10 C6          2.5750    2.3650   -0.5750 c3        1 4GP      0.142400
     11 O6          1.8990    3.5440   -0.1960 oh        1 4GP     -0.607800
     12 N1         -1.4150   -0.0390   -0.4680 n         1 4GP     -0.577900
     13 C7         -2.5260   -0.3750    0.3120 c         1 4GP      0.541100
     14 C8         -3.9220    0.0180   -0.2850 c         1 4GP      0.894600
     15 O7         -2.3430   -0.9760    1.3900 o         1 4GP     -0.668100
     16 O8         -4.1000    1.2480   -0.4630 o         1 4GP     -0.782800
     17 O9         -4.7030   -0.9240   -0.5380 o         1 4GP     -0.782800
     18 H1         -0.1190    0.0020    1.2000 h2        1 4GP      0.060700
     19 H2          0.7230   -1.5890   -1.3690 h1        1 4GP      0.073700
     20 HO2        -0.7470   -2.3140    0.7880 ho        1 4GP      0.454000
     21 H3          2.0130   -1.3100    1.4640 h1        1 4GP      0.053700
     22 HO3         2.2690   -3.2590    0.0600 ho        1 4GP      0.430000
     23 H4          2.9700   -0.2390   -1.3090 h1        1 4GP      0.055700
     24 HO4         4.4900   -0.8110    0.4290 ho        1 4GP      0.419000
     25 H5          1.8670    1.2840    1.1930 h1        1 4GP      0.065700
     26 H61         2.5570    2.2520   -1.6920 h1        1 4GP      0.054700
     27 H62         3.6300    2.4890   -0.2120 h1        1 4GP      0.054700
     28 HO6         0.9610    3.4070   -0.3870 ho        1 4GP      0.420000
     29 HN1        -1.5560    0.5760   -1.2360 hn        1 4GP      0.325500
@<TRIPOS>BOND
     1    1    2 1   
     2    1    9 1   
     3    1   12 1   
     4    1   18 1   
     5    2    3 1   
     6    2    4 1   
     7    2   19 1   
     8    3   20 1   
     9    4    5 1   
    10    4    6 1   
    11    4   21 1   
    12    5   22 1   
    13    6    7 1   
    14    6    8 1   
    15    6   23 1   
    16    7   24 1   
    17    8    9 1   
    18    8   10 1   
    19    8   25 1   
    20   10   11 1   
    21   10   26 1   
    22   10   27 1   
    23   11   28 1   
    24   12   13 1   
    25   12   29 1   
    26   13   14 1   
    27   13   15 2   
    28   14   16 1   
    29   14   17 1   
@<TRIPOS>SUBSTRUCTURE
     1 4GP         1 TEMP              0 ****  ****    0 ROOT
