@<TRIPOS>MOLECULE
4GQ
   80    77     1     0     0
SMALL
bcc


@<TRIPOS>ATOM
      1 C4        -43.7750 -189.7830  -98.0170 c1        1 4GQ     -0.001000
      2 C5       -182.3180  279.7610  297.3050 ca        1 4GQ     -0.168000
      3 C6       -182.0060  281.6260  295.2320 ca        1 4GQ      0.026000
      4 C7       -181.6410  280.2600  295.0150 ca        1 4GQ     -0.206000
      5 C8        -41.8490 -190.1970 -100.1360 c2        1 4GQ     -0.320000
      6 C10       -43.0540 -189.5880 -100.4510 c2        1 4GQ      0.195000
      7 C13       -45.1570 -187.7640 -100.8050 c2        1 4GQ      0.280000
      8 C15       -44.5060 -188.4660 -101.9850 c3        1 4GQ     -0.063000
      9 C17       781.4730  238.5280 -287.4920 c3        1 4GQ     -0.360000
     10 C20        98.2640   35.9110   -0.2370 c2        1 4GQ     -0.218000
     11 C21       -35.1970 -194.4960 -100.9280 c2        1 4GQ     -0.046000
     12 C22      -181.1360  279.8850  293.7780 c2        1 4GQ      0.186000
     13 C24      -180.7220  278.4950  293.4350 c3        1 4GQ     -0.082000
     14 C26       -38.1020 -193.0860 -101.4560 c3        1 4GQ     -0.159000
     15 C28       -40.1150 -191.7260 -101.0020 c3        1 4GQ     -0.172000
     16 C1        -42.5220 -190.4680  -97.7610 c3        1 4GQ     -0.279000
     17 C2        -41.5660 -190.6580  -98.8440 c1        1 4GQ     -0.139000
     18 C3       -181.8150  279.3400  296.0940 ca        1 4GQ      0.016000
     19 C9        -44.1720 -189.5170  -99.4210 c3        1 4GQ     -0.040000
     20 C11      -182.6740  281.1130  297.5090 ca        1 4GQ      0.088000
     21 C12      -182.5110  282.0460  296.4520 ca        1 4GQ     -0.129000
     22 C14       -35.7010 -195.1250 -106.0970 c1        1 4GQ      0.267000
     23 C16       782.7650  239.0650 -287.7030 c2        1 4GQ      0.301000
     24 C18        98.5120   35.8550    1.0650 c2        1 4GQ     -0.218000
     25 C19       -35.0150 -193.5990  -99.9470 c2        1 4GQ     -0.305000
     26 C23      -178.3640  277.3870  290.8980 c2        1 4GQ     -0.234000
     27 C25      -178.8730  278.1120  291.9040 c2        1 4GQ     -0.096000
     28 C27       -36.7830 -193.1970 -102.2700 c3        1 4GQ     -0.050000
     29 C29       -40.7560 -190.3230 -101.1530 c3        1 4GQ      0.100000
     30 N30       -44.9560 -188.3190  -99.5590 ns        1 4GQ     -0.367000
     31 N31      -180.2430  278.3860  292.0840 n7        1 4GQ     -0.309000
     32 N33       -36.1220 -194.4330 -101.9730 n7        1 4GQ     -0.311000
     33 O34       -45.8480 -186.7470 -100.9620 o         1 4GQ     -0.287000
     34 O35       -36.0230 -194.6790 -105.0580 o         1 4GQ     -0.265000
     35 O36       -43.2390 -189.0880 -101.6880 os        1 4GQ     -0.168000
     36 O37       -39.7400 -189.3460 -101.0000 oh        1 4GQ     -0.345000
     37 Cl1      -183.2790  281.5830  298.9900 cl        1 4GQ      0.152000
     38 Cl2      -182.9280  283.6660  296.6660 cl        1 4GQ      0.098000
     39 H1        -44.8380 -190.4320  -99.6490 h1        1 4GQ      0.162000
     40 H4        -45.1910 -189.2590 -102.3860 h1        1 4GQ      0.156000
     41 H5        -44.2470 -187.7190 -102.7860 h1        1 4GQ      0.156000
     42 H6        781.1160  238.0990 -288.5020 hc        1 4GQ      0.226333
     43 H7        781.4440  237.6500 -286.7830 hc        1 4GQ      0.226333
     44 H8         99.2760   35.1940    1.4950 ha        1 4GQ      0.109000
     45 H9         97.5000   36.5720   -0.6670 ha        1 4GQ      0.109000
     46 H10        98.8070   35.3010   -0.9710 ha        1 4GQ      0.109000
     47 H11       -12.8990   39.9000   27.3790 ha        1 4GQ      0.000000
     48 H12      -181.0280  280.6590  292.9850 ha        1 4GQ      0.189000
     49 H13       -13.1760   39.8090   27.9890 ha        1 4GQ      0.000000
     50 H14      -179.9340  278.1800  294.1910 h1        1 4GQ      0.146000
     51 H15       -38.7800 -193.9540 -101.6920 hx        1 4GQ      0.152000
     52 H16       -37.8700 -193.1000 -100.3520 hx        1 4GQ      0.152000
     53 H17       -40.8240 -192.5120 -101.3780 hx        1 4GQ      0.162500
     54 H18       -39.9020 -191.9080  -99.9030 hx        1 4GQ      0.162500
     55 H19       -42.7580 -191.4740  -97.2850 hc        1 4GQ      0.210500
     56 H20       -41.9940 -189.9070  -96.9200 hc        1 4GQ      0.210500
     57 H21      -181.5410  278.2790  295.9510 ha        1 4GQ      0.169000
     58 H22       780.6900  239.2920 -287.2150 hc        1 4GQ      0.226333
     59 H23       783.6790  238.4480 -287.5750 ha        1 4GQ      0.190000
     60 H24       782.9120  240.1220 -288.0140 ha        1 4GQ      0.190000
     61 H25        97.9700   36.4650    1.7990 ha        1 4GQ      0.109000
     62 H26       -35.5420 -192.6410  -99.8780 ha        1 4GQ      0.122000
     63 H27       -34.2970 -193.7940  -99.1410 ha        1 4GQ      0.122000
     64 H28       -34.6250 -195.4480 -100.9350 h4        1 4GQ      0.156000
     65 H29      -177.2770  277.2960  290.7690 ha        1 4GQ      0.139000
     66 H30      -178.9710  276.8680  290.1450 ha        1 4GQ      0.139000
     67 H31      -178.2170  278.6190  292.6380 h4        1 4GQ      0.139000
     68 H32       -37.0270 -193.1670 -103.3710 h1        1 4GQ      0.098000
     69 H33       -36.1380 -192.3030 -102.0230 h1        1 4GQ      0.098000
     70 H34       -41.1430 -190.1750 -102.2020 h1        1 4GQ      0.128000
     71 H35       -45.3420 -187.9110  -98.7350 hn        1 4GQ      0.286000
     72 H36      -180.8510  277.8610  291.4880 hn        1 4GQ      0.212000
     73 H40       -39.7100 -189.0790 -100.0700 ho        1 4GQ      0.240000
     74 H2       -182.4470  279.0390  298.1330 ha        1 4GQ      0.195000
     75 H312     -181.6200  277.8220  293.6060 h1        1 4GQ      0.146000
     76 H331      -35.8730 -194.9600 -102.7850 hn        1 4GQ      0.231000
     77 N32       -38.8360 -191.8280 -101.7610 ny        1 4GQ     -0.025000
     78 H3       -181.8790  282.3540  294.4080 ha        1 4GQ      0.185000
     79 H38       -38.2560 -191.0110 -101.5140 hn        1 4GQ      0.247000
     80 H322      -39.0290 -191.7740 -102.7660 hn        1 4GQ      0.247000
@<TRIPOS>BOND
     1    1   16 1   
     2    1   19 1   
     3    2   18 1   
     4    2   20 1   
     5    2   74 1   
     6    3    4 1   
     7    3   21 1   
     8    3   78 1   
     9    4   12 1   
    10    4   18 1   
    11    5    6 1   
    12    5   17 1   
    13    5   29 1   
    14    6   19 1   
    15    6   35 1   
    16    7    8 1   
    17    7   30 1   
    18    7   33 1   
    19    8   35 1   
    20    8   40 1   
    21    8   41 1   
    22    9   23 1   
    23    9   42 1   
    24    9   43 1   
    25    9   58 1   
    26   10   24 1   
    27   10   45 1   
    28   10   46 1   
    29   11   25 1   
    30   11   32 1   
    31   11   64 1   
    32   12   13 1   
    33   12   48 1   
    34   13   31 1   
    35   13   50 1   
    36   13   75 1   
    37   14   28 1   
    38   14   51 1   
    39   14   52 1   
    40   14   77 1   
    41   15   29 1   
    42   15   53 1   
    43   15   54 1   
    44   15   77 1   
    45   16   17 1   
    46   16   55 1   
    47   16   56 1   
    48   18   57 1   
    49   19   30 1   
    50   19   39 1   
    51   20   21 1   
    52   20   37 1   
    53   21   38 1   
    54   22   34 1   
    55   23   59 1   
    56   23   60 1   
    57   24   44 1   
    58   24   61 1   
    59   25   62 1   
    60   25   63 1   
    61   26   27 1   
    62   26   65 1   
    63   26   66 1   
    64   27   31 1   
    65   27   67 1   
    66   28   32 1   
    67   28   68 1   
    68   28   69 1   
    69   29   36 1   
    70   29   70 1   
    71   30   71 1   
    72   31   72 1   
    73   32   76 1   
    74   36   73 1   
    75   47   49 1   
    76   77   79 1   
    77   77   80 1   
@<TRIPOS>SUBSTRUCTURE
     1 4GQ         1 TEMP              0 ****  ****    0 ROOT
