@<TRIPOS>MOLECULE
4GQ
   80    83     1     0     0
SMALL
bcc


@<TRIPOS>ATOM
      1 C4         63.4270 -123.4970  -83.6220 c1        1 4GQ      0.009000
      2 C5       -117.7450  264.6390  189.8900 ca        1 4GQ     -0.107000
      3 C6       -120.3790  263.7860  190.2590 ca        1 4GQ     -0.111000
      4 C7       -119.8440  264.7790  191.0840 ca        1 4GQ     -0.116000
      5 C8         64.3590 -125.9510  -84.8220 c2        1 4GQ     -0.316000
      6 C10        65.0170 -125.4770  -83.7100 c2        1 4GQ      0.154000
      7 C13        65.6940 -124.9350  -81.0590 c2        1 4GQ      0.278000
      8 C15        66.6310 -125.7180  -81.9680 c3        1 4GQ     -0.058000
      9 C17        64.5730 -133.1350  -90.2970 c3        1 4GQ     -0.181000
     10 C20        66.8330 -130.7220  -89.0810 c3        1 4GQ     -0.179000
     11 C21        65.3300 -133.2840  -87.8800 c3        1 4GQ     -0.124000
     12 C22      -120.6740  265.3610  192.1750 c3        1 4GQ     -0.135000
     13 C24      -121.5760  266.4420  191.5810 c3        1 4GQ     -0.131000
     14 C26        65.9030 -129.5240  -87.0740 c3        1 4GQ     -0.170000
     15 C28        65.4480 -127.1070  -86.7250 c3        1 4GQ     -0.148000
     16 C1         62.8970 -123.9860  -84.8450 c2        1 4GQ     -0.224000
     17 C2         63.2950 -125.1660  -85.3940 c2        1 4GQ     -0.019000
     18 C3       -118.5230  265.2010  190.8980 ca        1 4GQ     -0.105000
     19 C9         64.6680 -124.1240  -83.1130 c3        1 4GQ     -0.023000
     20 C11      -118.2780  263.6500  189.0540 ca        1 4GQ     -0.040000
     21 C12      -119.6040  263.2210  189.2420 ca        1 4GQ     -0.060000
     22 C14      -122.8770  269.5690  192.0270 cu        1 4GQ      0.257000
     23 C16        65.2760 -131.8760  -90.7540 c3        1 4GQ     -0.172000
     24 C18        66.6820 -131.7190  -90.2120 c3        1 4GQ     -0.180000
     25 C19        64.1580 -133.1770  -88.8420 c3        1 4GQ     -0.184000
     26 C23      -123.9630  269.1830  192.9240 cx        1 4GQ     -0.204000
     27 C25      -123.3070  268.1200  192.0360 cx        1 4GQ     -0.300000
     28 C27        65.7400 -130.7610  -88.0080 c3        1 4GQ     -0.098000
     29 C29        64.6680 -127.2900  -85.3950 c3        1 4GQ      0.099000
     30 N30        64.7500 -124.1440  -81.6780 n         1 4GQ     -0.357000
     31 N31      -122.4870  267.0480  192.6070 n4        1 4GQ      0.010000
     32 N33        65.7540 -132.0170  -87.1860 n4        1 4GQ     -0.031000
     33 O34        65.7970 -125.0010  -79.8270 o         1 4GQ     -0.279000
     34 O35      -122.0970  270.3350  191.5380 o         1 4GQ     -0.102000
     35 O36        66.0170 -126.2230  -83.1740 os        1 4GQ     -0.212000
     36 O37        63.5170 -128.0730  -85.6890 oh        1 4GQ     -0.393000
     37 CL1      -117.3120  262.9890  187.8370 cl        1 4GQ      0.057000
     38 CL2      -120.2860  262.0260  188.2610 cl        1 4GQ      0.046000
     39 H1         65.4740 -123.4050  -83.5280 h1        1 4GQ      0.170000
     40 H4         67.4970 -125.0710  -82.2710 h1        1 4GQ      0.150500
     41 H5         66.9870 -126.6470  -81.4450 h1        1 4GQ      0.150500
     42 H6         63.4790 -132.3200  -88.5940 hc        1 4GQ      0.125000
     43 H7         63.6380 -133.2550  -90.9160 hc        1 4GQ      0.127000
     44 H8         67.0960 -132.7160  -89.9070 hc        1 4GQ      0.120500
     45 H9         66.8120 -129.6900  -89.5280 hc        1 4GQ      0.114500
     46 H10        67.8440 -130.8550  -88.6070 hc        1 4GQ      0.114500
     47 H11      -121.9230  267.4120  193.3830 hn        1 4GQ      0.245000
     48 H12      -120.0110  265.7990  192.9690 hc        1 4GQ      0.112000
     49 H13      -121.2920  264.5520  192.6510 hc        1 4GQ      0.112000
     50 H14      -120.9530  267.2720  191.1400 hx        1 4GQ      0.155500
     51 H15        65.3700 -129.6790  -86.0860 hx        1 4GQ      0.168000
     52 H16        67.0000 -129.3490  -86.8690 hx        1 4GQ      0.168000
     53 H17        65.0340 -126.2160  -87.2840 hx        1 4GQ      0.164000
     54 H18        66.5350 -126.9300  -86.4890 hx        1 4GQ      0.164000
     55 H19        62.7940 -125.5790  -86.2860 ha        1 4GQ      0.130000
     56 H20        62.0790 -123.3960  -85.2990 ha        1 4GQ      0.187000
     57 H21      -118.0870  265.9710  191.5530 ha        1 4GQ      0.143000
     58 H22        65.2220 -134.0240  -90.5240 hc        1 4GQ      0.127000
     59 H23        65.3420 -131.9270  -91.8790 hc        1 4GQ      0.102000
     60 H24        64.6530 -130.9730  -90.5230 hc        1 4GQ      0.102000
     61 H25        67.3520 -131.3600  -91.0460 hc        1 4GQ      0.120500
     62 H26        66.2330 -133.6950  -88.4210 hx        1 4GQ      0.159000
     63 H27        63.5410 -134.1120  -88.6930 hc        1 4GQ      0.125000
     64 H28        65.0690 -134.0000  -87.0430 hx        1 4GQ      0.159000
     65 H29      -123.7780  269.2020  194.0180 hc        1 4GQ      0.180500
     66 H30      -125.0120  269.4640  192.6880 hc        1 4GQ      0.180500
     67 H31      -123.8950  267.7400  191.1650 hx        1 4GQ      0.197000
     68 H32        65.1240 -131.8770  -86.3840 hn        1 4GQ      0.251000
     69 H33        64.7240 -130.7270  -88.5130 hx        1 4GQ      0.169000
     70 H34        65.3020 -127.8880  -84.6750 h1        1 4GQ      0.121000
     71 H35        64.0970 -123.5950  -81.1600 hn        1 4GQ      0.293000
     72 H36      -123.1070  266.3180  192.9830 hn        1 4GQ      0.245000
     73 H40        62.7670 -127.7280  -85.1810 ho        1 4GQ      0.272000
     74 H2       -116.7030  264.9720  189.7500 ha        1 4GQ      0.170000
     75 H312     -122.2180  266.0020  190.7630 hx        1 4GQ      0.155500
     76 H331       66.7070 -132.1640  -86.8260 hn        1 4GQ      0.251000
     77 N32        65.3370 -128.2790  -87.6580 n4        1 4GQ     -0.023000
     78 H3       -121.4120  263.4350  190.4120 ha        1 4GQ      0.146000
     79 H38        65.8120 -128.0520  -88.5410 hn        1 4GQ      0.263000
     80 H322       64.3310 -128.4240  -87.8430 hn        1 4GQ      0.263000
@<TRIPOS>BOND
     1    1   16 1   
     2    1   19 1   
     3    2   18 1   
     4    2   20 1   
     5    2   74 1   
     6    3    4 1   
     7    3   21 1   
     8    3   78 1   
     9    4   12 1   
    10    4   18 1   
    11    5    6 1   
    12    5   17 1   
    13    5   29 1   
    14    6   19 1   
    15    6   35 1   
    16    7    8 1   
    17    7   30 1   
    18    7   33 1   
    19    8   35 1   
    20    8   40 1   
    21    8   41 1   
    22    9   23 1   
    23    9   25 1   
    24    9   43 1   
    25    9   58 1   
    26   10   24 1   
    27   10   28 1   
    28   10   45 1   
    29   10   46 1   
    30   11   25 1   
    31   11   32 1   
    32   11   62 1   
    33   11   64 1   
    34   12   13 1   
    35   12   48 1   
    36   12   49 1   
    37   13   31 1   
    38   13   50 1   
    39   13   75 1   
    40   14   28 1   
    41   14   51 1   
    42   14   52 1   
    43   14   77 1   
    44   15   29 1   
    45   15   53 1   
    46   15   54 1   
    47   15   77 1   
    48   16   17 1   
    49   16   56 1   
    50   17   55 1   
    51   18   57 1   
    52   19   30 1   
    53   19   39 1   
    54   20   21 1   
    55   20   37 1   
    56   21   38 1   
    57   22   26 1   
    58   22   27 1   
    59   22   34 1   
    60   23   24 1   
    61   23   59 1   
    62   23   60 1   
    63   24   44 1   
    64   24   61 1   
    65   25   42 1   
    66   25   63 1   
    67   26   27 1   
    68   26   65 1   
    69   26   66 1   
    70   27   31 1   
    71   27   67 1   
    72   28   32 1   
    73   28   69 1   
    74   29   36 1   
    75   29   70 1   
    76   30   71 1   
    77   31   47 1   
    78   31   72 1   
    79   32   68 1   
    80   32   76 1   
    81   36   73 1   
    82   77   79 1   
    83   77   80 1   
@<TRIPOS>SUBSTRUCTURE
     1 4GQ         1 TEMP              0 ****  ****    0 ROOT
