@<TRIPOS>MOLECULE
4GR
   67    70     1     0     0
SMALL
bcc


@<TRIPOS>ATOM
      1 C13        -0.4260    0.0110    0.3240 c2        1 4GR      0.319000
      2 C18         3.9560    2.1820   -0.3180 c3        1 4GR      0.148000
      3 C17         3.1550    0.9050   -0.5120 c2        1 4GR     -0.440000
      4 C16         1.7530    0.9650   -0.1760 c2        1 4GR      0.125000
      5 C15         0.9870   -0.1370    0.0180 c2        1 4GR     -0.325000
      6 C19         5.3490    2.0040   -0.8850 c2        1 4GR     -0.091000
      7 C20         5.7190    0.8310   -1.3130 c1        1 4GR     -0.233000
      8 C21         6.1190   -0.3330   -1.7720 c2        1 4GR      0.027000
      9 C22         3.7110   -0.2090   -1.0220 c1        1 4GR      0.270000
     10 C24        -2.6320   -4.2480   -0.4540 c3        1 4GR     -0.116000
     11 C11        -3.3770   -2.9710   -0.0680 c2        1 4GR     -0.211000
     12 C34         5.0950    2.5440    1.9700 c2        1 4GR     -0.080000
     13 C27        -3.9030   -3.3140   -2.2240 cu        1 4GR     -0.157000
     14 C33        -0.7080    1.6730    6.5110 c2        1 4GR     -0.445000
     15 Cl1         6.9700   -1.4470   -0.8460 cl        1 4GR      0.060000
     16 C3         -2.3470   -0.6290    2.7730 c2        1 4GR     -0.056000
     17 N4         -3.5690   -0.4610    3.5410 n2        1 4GR     -0.146000
     18 C5         -3.1590   -0.0230    4.7200 c2        1 4GR     -0.024000
     19 C6         -1.5950    0.1130    4.7490 c3        1 4GR     -0.029000
     20 N7         -1.2190   -0.3160    3.3880 n2        1 4GR     -0.177000
     21 C8         -1.1620    1.4860    5.1430 c2        1 4GR     -0.041000
     22 C9         -2.4700   -1.1160    1.3470 c3        1 4GR      0.010000
     23 C10        -3.2710   -2.4280    1.2960 c3        1 4GR     -0.131000
     24 N12        -1.1200   -1.2890    0.6990 ny        1 4GR     -0.105000
     25 O14        -1.1220    1.0180    0.2960 o         1 4GR     -0.200000
     26 N23         4.0010    2.6000    1.0790 na        1 4GR     -0.202000
     27 C25        -3.2380   -4.6270   -1.8020 cx        1 4GR     -0.174000
     28 C26        -3.0070   -3.8310   -3.0480 cu        1 4GR     -0.090000
     29 C28        -4.1490   -2.4770   -1.0850 c2        1 4GR     -0.006000
     30 C29        -1.1710    2.5550    4.3160 c2        1 4GR     -0.093000
     31 C30        -0.7960    3.8580    4.8460 c2        1 4GR     -0.261000
     32 C31         0.5010    4.2030    5.0730 c2        1 4GR      0.081000
     33 C32        -0.1920    2.8260    6.9360 c1        1 4GR      0.178000
     34 N35         4.6220    2.9890    3.1610 n2        1 4GR     -0.094000
     35 N36         3.3280    3.2760    2.9770 n2        1 4GR     -0.046000
     36 N37         2.9350    3.0600    1.7820 n2        1 4GR     -0.031000
     37 N38         0.9940    5.4150    5.5080 ns        1 4GR     -0.290000
     38 C39         0.2840    6.5590    5.8590 c2        1 4GR      0.392000
     39 O40        -1.0720    6.5460    5.6330 os        1 4GR     -0.270000
     40 O41         0.8070    7.5820    6.3290 o         1 4GR     -0.367000
     41 C42        -1.7550    7.7540    5.9970 c3        1 4GR     -0.056000
     42 H49         1.3080    1.9790   -0.0840 ha        1 4GR      0.182000
     43 H48         1.4130   -1.1510   -0.0410 ha        1 4GR      0.163000
     44 H50         3.4400    3.0090   -0.9050 h1        1 4GR      0.152000
     45 H51         5.9810    2.9060   -0.9460 ha        1 4GR      0.186000
     46 H52         5.9210   -0.6640   -2.8080 h4        1 4GR      0.194000
     47 H56        -2.5100   -3.8400   -3.9980 ha        1 4GR      0.208000
     48 H61        -0.8080    0.8310    7.2180 ha        1 4GR      0.179000
     49 H43        -1.1750   -0.6470    5.4730 h1        1 4GR      0.174000
     50 H44        -0.5030   -1.8140    1.3290 hn        1 4GR      0.260500
     51 H45        -3.0190   -0.3160    0.7540 hx        1 4GR      0.183000
     52 H46        -4.3030   -2.2000    1.6940 hc        1 4GR      0.144000
     53 H47        -2.8100   -3.1860    1.9850 hc        1 4GR      0.144000
     54 H54        -1.5320   -4.0630   -0.5080 hc        1 4GR      0.095500
     55 H55        -3.7010   -5.6220   -1.8540 hc        1 4GR      0.150000
     56 H57        -4.8190   -1.6150   -1.0700 ha        1 4GR      0.173000
     57 H58        -1.4940    2.5130    3.2670 ha        1 4GR      0.143000
     58 H59        -1.6370    4.5550    5.0100 ha        1 4GR      0.182000
     59 H60         1.3180    3.4750    4.8630 h4        1 4GR      0.165000
     60 H63         1.9680    5.4560    5.7370 hn        1 4GR      0.270000
     61 H64        -1.6230    7.9520    7.0870 h1        1 4GR      0.099667
     62 H66        -2.8200    7.5260    5.7430 h1        1 4GR      0.099667
     63 H65        -1.3600    8.6090    5.3970 h1        1 4GR      0.099667
     64 H53        -2.8220   -5.0560    0.2950 hc        1 4GR      0.095500
     65 Cl2        -4.1090    0.3360    6.0350 cl        1 4GR      0.143000
     66 H122       -1.2540   -1.8430   -0.1590 hn        1 4GR      0.260500
     67 H62         6.1080    2.2190    1.7110 h5        1 4GR      0.234000
@<TRIPOS>BOND
     1    1    5 1   
     2    1   24 1   
     3    1   25 1   
     4    2    3 1   
     5    2    6 1   
     6    2   26 1   
     7    2   44 1   
     8    3    4 1   
     9    3    9 1   
    10    4    5 1   
    11    4   42 1   
    12    5   43 1   
    13    6    7 1   
    14    6   45 1   
    15    7    8 1   
    16    8   15 1   
    17    8   46 1   
    18   10   11 1   
    19   10   27 1   
    20   10   54 1   
    21   10   64 1   
    22   11   23 1   
    23   11   29 1   
    24   12   26 1   
    25   12   34 1   
    26   12   67 1   
    27   13   27 1   
    28   13   28 1   
    29   13   29 1   
    30   14   21 1   
    31   14   33 1   
    32   14   48 1   
    33   16   17 1   
    34   16   20 1   
    35   16   22 1   
    36   17   18 1   
    37   18   19 1   
    38   18   65 1   
    39   19   20 1   
    40   19   21 1   
    41   19   49 1   
    42   21   30 1   
    43   22   23 1   
    44   22   24 1   
    45   22   51 1   
    46   23   52 1   
    47   23   53 1   
    48   24   50 1   
    49   24   66 1   
    50   26   36 1   
    51   27   28 1   
    52   27   55 1   
    53   28   47 1   
    54   29   56 1   
    55   30   31 1   
    56   30   57 1   
    57   31   32 1   
    58   31   58 1   
    59   32   37 1   
    60   32   59 1   
    61   34   35 1   
    62   35   36 1   
    63   37   38 1   
    64   37   60 1   
    65   38   39 1   
    66   38   40 1   
    67   39   41 1   
    68   41   61 1   
    69   41   62 1   
    70   41   63 1   
@<TRIPOS>SUBSTRUCTURE
     1 4GR         1 TEMP              0 ****  ****    0 ROOT
