@<TRIPOS>MOLECULE
4GR
   67    70     1     0     0
SMALL
bcc


@<TRIPOS>ATOM
      1 C13        -0.1770    0.1410   -0.5160 c2        1 4GR      0.321000
      2 C18         3.4590    2.1230   -3.0900 c3        1 4GR      0.153000
      3 C17         2.9230    1.9750   -1.6750 c2        1 4GR     -0.446000
      4 C16         1.5920    1.4230   -1.5680 c2        1 4GR      0.118000
      5 C15         1.1750    0.6710   -0.5220 c2        1 4GR     -0.306000
      6 C19         4.7810    2.8580   -3.0690 c2        1 4GR     -0.097000
      7 C20         5.3430    3.1360   -1.9270 c1        1 4GR     -0.225000
      8 C21         5.9180    3.4450   -0.7890 c2        1 4GR      0.020000
      9 C22         3.6260    2.3700   -0.6000 c1        1 4GR      0.283000
     10 C24        -1.8990   -4.5490    0.8550 c2        1 4GR     -0.120000
     11 C11        -2.2630   -3.2470    0.9520 c2        1 4GR     -0.165000
     12 C34         4.7330    0.2100   -4.2690 c2        1 4GR     -0.082000
     13 C27        -4.5790   -3.6150   -0.0280 c1        1 4GR      0.268000
     14 C33        -2.4050    3.2720    4.8210 c2        1 4GR     -0.452000
     15 CL1         7.0870    2.4850   -0.0550 cl        1 4GR      0.056000
     16 C3         -0.8770   -0.0530    2.4890 c2        1 4GR     -0.143000
     17 N4          0.4270    0.0030    2.8810 n2        1 4GR     -0.138000
     18 C5          0.4650    0.9130    3.9300 c2        1 4GR     -0.113000
     19 C6         -0.8450    1.4200    4.1900 c2        1 4GR      0.013000
     20 N7         -1.6770    0.7990    3.2580 na        1 4GR     -0.152000
     21 C8         -1.3120    2.3750    5.1710 c2        1 4GR     -0.018000
     22 C9         -1.4100   -0.9320    1.3960 c3        1 4GR      0.032000
     23 C10        -1.8330   -2.2880    1.9840 c3        1 4GR     -0.126000
     24 N12        -0.3780   -1.1160    0.3120 n4        1 4GR     -0.102000
     25 O14        -1.1750    0.5360   -1.1090 o         1 4GR     -0.217000
     26 N23         3.5730    0.8330   -3.7650 na        1 4GR     -0.200000
     27 C25        -2.6080   -5.2550   -0.2660 c3        1 4GR     -0.108000
     28 C26        -3.5050   -4.1920   -0.8810 c3        1 4GR     -0.314000
     29 C28        -3.2600   -2.8910   -0.0950 c3        1 4GR     -0.342000
     30 C29        -0.7820    2.4700    6.4150 c2        1 4GR     -0.074000
     31 C30        -1.2770    3.5020    7.3130 c2        1 4GR     -0.251000
     32 C31        -2.4640    3.3900    7.9700 c2        1 4GR      0.077000
     33 C32        -2.9890    4.0660    5.7190 c1        1 4GR      0.175000
     34 N35         4.3290   -1.0010   -4.7340 n2        1 4GR     -0.093000
     35 N36         3.0140   -1.0820   -4.5030 n2        1 4GR     -0.031000
     36 N37         2.5450   -0.0370   -3.9400 n2        1 4GR     -0.052000
     37 N38        -3.0110    4.2610    8.8890 n         1 4GR     -0.293000
     38 C39        -2.4820    5.4630    9.3550 c2        1 4GR      0.392000
     39 O40        -1.1890    5.7560    8.9930 os        1 4GR     -0.270000
     40 O41        -3.0980    6.2480   10.0910 o         1 4GR     -0.361000
     41 C42        -0.6700    6.9740    9.5480 c3        1 4GR     -0.056000
     42 H49         0.9140    1.6230   -2.4250 ha        1 4GR      0.172000
     43 H48         1.8270    0.4490    0.3400 ha        1 4GR      0.186000
     44 H50         2.7160    2.7490   -3.6810 h1        1 4GR      0.147000
     45 H51         5.1920    3.1700   -4.0440 ha        1 4GR      0.181000
     46 H52         5.6710    4.3640   -0.2270 h4        1 4GR      0.194000
     47 H56        -3.6230   -4.2350   -1.9760 hc        1 4GR      0.178000
     48 H61        -2.7240    3.3320    3.7660 ha        1 4GR      0.171000
     49 H43        -2.6560    0.9270    3.1840 hn        1 4GR      0.277000
     50 H44        -0.7190   -1.8670   -0.3070 hn        1 4GR      0.267500
     51 H45        -2.3050   -0.4410    0.8990 hx        1 4GR      0.161000
     52 H46        -2.6910   -2.0830    2.6860 hc        1 4GR      0.136000
     53 H47        -0.9960   -2.7180    2.5990 hc        1 4GR      0.136000
     54 H54        -1.8790   -5.6520   -1.0170 hc        1 4GR      0.129500
     55 H55        -3.2130   -6.1170    0.1200 hc        1 4GR      0.129500
     56 H57        -3.2010   -1.8930   -0.5530 hc        1 4GR      0.149000
     57 H58         0.0420    1.8340    6.7710 ha        1 4GR      0.159000
     58 H59        -0.5950    4.3600    7.4570 ha        1 4GR      0.187000
     59 H60        -3.1020    2.4900    7.8220 h4        1 4GR      0.150000
     60 H63        -3.9690    4.1190    9.1410 hn        1 4GR      0.267000
     61 H64        -0.6720    6.9150   10.6620 h1        1 4GR      0.101000
     62 H66        -1.2840    7.8400    9.2040 h1        1 4GR      0.101000
     63 H65         0.3690    7.0120    9.1360 h1        1 4GR      0.101000
     64 H53        -1.1940   -5.0870    1.4950 ha        1 4GR      0.163000
     65 CL2         1.8780    1.3270    4.7230 cl        1 4GR      0.094000
     66 H122        0.5140   -1.4100    0.7260 hn        1 4GR      0.267500
     67 H62         5.7360    0.6480   -4.2810 h5        1 4GR      0.234000
@<TRIPOS>BOND
     1    1    5 1   
     2    1   24 1   
     3    1   25 1   
     4    2    3 1   
     5    2    6 1   
     6    2   26 1   
     7    2   44 1   
     8    3    4 1   
     9    3    9 1   
    10    4    5 1   
    11    4   42 1   
    12    5   43 1   
    13    6    7 1   
    14    6   45 1   
    15    7    8 1   
    16    8   15 1   
    17    8   46 1   
    18   10   11 1   
    19   10   27 1   
    20   10   64 1   
    21   11   23 1   
    22   11   29 1   
    23   12   26 1   
    24   12   34 1   
    25   12   67 1   
    26   13   28 1   
    27   13   29 1   
    28   14   21 1   
    29   14   33 1   
    30   14   48 1   
    31   16   17 1   
    32   16   20 1   
    33   16   22 1   
    34   17   18 1   
    35   18   19 1   
    36   18   65 1   
    37   19   20 1   
    38   19   21 1   
    39   20   49 1   
    40   21   30 1   
    41   22   23 1   
    42   22   24 1   
    43   22   51 1   
    44   23   52 1   
    45   23   53 1   
    46   24   50 1   
    47   24   66 1   
    48   26   36 1   
    49   27   28 1   
    50   27   54 1   
    51   27   55 1   
    52   28   29 1   
    53   28   47 1   
    54   29   56 1   
    55   30   31 1   
    56   30   57 1   
    57   31   32 1   
    58   31   58 1   
    59   32   37 1   
    60   32   59 1   
    61   34   35 1   
    62   35   36 1   
    63   37   38 1   
    64   37   60 1   
    65   38   39 1   
    66   38   40 1   
    67   39   41 1   
    68   41   61 1   
    69   41   62 1   
    70   41   63 1   
@<TRIPOS>SUBSTRUCTURE
     1 4GR         1 TEMP              0 ****  ****    0 ROOT
