@<TRIPOS>MOLECULE
4GU
   25    27     1     0     0
SMALL
bcc


@<TRIPOS>ATOM
      1 C1         -0.7190   -0.2370   -0.0930 ca        1 4GU      0.750200
      2 C2         -1.9850    0.4220   -0.1270 ca        1 4GU     -0.496500
      3 C3         -3.1530   -0.3650    0.2460 ca        1 4GU      0.468800
      4 N4          0.4070    0.4740   -0.5080 nh        1 4GU     -0.715300
      5 N5         -3.8600    1.7270   -0.2790 nc        1 4GU     -0.511100
      6 N6         -0.6590   -1.5490    0.2930 nb        1 4GU     -0.777000
      7 N7         -3.0950   -1.6790    0.6260 nb        1 4GU     -0.723000
      8 N8         -4.2450    0.5070    0.1250 na        1 4GU     -0.112800
      9 C9          1.7300    0.0190   -0.3240 ca        1 4GU      0.102600
     10 C10        -1.8340   -2.1640    0.6150 ca        1 4GU      0.690900
     11 C11        -2.5210    1.7280   -0.4430 cd        1 4GU      0.379800
     12 C12         2.7070    0.8850    0.2540 ca        1 4GU      0.081900
     13 F13         2.3550    2.1260    0.6770 f         1 4GU     -0.146900
     14 C14         2.1500   -1.2500   -0.7650 ca        1 4GU     -0.092000
     15 C15         4.0430    0.4730    0.3770 ca        1 4GU     -0.146000
     16 C16         3.4770   -1.6460   -0.6240 ca        1 4GU     -0.129000
     17 C17         4.4210   -0.7930   -0.0560 ca        1 4GU     -0.117000
     18 HN4         0.2980    1.4680   -0.4780 hn        1 4GU      0.442800
     19 HN8        -5.2000    0.3010    0.3010 hn        1 4GU      0.339700
     20 H10        -1.7280   -3.2280    0.9190 h5        1 4GU      0.057100
     21 H11        -1.9760    2.6140   -0.7720 h4        1 4GU      0.056800
     22 H14         1.4280   -1.9430   -1.2270 ha        1 4GU      0.162000
     23 H15         4.7760    1.1610    0.8240 ha        1 4GU      0.151000
     24 H16         3.7800   -2.6470   -0.9690 ha        1 4GU      0.141000
     25 H17         5.4670   -1.1170    0.0510 ha        1 4GU      0.141000
@<TRIPOS>BOND
     1    1    2 ar  
     2    1    4 1   
     3    1    6 ar  
     4    2    3 ar  
     5    2   11 1   
     6    3    7 ar  
     7    3    8 1   
     8    4    9 1   
     9    4   18 1   
    10    5    8 1   
    11    5   11 2   
    12    6   10 ar  
    13    7   10 ar  
    14    8   19 1   
    15    9   12 ar  
    16    9   14 ar  
    17   10   20 1   
    18   11   21 1   
    19   12   13 1   
    20   12   15 ar  
    21   14   16 ar  
    22   14   22 1   
    23   15   17 ar  
    24   15   23 1   
    25   16   17 ar  
    26   16   24 1   
    27   17   25 1   
@<TRIPOS>SUBSTRUCTURE
     1 4GU         1 TEMP              0 ****  ****    0 ROOT
