@<TRIPOS>MOLECULE
4GU
   25    27     1     0     0
SMALL
bcc


@<TRIPOS>ATOM
      1 C1         -0.0070    0.1560    0.1310 ca        1 4GU      0.750200
      2 C2          1.4120    0.0610   -0.0010 ca        1 4GU     -0.496500
      3 C3          2.1770   -0.1880    1.2130 ca        1 4GU      0.468800
      4 N4         -0.7570    0.4610   -1.0050 nh        1 4GU     -0.715300
      5 N5          3.6410   -0.0330   -0.5140 nc        1 4GU     -0.511100
      6 N6         -0.5740   -0.0020    1.3660 nb        1 4GU     -0.777000
      7 N7          1.6100   -0.3400    2.4500 nb        1 4GU     -0.723000
      8 N8          3.5180   -0.2310    0.8070 na        1 4GU     -0.112800
      9 C9         -2.1640    0.3730   -1.0580 ca        1 4GU      0.102600
     10 C10         0.2640   -0.2310    2.4180 ca        1 4GU      0.690900
     11 C11         2.4130    0.1460   -1.0420 cd        1 4GU      0.379800
     12 C12        -2.7940   -0.3310   -2.1300 ca        1 4GU      0.081900
     13 F13        -2.0420   -0.9610   -3.0680 f         1 4GU     -0.146900
     14 C14        -2.9880    1.0270   -0.1220 ca        1 4GU     -0.092000
     15 C15        -4.1930   -0.3650   -2.2360 ca        1 4GU     -0.146000
     16 C16        -4.3740    0.9710   -0.2370 ca        1 4GU     -0.129000
     17 C17        -4.9770    0.2800   -1.2860 ca        1 4GU     -0.117000
     18 HN4        -0.2930    0.2620   -1.8680 hn        1 4GU      0.442800
     19 HN8         4.3150   -0.3820    1.3810 hn        1 4GU      0.339700
     20 H10        -0.2490   -0.3510    3.3980 h5        1 4GU      0.057100
     21 H11         2.2590    0.3290   -2.1070 h4        1 4GU      0.056800
     22 H14        -2.5400    1.5890    0.7130 ha        1 4GU      0.162000
     23 H15        -4.6530   -0.9120   -3.0730 ha        1 4GU      0.151000
     24 H16        -4.9970    1.4840    0.5120 ha        1 4GU      0.141000
     25 H17        -6.0740    0.2420   -1.3670 ha        1 4GU      0.141000
@<TRIPOS>BOND
     1    1    2 ar  
     2    1    4 1   
     3    1    6 ar  
     4    2    3 ar  
     5    2   11 1   
     6    3    7 ar  
     7    3    8 1   
     8    4    9 1   
     9    4   18 1   
    10    5    8 1   
    11    5   11 2   
    12    6   10 ar  
    13    7   10 ar  
    14    8   19 1   
    15    9   12 ar  
    16    9   14 ar  
    17   10   20 1   
    18   11   21 1   
    19   12   13 1   
    20   12   15 ar  
    21   14   16 ar  
    22   14   22 1   
    23   15   17 ar  
    24   15   23 1   
    25   16   17 ar  
    26   16   24 1   
    27   17   25 1   
@<TRIPOS>SUBSTRUCTURE
     1 4GU         1 TEMP              0 ****  ****    0 ROOT
