@<TRIPOS>MOLECULE
4GU
   25    18     1     0     0
SMALL
bcc


@<TRIPOS>ATOM
      1 C1          0.4770    0.9600    0.2570 c1        1 4GU      0.229000
      2 C2          0.4940    1.7380    1.4030 c1        1 4GU     -0.102500
      3 C3          1.6520    1.9460    2.0570 c1        1 4GU     -0.102500
      4 N4         -0.5220    0.6800   -0.7110 n3        1 4GU     -0.236000
      5 N5          0.0490    3.0210    3.1490 n2        1 4GU     -0.044000
      6 N6          1.6150    0.4140   -0.2000 n1        1 4GU     -0.251000
      7 N7          2.8060    1.3900    1.5900 n1        1 4GU     -0.197000
      8 N8          1.3880    2.7420    3.1440 n1        1 4GU     -0.179000
      9 C9         -0.7930   -0.6630   -1.0830 c2        1 4GU      0.021000
     10 C10         2.7880    0.6250    0.4630 c1        1 4GU      0.028000
     11 C11        -0.5090    2.4110    2.0860 c1        1 4GU     -0.121000
     12 C12        -1.5280   -1.5350   -0.2960 c1        1 4GU      0.047000
     13 F13        -1.9220   -1.1610    0.9280 f         1 4GU     -0.112000
     14 C14        -0.4170   -1.0350   -2.3640 c2        1 4GU     -0.092000
     15 C15        -1.8870   -2.7790   -0.7890 c2        1 4GU     -0.146000
     16 C16        -0.7760   -2.2800   -2.8580 c1        1 4GU     -0.129000
     17 C17        -1.5110   -3.1520   -2.0700 c1        1 4GU     -0.117000
     18 HN4        -0.9850    1.3630   -1.1000 hn        1 4GU      0.238000
     19 HN8         1.9990    3.0330    3.7560 DU        1 4GU      0.238000
     20 H10         3.6150    0.2280    0.1300 ha        1 4GU      0.194000
     21 H11        -1.4530    2.4370    1.8400 DU        1 4GU      0.238000
     22 H14         0.1010   -0.4210   -2.9190 ha        1 4GU      0.162000
     23 H15        -2.4050   -3.3930   -0.2340 ha        1 4GU      0.151000
     24 H16        -0.5110   -2.5420   -3.7600 ha        1 4GU      0.141000
     25 H17        -1.7640   -4.0280   -2.4180 ha        1 4GU      0.141000
@<TRIPOS>BOND
     1    1    4 1   
     2    1    6 1   
     3    2    3 1   
     4    4    9 1   
     5    4   18 1   
     6    5    8 1   
     7    5   11 1   
     8    7   10 1   
     9    9   12 1   
    10    9   14 1   
    11   10   20 1   
    12   12   15 1   
    13   14   16 1   
    14   14   22 1   
    15   15   17 1   
    16   15   23 1   
    17   16   24 1   
    18   17   25 1   
@<TRIPOS>SUBSTRUCTURE
     1 4GU         1 TEMP              0 ****  ****    0 ROOT
