@<TRIPOS>MOLECULE
4GU
   26    28     1     0     0
SMALL
bcc


@<TRIPOS>ATOM
      1 C1          0.0880   -0.6020   -0.3380 ca        1 4GU      0.574200
      2 C2          1.2180    0.1600    0.0070 ca        1 4GU     -0.442500
      3 C3          1.8950   -0.2550    1.2500 ca        1 4GU      0.464800
      4 N4         -0.6580   -0.2680   -1.5810 n4        1 4GU     -0.611100
      5 N5          3.0250    1.5070    0.3920 nc        1 4GU     -0.426100
      6 N6         -0.3460   -1.6350    0.4130 nb        1 4GU     -0.680000
      7 N7          1.4710   -1.2950    2.0250 nb        1 4GU     -0.622000
      8 N8          2.9740    0.6260    1.3930 na        1 4GU     -0.077800
      9 C9         -2.0430    0.1300   -1.3200 ca        1 4GU     -0.101400
     10 C10         0.3740   -1.9190    1.5490 ca        1 4GU      0.687900
     11 C11         2.0060    1.2800   -0.4630 cd        1 4GU      0.345800
     12 C12        -3.0880   -0.8270   -1.4230 ca        1 4GU      0.182900
     13 F13        -2.8120   -2.1010   -1.7740 f         1 4GU     -0.108900
     14 C14        -2.3400    1.4580   -0.9640 ca        1 4GU     -0.077000
     15 C15        -4.4140   -0.4300   -1.1710 ca        1 4GU     -0.140000
     16 C16        -3.6580    1.8270   -0.7230 ca        1 4GU     -0.118000
     17 C17        -4.6890    0.8870   -0.8230 ca        1 4GU     -0.044000
     18 HN4        -0.1650    0.5030   -2.0500 hn        1 4GU      0.475300
     19 HN8         3.6550    0.6320    2.1260 hn        1 4GU      0.372700
     20 H10        -0.0100   -2.7800    2.1460 h5        1 4GU      0.101100
     21 H11         1.8630    1.8900   -1.3570 h4        1 4GU      0.071800
     22 H14        -1.5400    2.2120   -0.8730 ha        1 4GU      0.159000
     23 H15        -5.2200   -1.1790   -1.2540 ha        1 4GU      0.188000
     24 H16        -3.8890    2.8700   -0.4480 ha        1 4GU      0.176000
     25 H17        -5.7320    1.1920   -0.6230 ha        1 4GU      0.177000
     26 H42        -0.6640   -1.0990   -2.1960 hn        1 4GU      0.475300
@<TRIPOS>BOND
     1    1    2 ar  
     2    1    4 1   
     3    1    6 ar  
     4    2    3 ar  
     5    2   11 1   
     6    3    7 ar  
     7    3    8 1   
     8    4    9 1   
     9    4   18 1   
    10    4   26 1   
    11    5    8 1   
    12    5   11 2   
    13    6   10 ar  
    14    7   10 ar  
    15    8   19 1   
    16    9   12 ar  
    17    9   14 ar  
    18   10   20 1   
    19   11   21 1   
    20   12   13 1   
    21   12   15 ar  
    22   14   16 ar  
    23   14   22 1   
    24   15   17 ar  
    25   15   23 1   
    26   16   17 ar  
    27   16   24 1   
    28   17   25 1   
@<TRIPOS>SUBSTRUCTURE
     1 4GU         1 TEMP              0 ****  ****    0 ROOT
