@<TRIPOS>MOLECULE
4GW
   45    47     1     0     0
SMALL
bcc


@<TRIPOS>ATOM
      1 CBD         0.0000    0.0000    0.0000 c         1 4GW      0.672500
      2 OAD         1.2150    0.0000    0.0000 o         1 4GW     -0.707100
      3 CBE        -0.7040    0.0000    1.2200 cc        1 4GW     -0.213700
      4 SBB         0.0340   -0.0010    2.8150 ss        1 4GW     -0.328800
      5 CAP        -2.0720    0.0070    1.3440 cd        1 4GW     -0.144000
      6 CAQ        -2.5260    0.0050    2.6290 cd        1 4GW     -0.121000
      7 CBF        -1.5460   -0.0000    3.5850 cc        1 4GW     -0.010900
      8 CBG        -1.7810   -0.0030    5.0420 cc        1 4GW     -0.142400
      9 CAR        -1.4010   -1.0680    5.8120 cd        1 4GW     -0.180400
     10 CBH        -2.4240    1.1430    5.7050 c         1 4GW      0.622700
     11 OAE        -2.7760    2.1140    5.0630 o         1 4GW     -0.692500
     12 NAV        -2.6160    1.0920    7.0390 ns        1 4GW     -0.149500
     13 CBI        -2.2250    0.0140    7.7420 c         1 4GW      0.572500
     14 OAF        -2.4080   -0.0070    8.9430 o         1 4GW     -0.682500
     15 NBS        -1.6310   -1.0390    7.1550 n         1 4GW      0.073000
     16 C1'        -1.2230   -2.1810    7.9770 c3        1 4GW      0.206500
     17 O4'        -2.3040   -2.6010    8.8360 os        1 4GW     -0.339600
     18 C2'        -0.1110   -1.7670    8.9730 c3        1 4GW      0.107100
     19 O2'         1.1800   -1.8670    8.3660 oh        1 4GW     -0.569800
     20 C3'        -0.2760   -2.8160   10.0990 c3        1 4GW      0.135100
     21 O3'         0.6630   -3.8800    9.9320 oh        1 4GW     -0.573800
     22 C4'        -1.7160   -3.3340    9.9240 c3        1 4GW      0.140100
     23 C5'        -2.5140   -3.0940   11.2060 c3        1 4GW      0.304400
     24 O5'        -3.8170   -3.6670   11.0700 os        1 4GW     -0.491200
     25 PBT        -4.9290   -3.6020   12.2330 p5        1 4GW      0.948800
     26 OAN        -4.3700   -4.1660   13.4810 o         1 4GW     -0.689500
     27 OAG        -5.3590   -2.0700   12.4790 o         1 4GW     -0.689500
     28 OBA        -6.2200   -4.4570   11.7880 os        1 4GW     -0.482800
     29 PBU        -7.5000   -5.0370   12.5730 p5        1 4GW      0.850900
     30 OAO        -8.5790   -3.8610   12.7820 o         1 4GW     -0.567500
     31 OAH        -8.1630   -6.2260   11.7120 o         1 4GW     -0.567500
     32 O1         -7.0770   -5.5590   13.8920 o         1 4GW     -0.567500
     33 H1         -0.5420    0.0000   -0.9380 h4        1 4GW     -0.083800
     34 H4         -2.7360    0.0110    0.4890 ha        1 4GW      0.084000
     35 H5         -3.5810    0.0080    2.8750 ha        1 4GW      0.101000
     36 H7         -1.0590   -1.9820    5.3410 h4        1 4GW      0.143000
     37 H8         -3.0510    1.8600    7.5090 hn        1 4GW      0.189500
     38 H9         -0.8900   -3.0050    7.3580 h2        1 4GW      0.040700
     39 H10        -0.2900   -0.7680    9.3520 h1        1 4GW      0.045700
     40 H11         1.6580   -1.0660    8.5100 ho        1 4GW      0.371000
     41 H12        -0.1590   -2.3490   11.0690 h1        1 4GW      0.014700
     42 H13         1.1600   -3.9880   10.7260 ho        1 4GW      0.372000
     43 H14        -1.6990   -4.3910    9.6860 h1        1 4GW      0.029700
     44 H15        -2.0030   -3.5560   12.0420 h1        1 4GW     -0.015800
     45 H16        -2.6040   -2.0290   11.3810 h1        1 4GW     -0.015800
@<TRIPOS>BOND
     1    1    2 2   
     2    1    3 1   
     3    1   33 1   
     4    3    4 1   
     5    3    5 2   
     6    4    7 1   
     7    5    6 1   
     8    5   34 1   
     9    6    7 2   
    10    6   35 1   
    11    7    8 1   
    12    8    9 2   
    13    8   10 1   
    14    9   15 1   
    15    9   36 1   
    16   10   11 2   
    17   10   12 1   
    18   12   13 1   
    19   12   37 1   
    20   13   14 2   
    21   13   15 1   
    22   15   16 1   
    23   16   17 1   
    24   16   18 1   
    25   16   38 1   
    26   17   22 1   
    27   18   19 1   
    28   18   20 1   
    29   18   39 1   
    30   19   40 1   
    31   20   21 1   
    32   20   22 1   
    33   20   41 1   
    34   21   42 1   
    35   22   23 1   
    36   22   43 1   
    37   23   24 1   
    38   23   44 1   
    39   23   45 1   
    40   24   25 1   
    41   25   26 1   
    42   25   27 1   
    43   25   28 1   
    44   28   29 1   
    45   29   30 1   
    46   29   31 1   
    47   29   32 1   
@<TRIPOS>SUBSTRUCTURE
     1 4GW         1 TEMP              0 ****  ****    0 ROOT
