@<TRIPOS>MOLECULE
4GZ
   61    63     1     0     0
SMALL
bcc


@<TRIPOS>ATOM
      1 C4         -0.3480   -0.2930    0.6410 ca        1 4GZ     -0.113000
      2 C5          1.0190   -0.4030    0.4210 ca        1 4GZ     -0.107000
      3 C18         9.1640   -0.0420   -7.1670 ca        1 4GZ      0.049000
      4 C3         -0.8360    0.1280    1.8820 ca        1 4GZ     -0.050000
      5 C17         8.7290    0.0120   -5.8610 ca        1 4GZ     -0.322300
      6 C7          1.4250    0.3290    2.7080 ca        1 4GZ     -0.041000
      7 C20         8.0660   -2.1890   -7.3800 ca        1 4GZ      0.517200
      8 C6          1.9160   -0.0870    1.4560 ca        1 4GZ     -0.208600
      9 C19         8.8460   -1.1650   -7.9750 ca        1 4GZ     -0.413900
     10 C2          0.0470    0.4410    2.9240 ca        1 4GZ     -0.055300
     11 C16         7.9500   -1.0770   -5.3290 ca        1 4GZ      0.736200
     12 C8          3.3650   -0.1820    1.3330 c         1 4GZ      0.579700
     13 C27        10.0570   -0.5830   -0.1910 c3        1 4GZ     -0.086400
     14 C26         9.5050   -1.7170   -1.0280 c3        1 4GZ     -0.080900
     15 C28         9.5680    0.7630   -0.6790 c3        1 4GZ     -0.080900
     16 C25         7.9920   -1.6680   -1.1050 c3        1 4GZ     -0.079400
     17 C29         8.0560    0.8060   -0.7770 c3        1 4GZ     -0.079400
     18 C13         7.4690   -0.3290   -1.6270 c3        1 4GZ     -0.047000
     19 C1         -0.4740    0.8880    4.2360 c3        1 4GZ     -0.075800
     20 C12         5.9340   -0.3090   -1.5840 c3        1 4GZ     -0.103400
     21 C14         7.9100   -0.0730   -3.0900 c3        1 4GZ      0.198800
     22 C11         5.3840   -0.1230   -0.1740 c3        1 4GZ      0.103800
     23 N21         7.6290   -2.1720   -6.1290 nb        1 4GZ     -0.727000
     24 N23         9.0850   -2.4140  -10.1660 n4        1 4GZ     -0.762400
     25 N15         7.4660   -1.0580   -4.0460 nh        1 4GZ     -0.833900
     26 N10         3.9100   -0.3380   -0.0900 n4        1 4GZ     -0.682800
     27 O9          4.2150   -0.1430    2.2110 o         1 4GZ     -0.423100
     28 O24         9.9590   -0.3020   -9.9350 o         1 4GZ     -0.428100
     29 H1         -1.0570   -0.5440   -0.1660 ha        1 4GZ      0.167000
     30 H2          1.3620   -0.7570   -0.5620 ha        1 4GZ      0.119000
     31 H3          9.7640    0.7830   -7.5950 ha        1 4GZ      0.182000
     32 H4         -1.9250    0.2110    2.0460 ha        1 4GZ      0.173000
     33 H5          8.9760    0.8830   -5.2360 ha        1 4GZ      0.174000
     34 H6          2.1320    0.5640    3.5230 ha        1 4GZ      0.172000
     35 H7          7.7620   -3.0960   -7.9390 h4        1 4GZ      0.017100
     36 H8         11.1790   -0.6070   -0.2230 hc        1 4GZ      0.062700
     37 H9          9.7530   -0.7260    0.8800 hc        1 4GZ      0.062700
     38 H10         9.9430   -1.6780   -2.0590 hc        1 4GZ      0.056450
     39 H11         9.8120   -2.6970   -0.5760 hc        1 4GZ      0.056450
     40 H12        10.0330    1.0040   -1.6710 hc        1 4GZ      0.056450
     41 H13         9.9020    1.5620    0.0360 hc        1 4GZ      0.056450
     42 H14         7.6220   -2.5120   -1.7420 hc        1 4GZ      0.047200
     43 H15         7.5800   -1.8340   -0.0720 hc        1 4GZ      0.047200
     44 H16         7.6530    0.7230    0.2680 hc        1 4GZ      0.047200
     45 H17         7.7290    1.7920   -1.1970 hc        1 4GZ      0.047200
     46 H18         0.3260    0.8920    5.0160 hc        1 4GZ      0.072033
     47 H19        -1.2990    0.2130    4.5790 hc        1 4GZ      0.072033
     48 H20        -0.8870    1.9260    4.1490 hc        1 4GZ      0.072033
     49 H21         5.5540   -1.2750   -2.0150 hc        1 4GZ      0.059700
     50 H22         5.5640    0.5280   -2.2350 hc        1 4GZ      0.059700
     51 H23         9.0390   -0.0200   -3.1100 h1        1 4GZ      0.071700
     52 H24         7.5100    0.9340   -3.4100 h1        1 4GZ      0.071700
     53 H25         5.8740   -0.8440    0.5450 hx        1 4GZ      0.120700
     54 H26         5.5840    0.9260    0.1920 hx        1 4GZ      0.120700
     55 H27         8.0800   -2.5620  -10.2820 hn        1 4GZ      0.466800
     56 H28         9.4940   -3.2330   -9.7090 hn        1 4GZ      0.466800
     57 H29         7.0080   -1.8730   -3.6970 hn        1 4GZ      0.455800
     58 H30         3.4270    0.3350   -0.6950 hn        1 4GZ      0.454300
     59 H233        9.5170   -2.2950  -11.0920 hn        1 4GZ      0.466800
     60 H102        3.6790   -1.2820   -0.4180 hn        1 4GZ      0.454300
     61 C22         9.3400   -1.1660   -9.3280 c         1 4GZ      0.590700
@<TRIPOS>BOND
     1    1    2 ar  
     2    1    4 ar  
     3    1   29 1   
     4    2    8 ar  
     5    2   30 1   
     6    3    5 ar  
     7    3    9 ar  
     8    3   31 1   
     9    4   10 ar  
    10    4   32 1   
    11    5   11 ar  
    12    5   33 1   
    13    6    8 ar  
    14    6   10 ar  
    15    6   34 1   
    16    7    9 ar  
    17    7   23 ar  
    18    7   35 1   
    19    8   12 1   
    20    9   61 1   
    21   10   19 1   
    22   11   23 ar  
    23   11   25 1   
    24   12   26 1   
    25   12   27 2   
    26   13   14 1   
    27   13   15 1   
    28   13   36 1   
    29   13   37 1   
    30   14   16 1   
    31   14   38 1   
    32   14   39 1   
    33   15   17 1   
    34   15   40 1   
    35   15   41 1   
    36   16   18 1   
    37   16   42 1   
    38   16   43 1   
    39   17   18 1   
    40   17   44 1   
    41   17   45 1   
    42   18   20 1   
    43   18   21 1   
    44   19   46 1   
    45   19   47 1   
    46   19   48 1   
    47   20   22 1   
    48   20   49 1   
    49   20   50 1   
    50   21   25 1   
    51   21   51 1   
    52   21   52 1   
    53   22   26 1   
    54   22   53 1   
    55   22   54 1   
    56   24   55 1   
    57   24   56 1   
    58   24   59 1   
    59   24   61 1   
    60   25   57 1   
    61   26   58 1   
    62   26   60 1   
    63   28   61 2   
@<TRIPOS>SUBSTRUCTURE
     1 4GZ         1 TEMP              0 ****  ****    0 ROOT
