@<TRIPOS>MOLECULE
4GZ
   61    84     1     0     0
SMALL
bcc


@<TRIPOS>ATOM
      1 C4          0.0000    0.0000    0.0000 c3        1 4GZ      0.160000
      2 C5          1.3800    0.0000    0.0000 c3        1 4GZ     -0.638000
      3 C18         8.9250   -0.2760   -7.0950 c2        1 4GZ      0.120000
      4 C3         -0.6950    0.0010    1.1970 c2        1 4GZ      0.090000
      5 C17         8.6780   -0.2220   -5.7500 c3        1 4GZ      0.100000
      6 C7          1.3670    0.0020    2.4140 c2        1 4GZ     -0.360000
      7 C20         7.6240   -2.3050   -7.1720 c2        1 4GZ     -0.368000
      8 C6          2.0740    0.0000    1.2110 c2        1 4GZ     -0.214000
      9 C19         8.3860   -1.3400   -7.8330 c2        1 4GZ     -0.360000
     10 C2         -0.0120   -0.0030    2.4000 c3        1 4GZ     -0.157000
     11 C16         7.9030   -1.2170   -5.1560 DU        1 4GZ     -0.160000
     12 C8          3.5530   -0.0000    1.2180 c2        1 4GZ      0.349000
     13 C27        10.2830   -0.3180   -0.0270 DU        1 4GZ     -0.242000
     14 C26         9.7300   -1.5210   -0.7940 DU        1 4GZ     -0.153000
     15 C28         9.8110    0.9740   -0.6980 c3        1 4GZ     -0.123000
     16 C25         8.2010   -1.4720   -0.7870 c3        1 4GZ     -0.310000
     17 C29         8.2830    1.0240   -0.6920 c3        1 4GZ     -0.350000
     18 C13         7.7310   -0.1790   -1.4590 DU        1 4GZ     -0.093000
     19 C1         -0.7770   -0.0010    3.6980 c3        1 4GZ     -0.363000
     20 C12         6.2140   -0.0050   -1.3780 DU        1 4GZ     -0.195000
     21 C14         8.1730   -0.1190   -2.9210 c3        1 4GZ     -0.238000
     22 C11         5.6970   -0.0030    0.0620 DU        1 4GZ      0.414000
     23 N21         7.4050   -2.2130   -5.8770 n2        1 4GZ      0.590000
     24 N23         8.0970   -2.4650   -9.9860 nz        1 4GZ      0.083000
     25 N15         7.4980   -1.1730   -3.6810 n7        1 4GZ     -0.305000
     26 N10         4.2330   -0.0020    0.0550 ny        1 4GZ     -0.083000
     27 O9          4.1550    0.0000    2.2740 o         1 4GZ     -0.224000
     28 O24         9.2840   -0.5920   -9.8530 o         1 4GZ     -0.160000
     29 H1          0.7540   -0.1390   -0.7650 DU        1 4GZ      0.245000
     30 H2          0.4070    0.0010   -0.4770 DU        1 4GZ      0.245000
     31 H3          8.1080   -0.2640   -6.3830 DU        1 4GZ      0.024000
     32 H4          0.1390    0.0260    0.5070 ha        1 4GZ     -0.040000
     33 H5          7.7780   -0.2270   -5.1470 DU        1 4GZ      0.100000
     34 H6          2.1600    0.0490    1.6780 ha        1 4GZ      0.385000
     35 H7          7.1160   -2.1440   -6.2280 h4        1 4GZ     -0.016000
     36 H8          9.9040   -0.7180   -0.9600 DU        1 4GZ      0.107000
     37 H9         11.3650   -0.3530   -0.0350 ha        1 4GZ      0.160000
     38 H10         9.8260   -0.9300    0.1090 DU        1 4GZ      0.107000
     39 H11        10.0630   -2.4350   -0.3160 ha        1 4GZ      0.192000
     40 H12         9.9220   -0.0070   -1.1440 DU        1 4GZ      0.158000
     41 H13        10.2010    1.8240   -0.1520 hc        1 4GZ      0.195000
     42 H14         8.8480   -0.6590   -1.0950 DU        1 4GZ      0.059000
     43 H15         7.8450   -1.4970    0.2350 hc        1 4GZ      0.107000
     44 H16         8.1340   -0.0300   -0.8950 DU        1 4GZ      0.252000
     45 H17         7.9510    1.9380   -1.1700 hc        1 4GZ      0.164000
     46 H18         0.2280    0.1330    3.3190 DU        1 4GZ      0.464000
     47 H19        -0.3250    0.7060    4.3830 hc        1 4GZ      0.136500
     48 H20        -1.8050    0.2860    3.5110 hc        1 4GZ      0.136500
     49 H21         5.4050   -0.0190   -0.6580 DU        1 4GZ     -0.739000
     50 H22         5.9270    0.9010   -1.8980 ha        1 4GZ      0.154000
     51 H23         7.2290   -0.4620   -2.5160 h1        1 4GZ      0.176500
     52 H24         7.8410    0.8150   -3.3610 h1        1 4GZ      0.176500
     53 H25         6.5460   -0.0670   -0.6080 DU        1 4GZ      0.205000
     54 H26         5.9590   -0.9380    0.5410 hx        1 4GZ      0.134000
     55 H27         7.9150   -2.1900   -9.0410 DU        1 4GZ      0.347500
     56 H28         8.2670   -2.3910  -10.9690 hn        1 4GZ      0.241000
     57 H29         7.7270   -1.5090   -4.5950 DU        1 4GZ      0.206000
     58 H30         4.8600   -0.3860   -0.6240 DU        1 4GZ      0.354000
     59 H233        7.8830   -1.9940   -9.1290 DU        1 4GZ      0.347500
     60 H102        4.9890   -0.0940   -0.5950 DU        1 4GZ      0.412000
     61 C22         8.6200   -1.4380   -9.2860 DU        1 4GZ     -0.001000
@<TRIPOS>BOND
     1    1    2 1   
     2    1    4 1   
     3    1   29 1   
     4    1   30 1   
     5    2    8 1   
     6    2   29 1   
     7    2   30 1   
     8    3    5 1   
     9    3    9 1   
    10    3   31 1   
    11    4   10 1   
    12    4   32 1   
    13    5   11 1   
    14    5   31 1   
    15    5   33 1   
    16    6    8 1   
    17    6   10 1   
    18    6   34 1   
    19    7    9 1   
    20    7   23 1   
    21    7   35 1   
    22    8   12 1   
    23    9   61 1   
    24   10   19 1   
    25   10   46 1   
    26   11   23 1   
    27   11   25 1   
    28   11   33 1   
    29   11   57 1   
    30   12   26 1   
    31   12   27 1   
    32   13   14 1   
    33   13   15 1   
    34   13   36 1   
    35   13   37 1   
    36   13   38 1   
    37   13   40 1   
    38   14   16 1   
    39   14   36 1   
    40   14   38 1   
    41   14   39 1   
    42   14   42 1   
    43   15   17 1   
    44   15   40 1   
    45   15   41 1   
    46   16   18 1   
    47   16   42 1   
    48   16   43 1   
    49   17   18 1   
    50   17   44 1   
    51   17   45 1   
    52   18   20 1   
    53   18   21 1   
    54   18   42 1   
    55   18   44 1   
    56   19   46 1   
    57   19   47 1   
    58   19   48 1   
    59   20   22 1   
    60   20   49 1   
    61   20   50 1   
    62   20   53 1   
    63   21   25 1   
    64   21   51 1   
    65   21   52 1   
    66   22   26 1   
    67   22   49 1   
    68   22   53 1   
    69   22   54 1   
    70   22   58 1   
    71   24   55 1   
    72   24   56 1   
    73   24   59 1   
    74   24   61 1   
    75   25   57 1   
    76   26   58 1   
    77   26   60 1   
    78   28   61 1   
    79   29   30 1   
    80   49   58 1   
    81   49   60 1   
    82   55   61 1   
    83   58   60 1   
    84   59   61 1   
@<TRIPOS>SUBSTRUCTURE
     1 4GZ         1 TEMP              0 ****  ****    0 ROOT
