@<TRIPOS>MOLECULE
4H0
   28    26     1     0     0
SMALL
bcc


@<TRIPOS>ATOM
      1 N          -2.8870    1.3280    1.5770 n3        1 4H0     -0.336000
      2 CA         -1.5240    0.9910    1.8930 c3        1 4H0     -0.052000
      3 CB         -1.4080    0.6510    3.3850 c3        1 4H0     -0.267000
      4 CG         -1.5530    1.9250    4.2180 c2        1 4H0      0.331000
      5 OD1        -0.5640    2.7620    4.2970 o         1 4H0     -0.574000
      6 OD2        -2.5600    2.0910    4.9210 o         1 4H0     -0.574000
      7 C          -1.0910   -0.2140    1.0660 c2        1 4H0      0.236000
      8 O          -1.5240   -1.2810    1.3090 o         1 4H0     -0.280000
      9 C5         -0.0620   -0.0320   -0.1100 c3        1 4H0     -0.092000
     10 H          -3.0080    2.3070    1.6360 hn        1 4H0      0.163500
     11 HA         -0.9660    1.7250    1.6930 h1        1 4H0      0.107000
     12 HB2        -0.5340    0.2450    3.5580 hc        1 4H0      0.076000
     13 HB3        -2.1250    0.0080    3.6330 hc        1 4H0      0.076000
     14 H2         -3.4540    0.9090    2.1710 hn        1 4H0      0.163500
     15 O4          0.0090   -1.2060   -0.8580 os        1 4H0     -0.179000
     16 H5         -0.3450    0.6820   -0.6670 h1        1 4H0      0.114500
     17 H8          0.8500    0.1820    0.2720 h1        1 4H0      0.114500
     18 C6          0.9770   -1.1750   -1.8900 c2        1 4H0      0.046000
     19 C7          0.6260   -0.7330   -3.1650 c2        1 4H0      0.039000
     20 C8          1.5910   -0.7410   -4.2110 c1        1 4H0      0.077000
     21 C9          2.8700   -1.1860   -3.9640 c1        1 4H0     -0.184000
     22 C10         3.2230   -1.6300   -2.6850 c1        1 4H0      0.074000
     23 C11         2.2630   -1.6230   -1.6430 c1        1 4H0      0.064000
     24 F1         -0.6370   -0.2450   -3.3980 f         1 4H0     -0.074000
     25 F2          1.2400   -0.3410   -5.4690 f         1 4H0     -0.088000
     26 H9          3.5390   -1.1980   -4.6960 ha        1 4H0      0.169000
     27 F3          4.4930   -2.0040   -2.4250 f         1 4H0     -0.087000
     28 F4          2.5610   -2.1980   -0.4460 f         1 4H0     -0.063000
@<TRIPOS>BOND
     1    1    2 1   
     2    1   10 1   
     3    1   14 1   
     4    2    3 1   
     5    2    7 1   
     6    2   11 1   
     7    3    4 1   
     8    3   12 1   
     9    3   13 1   
    10    4    5 1   
    11    4    6 1   
    12    7    8 1   
    13    7    9 1   
    14    9   15 1   
    15    9   16 1   
    16    9   17 1   
    17   15   18 1   
    18   18   19 1   
    19   18   23 1   
    20   19   20 1   
    21   19   24 1   
    22   20   25 1   
    23   21   22 1   
    24   21   26 1   
    25   22   27 1   
    26   23   28 1   
@<TRIPOS>SUBSTRUCTURE
     1 4H0         1 TEMP              0 ****  ****    0 ROOT
