@<TRIPOS>MOLECULE
4H0
   28    28     1     0     0
SMALL
bcc


@<TRIPOS>ATOM
      1 N           4.0980    1.6920    0.7440 n3        1 4H0     -0.903800
      2 CA          3.1390    0.7440    0.2030 c3        1 4H0      0.095500
      3 CB          3.6470   -0.6930    0.0350 c3        1 4H0     -0.238400
      4 CG          4.7820   -0.7390   -1.0080 c         1 4H0      0.911600
      5 OD1         5.8270   -0.0640   -0.7770 o         1 4H0     -0.839300
      6 OD2         4.6040   -1.4520   -2.0330 o         1 4H0     -0.839300
      7 C           1.8650    0.6860    1.0390 c         1 4H0      0.575100
      8 O           1.8190    0.7440    2.2660 o         1 4H0     -0.519100
      9 C5          0.6320    0.5170    0.1750 c3        1 4H0      0.008400
     10 H           4.3350    1.4240    1.6820 hn        1 4H0      0.368300
     11 HA          2.8650    1.1310   -0.8260 h1        1 4H0      0.067700
     12 HB2         4.0360   -1.0840    1.0070 hc        1 4H0      0.036700
     13 HB3         2.8100   -1.3530   -0.3040 hc        1 4H0      0.036700
     14 H2          4.9370    1.6360    0.1830 hn        1 4H0      0.368300
     15 O4         -0.4950    0.3000    1.0470 os        1 4H0     -0.295900
     16 H5          0.4620    1.4490   -0.4260 h1        1 4H0      0.075200
     17 H8          0.7620   -0.3670   -0.5030 h1        1 4H0      0.075200
     18 C6         -1.6710    0.0300    0.3850 ca        1 4H0      0.091100
     19 C7         -2.2780   -1.2260    0.6170 ca        1 4H0      0.086400
     20 C8         -3.5570   -1.4970    0.0620 ca        1 4H0      0.110400
     21 C9         -4.2090   -0.5390   -0.7240 ca        1 4H0     -0.184000
     22 C10        -3.6030    0.7020   -0.9580 ca        1 4H0      0.110400
     23 C11        -2.3320    1.0010   -0.3990 ca        1 4H0      0.086400
     24 F1         -1.6580   -2.1570    1.3690 f         1 4H0     -0.103400
     25 F2         -4.1450   -2.6930    0.2910 f         1 4H0     -0.122400
     26 H9         -5.1950   -0.7610   -1.1580 ha        1 4H0      0.169000
     27 F3         -4.2350    1.6280   -1.7140 f         1 4H0     -0.122400
     28 F4         -1.7720    2.2090   -0.6230 f         1 4H0     -0.103400
@<TRIPOS>BOND
     1    1    2 1   
     2    1   10 1   
     3    1   14 1   
     4    2    3 1   
     5    2    7 1   
     6    2   11 1   
     7    3    4 1   
     8    3   12 1   
     9    3   13 1   
    10    4    5 1   
    11    4    6 1   
    12    7    8 2   
    13    7    9 1   
    14    9   15 1   
    15    9   16 1   
    16    9   17 1   
    17   15   18 1   
    18   18   19 ar  
    19   18   23 ar  
    20   19   20 ar  
    21   19   24 1   
    22   20   21 ar  
    23   20   25 1   
    24   21   22 ar  
    25   21   26 1   
    26   22   23 ar  
    27   22   27 1   
    28   23   28 1   
@<TRIPOS>SUBSTRUCTURE
     1 4H0         1 TEMP              0 ****  ****    0 ROOT
