@<TRIPOS>MOLECULE
4H2
   15    15     1     0     0
SMALL
bcc


@<TRIPOS>ATOM
      1 C6          0.0040   -0.0110   -0.0020 c3        1 4H2     -0.068900
      2 C3          1.4840   -0.0100    0.0210 cc        1 4H2      0.003800
      3 C2          2.1940    0.0140    1.1920 cd        1 4H2     -0.211200
      4 C1          3.6420    0.0150    1.2120 c         1 4H2      0.394600
      5 S1          4.4930    0.0430    2.5590 s         1 4H2     -0.518400
      6 N1          4.2730   -0.0120   -0.0300 ns        1 4H2     -0.365100
      7 C5          3.5650   -0.0370   -1.2080 cd        1 4H2     -0.010400
      8 C4          2.1920   -0.0370   -1.2220 cc        1 4H2     -0.221000
      9 H1         -0.3700   -0.9300   -0.5190 hc        1 4H2      0.055033
     10 H2         -0.4200    0.0140    1.0310 hc        1 4H2      0.055033
     11 H3         -0.3700    0.8830   -0.5620 hc        1 4H2      0.055033
     12 H4          1.6970    0.0350    2.1750 ha        1 4H2      0.171000
     13 H6          4.1650   -0.0570   -2.1360 h4        1 4H2      0.158000
     14 H7          1.6390   -0.0570   -2.1690 ha        1 4H2      0.154000
     15 H5          5.2740   -0.0120   -0.0420 hn        1 4H2      0.347500
@<TRIPOS>BOND
     1    1    2 1   
     2    1    9 1   
     3    1   10 1   
     4    1   11 1   
     5    2    3 2   
     6    2    8 1   
     7    3    4 1   
     8    3   12 1   
     9    4    5 2   
    10    4    6 1   
    11    6    7 1   
    12    6   15 1   
    13    7    8 2   
    14    7   13 1   
    15    8   14 1   
@<TRIPOS>SUBSTRUCTURE
     1 4H2         1 TEMP              0 ****  ****    0 ROOT
