@<TRIPOS>MOLECULE
4H5
   29    31     1     0     0
SMALL
bcc


@<TRIPOS>ATOM
      1 C4          0.0670    0.0040   -0.0060 cp        1 4H5     -0.118000
      2 C5          1.5180   -0.0330   -0.0170 cp        1 4H5     -0.010000
      3 C6          2.4760   -0.1420    0.9760 ca        1 4H5     -0.206300
      4 N1          0.7880    0.2810   -2.2310 na        1 4H5     -0.039300
      5 C7          3.8260   -0.1220    0.5720 ca        1 4H5      0.392200
      6 C8          3.3100    0.1260   -1.6790 ca        1 4H5      0.485300
      7 N2          0.7910   -2.7560   -4.0060 n1        1 4H5     -0.339800
      8 C9          1.9280    0.0970   -1.4020 ca        1 4H5     -0.135500
      9 C10         0.7190   -0.1660   -3.5970 c3        1 4H5      0.087400
     10 C11         0.7600   -1.6110   -3.8100 c1        1 4H5      0.171700
     11 C12        -0.3510    0.1520   -1.3800 ca        1 4H5      0.014800
     12 C13        -1.7000    0.2240   -1.7110 ca        1 4H5     -0.177000
     13 Cl          3.8820    0.3220   -3.2800 cl        1 4H5     -0.149000
     14 C1         -2.6290    0.1490   -0.6530 ca        1 4H5      0.163100
     15 O          -3.9450    0.2290   -1.0620 os        1 4H5     -0.324900
     16 C          -4.9340    0.1330   -0.0420 c3        1 4H5      0.112700
     17 C2         -2.2300    0.0080    0.6850 ca        1 4H5     -0.226000
     18 C3         -0.8750   -0.0630    1.0070 ca        1 4H5     -0.033000
     19 N           4.2390    0.0090   -0.6980 nb        1 4H5     -0.641000
     20 H1          2.2040   -0.2390    2.0350 ha        1 4H5      0.153000
     21 H2          4.6370   -0.2120    1.3180 h4        1 4H5      0.032100
     22 H3          1.5790    0.3020   -4.1650 h1        1 4H5      0.100200
     23 H4         -0.2490    0.2260   -4.0340 h1        1 4H5      0.100200
     24 H5         -2.0580    0.3370   -2.7420 ha        1 4H5      0.158000
     25 H6         -4.8350    0.9770    0.6820 h1        1 4H5      0.048367
     26 H7         -4.8630   -0.8490    0.4850 h1        1 4H5      0.048367
     27 H8         -5.8960    0.2090   -0.6100 h1        1 4H5      0.048367
     28 H9         -2.9770   -0.0480    1.4890 ha        1 4H5      0.144000
     29 H10        -0.5600   -0.1700    2.0550 ha        1 4H5      0.142000
@<TRIPOS>BOND
     1    1    2 1   
     2    1   11 ar  
     3    1   18 ar  
     4    2    3 ar  
     5    2    8 ar  
     6    3    5 ar  
     7    3   20 1   
     8    4    8 1   
     9    4    9 1   
    10    4   11 1   
    11    5   19 ar  
    12    5   21 1   
    13    6    8 ar  
    14    6   13 1   
    15    6   19 ar  
    16    7   10 3   
    17    9   10 1   
    18    9   22 1   
    19    9   23 1   
    20   11   12 ar  
    21   12   14 ar  
    22   12   24 1   
    23   14   15 1   
    24   14   17 ar  
    25   15   16 1   
    26   16   25 1   
    27   16   26 1   
    28   16   27 1   
    29   17   18 ar  
    30   17   28 1   
    31   18   29 1   
@<TRIPOS>SUBSTRUCTURE
     1 4H5         1 TEMP              0 ****  ****    0 ROOT
