@<TRIPOS>MOLECULE
4H5
   29    31     1     0     0
SMALL
bcc


@<TRIPOS>ATOM
      1 C4          0.0680    0.0460    0.0150 cp        1 4H5     -0.118000
      2 C5          1.5190    0.0570   -0.0260 cp        1 4H5     -0.010000
      3 C6          2.5000   -0.0040    0.9480 ca        1 4H5     -0.206300
      4 N1          0.7320    0.3110   -2.2280 na        1 4H5     -0.039300
      5 C7          3.8410    0.0550    0.5140 ca        1 4H5      0.392200
      6 C8          3.2690    0.2500   -1.7290 ca        1 4H5      0.485300
      7 N2          0.8000   -2.7510   -3.9580 n1        1 4H5     -0.339800
      8 C9          1.8950    0.1790   -1.4210 ca        1 4H5     -0.135500
      9 C10         0.6500   -0.1580   -3.5850 c3        1 4H5      0.087400
     10 C11         0.7350   -1.6050   -3.7780 c1        1 4H5      0.171700
     11 C12        -0.3830    0.1580   -1.3510 ca        1 4H5      0.014800
     12 C13        -1.7420    0.1790   -1.6530 ca        1 4H5     -0.177000
     13 CL          3.8000    0.4400   -3.3450 cl        1 4H5     -0.149000
     14 C1         -2.6450    0.0900   -0.5750 ca        1 4H5      0.163100
     15 O          -3.9710    0.1200   -0.9570 os        1 4H5     -0.324900
     16 C          -4.9340    0.0060    0.0860 c3        1 4H5      0.112700
     17 C2         -2.2130   -0.0170    0.7560 ca        1 4H5     -0.226000
     18 C3         -0.8500   -0.0370    1.0500 ca        1 4H5     -0.033000
     19 N           4.2220    0.1800   -0.7660 nb        1 4H5     -0.641000
     20 H1          2.2540   -0.0930    2.0130 ha        1 4H5      0.153000
     21 H2          4.6700    0.0040    1.2440 h4        1 4H5      0.032100
     22 H3         -0.3410    0.1940   -4.0070 h1        1 4H5      0.100200
     23 H4          1.4810    0.3290   -4.1790 h1        1 4H5      0.100200
     24 H5         -2.1240    0.2640   -2.6790 ha        1 4H5      0.158000
     25 H6         -4.8490    0.8650    0.7950 h1        1 4H5      0.048367
     26 H7         -5.9100    0.0410   -0.4620 h1        1 4H5      0.048367
     27 H8         -4.8190   -0.9650    0.6260 h1        1 4H5      0.048367
     28 H9         -2.9400   -0.0850    1.5770 ha        1 4H5      0.144000
     29 H10        -0.5090   -0.1170    2.0930 ha        1 4H5      0.142000
@<TRIPOS>BOND
     1    1    2 1   
     2    1   11 ar  
     3    1   18 ar  
     4    2    3 ar  
     5    2    8 ar  
     6    3    5 ar  
     7    3   20 1   
     8    4    8 1   
     9    4    9 1   
    10    4   11 1   
    11    5   19 ar  
    12    5   21 1   
    13    6    8 ar  
    14    6   13 1   
    15    6   19 ar  
    16    7   10 3   
    17    9   10 1   
    18    9   22 1   
    19    9   23 1   
    20   11   12 ar  
    21   12   14 ar  
    22   12   24 1   
    23   14   15 1   
    24   14   17 ar  
    25   15   16 1   
    26   16   25 1   
    27   16   26 1   
    28   16   27 1   
    29   17   18 ar  
    30   17   28 1   
    31   18   29 1   
@<TRIPOS>SUBSTRUCTURE
     1 4H5         1 TEMP              0 ****  ****    0 ROOT
