@<TRIPOS>MOLECULE
4HA
   18    17     1     0     0
SMALL
bcc


@<TRIPOS>ATOM
      1 OA          0.0100   -0.0000    0.1040 oh        1 4HA     -0.591800
      2 CB          1.4200    0.0000   -0.0160 c3        1 4HA      0.138400
      3 CG          1.9580   -0.0000    1.4080 c3        1 4HA     -0.090400
      4 CD          3.4730    0.0000    1.4000 c3        1 4HA     -0.108400
      5 CE          3.9700   -0.0000    2.8400 c3        1 4HA      0.098800
      6 NZ          5.4610   -0.0000    2.9360 n4        1 4HA     -0.839600
      7 HA         -0.3490   -0.0000   -0.7930 ho        1 4HA      0.423000
      8 HB2         1.7650    0.9150   -0.5700 h1        1 4HA      0.030700
      9 HB3         1.7650   -0.9150   -0.5700 h1        1 4HA      0.030700
     10 HG2         1.5670    0.9040    1.9450 hc        1 4HA      0.074700
     11 HG3         1.5670   -0.9040    1.9450 hc        1 4HA      0.074700
     12 HD2         3.8460   -0.9080    0.8550 hc        1 4HA      0.069700
     13 HD3         3.8460    0.9080    0.8550 hc        1 4HA      0.069700
     14 HE2         3.5920    0.9170    3.3800 hx        1 4HA      0.116700
     15 HE3         3.5920   -0.9170    3.3800 hx        1 4HA      0.116700
     16 HZ1         5.8430    0.8320    2.4750 hn        1 4HA      0.462133
     17 HZ2         5.8430   -0.8320    2.4750 hn        1 4HA      0.462133
     18 HZ3         5.7500   -0.0000    3.9190 hn        1 4HA      0.462133
@<TRIPOS>BOND
     1    1    2 1   
     2    1    7 1   
     3    2    3 1   
     4    2    8 1   
     5    2    9 1   
     6    3    4 1   
     7    3   10 1   
     8    3   11 1   
     9    4    5 1   
    10    4   12 1   
    11    4   13 1   
    12    5    6 1   
    13    5   14 1   
    14    5   15 1   
    15    6   16 1   
    16    6   17 1   
    17    6   18 1   
@<TRIPOS>SUBSTRUCTURE
     1 4HA         1 TEMP              0 ****  ****    0 ROOT
