@<TRIPOS>MOLECULE
4HA
   18    17     1     0     0
SMALL
bcc


@<TRIPOS>ATOM
      1 OA         -3.0060    0.0000   -1.5380 oh        1 4HA     -0.591800
      2 CB         -1.5960    0.0000   -1.5380 c3        1 4HA      0.138400
      3 CG         -1.0910    0.0000   -0.1120 c3        1 4HA     -0.090400
      4 CD          0.4220   -0.0000   -0.1120 c3        1 4HA     -0.108400
      5 CE          0.9260    0.0000    1.3140 c3        1 4HA      0.098800
      6 NZ          2.3540   -0.0000    1.3140 n4        1 4HA     -0.839600
      7 HA         -3.3020    0.0000   -2.3750 ho        1 4HA      0.423000
      8 HB2        -1.2700    0.7970   -1.9990 h1        1 4HA      0.030700
      9 HB3        -1.2700   -0.7970   -1.9990 h1        1 4HA      0.030700
     10 HG2        -1.4170   -0.7970    0.3480 hc        1 4HA      0.074700
     11 HG3        -1.4170    0.7970    0.3480 hc        1 4HA      0.074700
     12 HD2         0.7470    0.7970   -0.5720 hc        1 4HA      0.069700
     13 HD3         0.7470   -0.7970   -0.5720 hc        1 4HA      0.069700
     14 HE2         0.6000   -0.7970    1.7750 hx        1 4HA      0.116700
     15 HE3         0.6010    0.7970    1.7740 hx        1 4HA      0.116700
     16 HZ1         2.6570   -0.7450    0.8850 hn        1 4HA      0.462133
     17 HZ2         2.6580    0.7440    0.8840 hn        1 4HA      0.462133
     18 HZ3         2.6580   -0.0000    2.1740 hn        1 4HA      0.462133
@<TRIPOS>BOND
     1    1    2 1   
     2    1    7 1   
     3    2    3 1   
     4    2    8 1   
     5    2    9 1   
     6    3    4 1   
     7    3   10 1   
     8    3   11 1   
     9    4    5 1   
    10    4   12 1   
    11    4   13 1   
    12    5    6 1   
    13    5   14 1   
    14    5   15 1   
    15    6   16 1   
    16    6   17 1   
    17    6   18 1   
@<TRIPOS>SUBSTRUCTURE
     1 4HA         1 TEMP              0 ****  ****    0 ROOT
