@<TRIPOS>MOLECULE
4HA
   18    17     1     0     0
SMALL
bcc


@<TRIPOS>ATOM
      1 OA         -3.0020    0.3100    0.0010 oh        1 4HA     -0.591800
      2 CB         -1.8700   -0.5410   -0.0000 c3        1 4HA      0.138400
      3 CG         -0.6570    0.3800    0.0000 c3        1 4HA     -0.090400
      4 CD          0.6210   -0.4320   -0.0000 c3        1 4HA     -0.108400
      5 CE          1.8070    0.5250    0.0000 c3        1 4HA      0.098800
      6 NZ          3.1210   -0.1870   -0.0000 n4        1 4HA     -0.839600
      7 HA         -3.7820   -0.2580    0.0000 ho        1 4HA      0.423000
      8 HB2        -1.8730   -1.1920   -0.9160 h1        1 4HA      0.030700
      9 HB3        -1.8730   -1.1940    0.9140 h1        1 4HA      0.030700
     10 HG2        -0.7040    1.0420    0.9050 hc        1 4HA      0.074700
     11 HG3        -0.7040    1.0430   -0.9030 hc        1 4HA      0.074700
     12 HD2         0.6470   -1.0910   -0.9090 hc        1 4HA      0.069700
     13 HD3         0.6470   -1.0920    0.9070 hc        1 4HA      0.069700
     14 HE2         1.7740    1.1820    0.9180 hx        1 4HA      0.116700
     15 HE3         1.7740    1.1830   -0.9170 hx        1 4HA      0.116700
     16 HZ1         3.2000   -0.7810    0.8320 hn        1 4HA      0.462133
     17 HZ2         3.8890    0.4930    0.0000 hn        1 4HA      0.462133
     18 HZ3         3.2000   -0.7800   -0.8330 hn        1 4HA      0.462133
@<TRIPOS>BOND
     1    1    2 1   
     2    1    7 1   
     3    2    3 1   
     4    2    8 1   
     5    2    9 1   
     6    3    4 1   
     7    3   10 1   
     8    3   11 1   
     9    4    5 1   
    10    4   12 1   
    11    4   13 1   
    12    5    6 1   
    13    5   14 1   
    14    5   15 1   
    15    6   16 1   
    16    6   17 1   
    17    6   18 1   
@<TRIPOS>SUBSTRUCTURE
     1 4HA         1 TEMP              0 ****  ****    0 ROOT
