@<TRIPOS>MOLECULE
4HB
   24    25     1     0     0
SMALL
bcc


@<TRIPOS>ATOM
      1 CA1        -0.0240   -0.0470   -0.0000 cp        1 4HB     -0.067000
      2 CA2         1.3130   -0.4580    0.0820 ca        1 4HB     -0.085000
      3 CA3         1.9810   -0.4670    1.3030 ca        1 4HB     -0.184500
      4 CA4         1.3040   -0.0560    2.4590 ca        1 4HB      0.125100
      5 OA4         1.8960   -0.0360    3.7010 oh        1 4HB     -0.497100
      6 CA5        -0.0360    0.3610    2.3960 ca        1 4HB     -0.184500
      7 CA6        -0.6870    0.3610    1.1680 ca        1 4HB     -0.085000
      8 CB1        -0.7200   -0.0420   -1.2840 cp        1 4HB     -0.067000
      9 CB2        -2.0510   -0.4710   -1.3730 ca        1 4HB     -0.085000
     10 CB3        -2.7190   -0.4710   -2.5930 ca        1 4HB     -0.184500
     11 CB4        -2.0470   -0.0340   -3.7430 ca        1 4HB      0.125100
     12 CB5        -0.7130    0.4010   -3.6740 ca        1 4HB     -0.184500
     13 CB6        -0.0620    0.3920   -2.4470 ca        1 4HB     -0.085000
     14 OAM        -2.6390   -0.0050   -4.9850 oh        1 4HB     -0.497100
     15 HA2         1.8400   -0.7860   -0.8280 ha        1 4HB      0.137000
     16 HA6        -1.7350    0.6930    1.1110 ha        1 4HB      0.137000
     17 HA3         3.0290   -0.7930    1.3600 ha        1 4HB      0.142500
     18 HA4         2.8090   -0.3430    3.6010 ho        1 4HB      0.419000
     19 HA5        -0.5480    0.6820    3.3140 ha        1 4HB      0.142500
     20 HB2        -2.5730   -0.8200   -0.4680 ha        1 4HB      0.137000
     21 HB6         0.9810    0.7380   -2.3840 ha        1 4HB      0.137000
     22 HB3        -3.7620   -0.8120   -2.6560 ha        1 4HB      0.142500
     23 HB5        -0.2060    0.7430   -4.5870 ha        1 4HB      0.142500
     24 HAM        -3.5480   -0.3250   -4.8890 ho        1 4HB      0.419000
@<TRIPOS>BOND
     1    1    2 ar  
     2    1    7 ar  
     3    1    8 1   
     4    2    3 ar  
     5    2   15 1   
     6    3    4 ar  
     7    3   17 1   
     8    4    5 1   
     9    4    6 ar  
    10    5   18 1   
    11    6    7 ar  
    12    6   19 1   
    13    7   16 1   
    14    8    9 ar  
    15    8   13 ar  
    16    9   10 ar  
    17    9   20 1   
    18   10   11 ar  
    19   10   22 1   
    20   11   12 ar  
    21   11   14 1   
    22   12   13 ar  
    23   12   23 1   
    24   13   21 1   
    25   14   24 1   
@<TRIPOS>SUBSTRUCTURE
     1 4HB         1 TEMP              0 ****  ****    0 ROOT
