@<TRIPOS>MOLECULE
4HB
   24    25     1     0     0
SMALL
bcc


@<TRIPOS>ATOM
      1 CA1         0.7300   -0.0210   -0.0420 cp        1 4HB     -0.067000
      2 CA2         1.4080   -1.1760    0.3800 ca        1 4HB     -0.085000
      3 CA3         2.7960   -1.2280    0.3850 ca        1 4HB     -0.184500
      4 CA4         3.5230   -0.1040   -0.0430 ca        1 4HB      0.125100
      5 OA4         4.8950   -0.2140   -0.0180 oh        1 4HB     -0.497100
      6 CA5         2.8640    1.0570   -0.4680 ca        1 4HB     -0.184500
      7 CA6         1.4720    1.0910   -0.4640 ca        1 4HB     -0.085000
      8 CB1        -0.7300    0.0210   -0.0420 cp        1 4HB     -0.067000
      9 CB2        -1.4080    1.1770    0.3780 ca        1 4HB     -0.085000
     10 CB3        -2.7960    1.2280    0.3820 ca        1 4HB     -0.184500
     11 CB4        -3.5230    0.1040   -0.0430 ca        1 4HB      0.125100
     12 CB5        -2.8640   -1.0580   -0.4660 ca        1 4HB     -0.184500
     13 CB6        -1.4720   -1.0920   -0.4610 ca        1 4HB     -0.085000
     14 OAM        -4.8950    0.2140   -0.0180 oh        1 4HB     -0.497100
     15 HA2         0.8320   -2.0500    0.7200 ha        1 4HB      0.137000
     16 HA6         0.9500    1.9990   -0.8020 ha        1 4HB      0.137000
     17 HA3         3.3330   -2.1270    0.7170 ha        1 4HB      0.142500
     18 HA4         5.2660    0.6230   -0.3320 ho        1 4HB      0.419000
     19 HA5         3.4390    1.9310   -0.8020 ha        1 4HB      0.142500
     20 HB2        -0.8320    2.0520    0.7160 ha        1 4HB      0.137000
     21 HB6        -0.9500   -2.0010   -0.7980 ha        1 4HB      0.137000
     22 HB3        -3.3330    2.1290    0.7130 ha        1 4HB      0.142500
     23 HB5        -3.4390   -1.9330   -0.7990 ha        1 4HB      0.142500
     24 HAM        -5.2660   -0.6230   -0.3310 ho        1 4HB      0.419000
@<TRIPOS>BOND
     1    1    2 ar  
     2    1    7 ar  
     3    1    8 1   
     4    2    3 ar  
     5    2   15 1   
     6    3    4 ar  
     7    3   17 1   
     8    4    5 1   
     9    4    6 ar  
    10    5   18 1   
    11    6    7 ar  
    12    6   19 1   
    13    7   16 1   
    14    8    9 ar  
    15    8   13 ar  
    16    9   10 ar  
    17    9   20 1   
    18   10   11 ar  
    19   10   22 1   
    20   11   12 ar  
    21   11   14 1   
    22   12   13 ar  
    23   12   23 1   
    24   13   21 1   
    25   14   24 1   
@<TRIPOS>SUBSTRUCTURE
     1 4HB         1 TEMP              0 ****  ****    0 ROOT
