@<TRIPOS>MOLECULE
4HB
   24    20     1     0     0
SMALL
bcc


@<TRIPOS>ATOM
      1 CA1         0.3730    0.0040    0.6590 c1        1 4HB     -0.067000
      2 CA2         1.7570   -0.0590    0.6820 c1        1 4HB     -0.148000
      3 CA3         2.4310   -0.0440    1.8930 c1        1 4HB     -0.148000
      4 CA4         1.7200    0.0330    3.0810 c1        1 4HB      0.080000
      5 OA4         2.4060    0.0820    4.3090 oh        1 4HB     -0.251000
      6 CA5         0.3360    0.0960    3.0570 c1        1 4HB     -0.184500
      7 CA6        -0.3380    0.0820    1.8460 c1        1 4HB     -0.088000
      8 CB1        -0.3610    0.0200   -0.6640 c2        1 4HB     -0.067000
      9 CB2        -0.6940    1.2290   -1.2560 c2        1 4HB     -0.088000
     10 CB3        -1.4160    1.2450   -2.4390 c1        1 4HB     -0.156000
     11 CB4        -1.8060    0.0530   -3.0300 c1        1 4HB      0.080000
     12 CB5        -1.4730   -1.1550   -2.4380 c1        1 4HB     -0.184500
     13 CB6        -0.7510   -1.1710   -1.2550 c1        1 4HB     -0.083000
     14 OAM        -2.5720    0.0710   -4.2100 oh        1 4HB     -0.251000
     15 HA2         2.2570   -0.1140   -0.1540 ha        1 4HB      0.135000
     16 HA6        -1.3130    0.1260    1.8300 ha        1 4HB      0.138000
     17 HA3         3.4060   -0.0880    1.9100 ha        1 4HB      0.135000
     18 HA4         2.5680   -0.7460    4.5900 ho        1 4HB      0.218000
     19 HA5        -0.1640    0.1510    3.8940 ha        1 4HB      0.142500
     20 HB2        -0.4200    2.0680   -0.8400 ha        1 4HB      0.138000
     21 HB6        -0.5160   -2.0220   -0.8380 ha        1 4HB      0.136000
     22 HB3        -1.6510    2.0960   -2.8560 ha        1 4HB      0.151000
     23 HB5        -1.7470   -1.9940   -2.8540 ha        1 4HB      0.142500
     24 HAM        -2.0320    0.0390   -4.9150 ho        1 4HB      0.218000
@<TRIPOS>BOND
     1    1    7 1   
     2    1    8 1   
     3    2    3 1   
     4    2   15 1   
     5    3   17 1   
     6    4    5 1   
     7    4    6 1   
     8    5   18 1   
     9    6   19 1   
    10    7   16 1   
    11    8    9 1   
    12    8   13 1   
    13    9   10 1   
    14    9   20 1   
    15   10   22 1   
    16   11   12 1   
    17   11   14 1   
    18   12   23 1   
    19   13   21 1   
    20   14   24 1   
@<TRIPOS>SUBSTRUCTURE
     1 4HB         1 TEMP              0 ****  ****    0 ROOT
