@<TRIPOS>MOLECULE
4HC
   18    14     1     0     0
SMALL
bcc


@<TRIPOS>ATOM
      1 CA         -0.3770   -0.0340   -2.3700 c1        1 4HC     -0.303500
      2 CA2         1.0150   -0.0340   -2.3700 c1        1 4HC      0.824000
      3 CA4         1.0080   -0.0340    0.0240 cg        1 4HC     -0.013500
      4 CA5        -0.3670   -0.0340    0.0260 cg        1 4HC     -0.013500
      5 CA6        -1.0640   -0.0340   -1.1800 c1        1 4HC      0.220600
      6 CD1         1.7130   -0.0340    1.2430 c1        1 4HC     -0.045500
      7 CD2         1.0200   -0.0340    2.4460 c1        1 4HC     -0.063000
      8 CD3        -0.3720   -0.0340    2.4480 c1        1 4HC     -0.063000
      9 CD4        -1.0690   -0.0340    1.2470 c1        1 4HC     -0.045500
     10 OA2         1.6220   -0.0350   -3.4230 o         1 4HC     -0.477000
     11 OA3         1.7020   -0.0340   -1.1820 o         1 4HC     -0.477000
     12 OA6        -2.4700   -0.0780   -1.1800 oh        1 4HC     -0.464600
     13 HA         -0.8650   -0.0520   -3.2160 ha        1 4HC      0.113500
     14 HD1         2.6890   -0.0340    1.2420 ha        1 4HC      0.101000
     15 HD2         1.5090   -0.0340    3.2910 ha        1 4HC      0.085000
     16 HD3        -0.8590   -0.0340    3.2940 ha        1 4HC      0.085000
     17 HD4        -2.0450   -0.0340    1.2490 ha        1 4HC      0.101000
     18 HA6        -2.7890    0.6420   -1.5900 ho        1 4HC      0.436000
@<TRIPOS>BOND
     1    1    5 3   
     2    1   13 1   
     3    2   10 2   
     4    2   11 2   
     5    3    4 1   
     6    3    6 3   
     7    4    9 3   
     8    5   12 1   
     9    6   14 1   
    10    7    8 3   
    11    7   15 1   
    12    8   16 1   
    13    9   17 1   
    14   12   18 1   
@<TRIPOS>SUBSTRUCTURE
     1 4HC         1 TEMP              0 ****  ****    0 ROOT
