@<TRIPOS>MOLECULE
4HC
   18    19     1     0     0
SMALL
bcc


@<TRIPOS>ATOM
      1 CA          0.7160    0.0000    1.9280 cc        1 4HC     -0.380200
      2 CA2        -0.7290    0.0000    1.9970 c         1 4HC      0.741800
      3 CA4        -0.8280    0.0000   -0.3920 ca        1 4HC      0.166100
      4 CA5         0.5770    0.0000   -0.5080 ca        1 4HC     -0.159800
      5 CA6         1.3460    0.0000    0.7220 cd        1 4HC      0.247900
      6 CD1        -1.6450    0.0000   -1.5390 ca        1 4HC     -0.155000
      7 CD2        -1.0450    0.0000   -2.7890 ca        1 4HC     -0.074000
      8 CD3         0.3520    0.0000   -2.9150 ca        1 4HC     -0.167000
      9 CD4         1.1580    0.0000   -1.7870 ca        1 4HC     -0.051000
     10 OA2        -1.4650    0.0000    2.9820 o         1 4HC     -0.569500
     11 OA3        -1.4830    0.0000    0.8180 os        1 4HC     -0.328200
     12 OA6         2.7040    0.0000    0.5680 oh        1 4HC     -0.480100
     13 HA          1.2490    0.0000    2.8880 ha        1 4HC      0.171000
     14 HD1        -2.7390    0.0000   -1.4210 ha        1 4HC      0.162000
     15 HD2        -1.6720    0.0000   -3.6940 ha        1 4HC      0.142000
     16 HD3         0.8080   -0.0000   -3.9170 ha        1 4HC      0.143000
     17 HD4         2.2560    0.0000   -1.8720 ha        1 4HC      0.155000
     18 HA6         3.1130    0.0000    1.4490 ho        1 4HC      0.436000
@<TRIPOS>BOND
     1    1    2 1   
     2    1    5 2   
     3    1   13 1   
     4    2   10 2   
     5    2   11 1   
     6    3    4 ar  
     7    3    6 ar  
     8    3   11 1   
     9    4    5 1   
    10    4    9 ar  
    11    5   12 1   
    12    6    7 ar  
    13    6   14 1   
    14    7    8 ar  
    15    7   15 1   
    16    8    9 ar  
    17    8   16 1   
    18    9   17 1   
    19   12   18 1   
@<TRIPOS>SUBSTRUCTURE
     1 4HC         1 TEMP              0 ****  ****    0 ROOT
