@<TRIPOS>MOLECULE
4HC
   18    19     1     0     0
SMALL
bcc


@<TRIPOS>ATOM
      1 CA         -0.0510   -0.1010    0.0180 cc        1 4HC     -0.380200
      2 CA2         1.3920   -0.0330   -0.0380 c         1 4HC      0.741800
      3 CA4         1.4680    0.0070    2.3510 ca        1 4HC      0.166100
      4 CA5         0.0640   -0.0580    2.4540 ca        1 4HC     -0.159800
      5 CA6        -0.6930   -0.1130    1.2180 cd        1 4HC      0.247900
      6 CD1         2.2730    0.0630    3.5060 ca        1 4HC     -0.155000
      7 CD2         1.6610    0.0530    4.7500 ca        1 4HC     -0.074000
      8 CD3         0.2640   -0.0120    4.8640 ca        1 4HC     -0.167000
      9 CD4        -0.5290   -0.0670    3.7280 ca        1 4HC     -0.051000
     10 OA2         2.1370   -0.0130   -1.0160 o         1 4HC     -0.569500
     11 OA3         2.1340    0.0200    1.1480 os        1 4HC     -0.328200
     12 OA6        -2.0500   -0.1750    1.3600 oh        1 4HC     -0.480100
     13 HA         -0.5740   -0.1400   -0.9470 ha        1 4HC      0.171000
     14 HD1         3.3660    0.1130    3.3980 ha        1 4HC      0.162000
     15 HD2         2.2790    0.0960    5.6610 ha        1 4HC      0.142000
     16 HD3        -0.2010   -0.0180    5.8610 ha        1 4HC      0.143000
     17 HD4        -1.6270   -0.1180    3.8030 ha        1 4HC      0.155000
     18 HA6        -2.4500   -0.2070    0.4750 ho        1 4HC      0.436000
@<TRIPOS>BOND
     1    1    2 1   
     2    1    5 2   
     3    1   13 1   
     4    2   10 2   
     5    2   11 1   
     6    3    4 ar  
     7    3    6 ar  
     8    3   11 1   
     9    4    5 1   
    10    4    9 ar  
    11    5   12 1   
    12    6    7 ar  
    13    6   14 1   
    14    7    8 ar  
    15    7   15 1   
    16    8    9 ar  
    17    8   16 1   
    18    9   17 1   
    19   12   18 1   
@<TRIPOS>SUBSTRUCTURE
     1 4HC         1 TEMP              0 ****  ****    0 ROOT
