@<TRIPOS>MOLECULE
4HD
   56    55     1     0     0
SMALL
bcc


@<TRIPOS>ATOM
      1 O1          0.6500    2.1790    4.6460 o         1 4HD     -0.851300
      2 O2          0.2240    1.2890    2.6520 o         1 4HD     -0.851300
      3 C1          1.0260    1.6020    3.5870 c         1 4HD      0.905600
      4 C2          2.5170    1.2810    3.4200 c3        1 4HD     -0.200400
      5 C3          2.7470   -0.0500    2.7410 c3        1 4HD     -0.087400
      6 C4          3.0980    0.0970    1.2600 c3        1 4HD      0.185300
      7 C5          3.2240   -1.2630    0.6390 c2        1 4HD     -0.155200
      8 C6          2.4810   -1.6860   -0.3910 ce        1 4HD     -0.158000
      9 C7          2.6120   -2.9990   -0.9850 ce        1 4HD     -0.120000
     10 C8          1.7730   -3.5090   -1.8990 c2        1 4HD     -0.182200
     11 C9          0.5800   -2.7970   -2.4160 c3        1 4HD     -0.023000
     12 C10        -0.1800   -3.5670   -3.4300 c2        1 4HD     -0.164200
     13 C11        -1.4150   -3.2480   -3.8320 c2        1 4HD     -0.180200
     14 C12        -2.1820   -2.0990   -3.2930 c3        1 4HD     -0.022000
     15 C13        -3.4210   -1.8060   -4.0510 c2        1 4HD     -0.176200
     16 C14        -4.3710   -0.9640   -3.6280 c2        1 4HD     -0.167200
     17 C15        -4.3100   -0.2320   -2.3400 c3        1 4HD     -0.020000
     18 C16        -5.4210    0.7310   -2.1510 c2        1 4HD     -0.191200
     19 C17        -5.6030    1.4500   -1.0380 c2        1 4HD     -0.154200
     20 C18        -4.7170    1.3890    0.1490 c3        1 4HD     -0.018000
     21 C19        -5.2920    2.0510    1.3450 c2        1 4HD     -0.219200
     22 C20        -4.5730    2.3790    2.4250 c2        1 4HD     -0.139200
     23 C21        -3.1170    2.1480    2.5680 c3        1 4HD     -0.053200
     24 C22        -2.5920    2.4990    3.9360 c3        1 4HD     -0.111100
     25 O3          2.1890    0.9060    0.5400 oh        1 4HD     -0.642800
     26 H2C1        2.9750    2.1100    2.8220 hc        1 4HD      0.035700
     27 H2C2        2.9970    1.2810    4.4310 hc        1 4HD      0.035700
     28 H3C1        3.5810   -0.6050    3.2430 hc        1 4HD      0.039700
     29 H3C2        1.8160   -0.6720    2.8280 hc        1 4HD      0.039700
     30 H4          4.0980    0.6160    1.1560 h1        1 4HD      0.037700
     31 H5          3.9880   -1.9050    1.1060 ha        1 4HD      0.104000
     32 H3          1.3730    0.9990    1.0700 ho        1 4HD      0.467000
     33 H6          1.7170   -1.0130   -0.8230 ha        1 4HD      0.145000
     34 H7          3.4700   -3.6020   -0.6390 ha        1 4HD      0.108000
     35 H8          1.9470   -4.5200   -2.3000 ha        1 4HD      0.108000
     36 H9C1       -0.0990   -2.5370   -1.5540 hc        1 4HD      0.066200
     37 H9C2        0.8970   -1.8150   -2.8720 hc        1 4HD      0.066200
     38 H10         0.3340   -4.4410   -3.8630 ha        1 4HD      0.114000
     39 H11        -1.9240   -3.8560   -4.5960 ha        1 4HD      0.113000
     40 H121       -2.4380   -2.3030   -2.2130 hc        1 4HD      0.064200
     41 H122       -1.5290   -1.1780   -3.2890 hc        1 4HD      0.064200
     42 H13        -3.5310   -2.3210   -5.0200 ha        1 4HD      0.114000
     43 H14        -5.2640   -0.7850   -4.2470 ha        1 4HD      0.114000
     44 H151       -4.3120   -0.9770   -1.4920 hc        1 4HD      0.063200
     45 H152       -3.3270    0.3180   -2.2660 hc        1 4HD      0.063200
     46 H16        -6.1170    0.8420   -2.9980 ha        1 4HD      0.110000
     47 H17        -6.4500    2.1530   -0.9710 ha        1 4HD      0.114000
     48 H181       -4.4890    0.3130    0.4000 hc        1 4HD      0.062700
     49 H182       -3.7260    1.8640   -0.1080 hc        1 4HD      0.062700
     50 H19        -6.3730    2.2550    1.3120 ha        1 4HD      0.103000
     51 H20        -5.0670    2.8580    3.2870 ha        1 4HD      0.109000
     52 H211       -2.8780    1.0710    2.3470 hc        1 4HD      0.060200
     53 H212       -2.5650    2.7530    1.7950 hc        1 4HD      0.060200
     54 H221       -1.4850    2.2850    3.9800 hc        1 4HD      0.050033
     55 H222       -2.7600    3.5790    4.1600 hc        1 4HD      0.050033
     56 H223       -3.1050    1.8950    4.7230 hc        1 4HD      0.050033
@<TRIPOS>BOND
     1    1    3 1   
     2    2    3 1   
     3    3    4 1   
     4    4    5 1   
     5    4   26 1   
     6    4   27 1   
     7    5    6 1   
     8    5   28 1   
     9    5   29 1   
    10    6    7 1   
    11    6   25 1   
    12    6   30 1   
    13    7    8 2   
    14    7   31 1   
    15    8    9 1   
    16    8   33 1   
    17    9   10 2   
    18    9   34 1   
    19   10   11 1   
    20   10   35 1   
    21   11   12 1   
    22   11   36 1   
    23   11   37 1   
    24   12   13 2   
    25   12   38 1   
    26   13   14 1   
    27   13   39 1   
    28   14   15 1   
    29   14   40 1   
    30   14   41 1   
    31   15   16 2   
    32   15   42 1   
    33   16   17 1   
    34   16   43 1   
    35   17   18 1   
    36   17   44 1   
    37   17   45 1   
    38   18   19 2   
    39   18   46 1   
    40   19   20 1   
    41   19   47 1   
    42   20   21 1   
    43   20   48 1   
    44   20   49 1   
    45   21   22 2   
    46   21   50 1   
    47   22   23 1   
    48   22   51 1   
    49   23   24 1   
    50   23   52 1   
    51   23   53 1   
    52   24   54 1   
    53   24   55 1   
    54   24   56 1   
    55   25   32 1   
@<TRIPOS>SUBSTRUCTURE
     1 4HD         1 TEMP              0 ****  ****    0 ROOT
