@<TRIPOS>MOLECULE
4HD
   56    55     1     0     0
SMALL
bcc


@<TRIPOS>ATOM
      1 O1          8.3490    4.6280   -1.5690 o         1 4HD     -0.850300
      2 O2          9.6390    3.3770   -0.2590 o         1 4HD     -0.850300
      3 C1          8.5140    3.6590   -0.7740 c         1 4HD      0.904600
      4 C2          7.2800    2.8210   -0.4050 c3        1 4HD     -0.197400
      5 C3          7.6070    1.3960   -0.0210 c3        1 4HD     -0.092400
      6 C4          7.4990    1.1170    1.4800 c3        1 4HD      0.167300
      7 C5          8.3750    2.0420    2.2620 c2        1 4HD     -0.160200
      8 C6          8.3480    2.2530    3.5850 ce        1 4HD     -0.180000
      9 C7          7.4270    1.6460    4.5200 ce        1 4HD     -0.104000
     10 C8          7.3190    1.9500    5.8210 c2        1 4HD     -0.205200
     11 C9          8.1330    2.9620    6.5370 c3        1 4HD     -0.016000
     12 C10         7.3850    3.6190    7.6390 c2        1 4HD     -0.159200
     13 C11         7.4680    4.9170    7.9480 c2        1 4HD     -0.179200
     14 C12         8.3010    5.8960    7.2080 c3        1 4HD     -0.021000
     15 C13         8.2790    7.2620    7.7850 c2        1 4HD     -0.173200
     16 C14         8.8020    8.3270    7.1660 c2        1 4HD     -0.170200
     17 C15         9.4410    8.2630    5.8300 c3        1 4HD     -0.021000
     18 C16        10.1180    9.5190    5.4260 c2        1 4HD     -0.189200
     19 C17        10.6790    9.6980    4.2250 c2        1 4HD     -0.155200
     20 C18        10.6790    8.6720    3.1550 c3        1 4HD     -0.017000
     21 C19        11.5210    9.0250    1.9870 c2        1 4HD     -0.216200
     22 C20        11.5310    8.3170    0.8510 c2        1 4HD     -0.140200
     23 C21        10.7030    7.1120    0.6090 c3        1 4HD     -0.052200
     24 C22        11.0130    6.4310   -0.6980 c3        1 4HD     -0.112100
     25 O3          6.1400    1.1260    1.9050 oh        1 4HD     -0.621800
     26 H2C1        6.7670    3.3530    0.4380 hc        1 4HD      0.028200
     27 H2C2        6.5830    2.8280   -1.2800 hc        1 4HD      0.028200
     28 H3C1        8.6600    1.1660   -0.3390 hc        1 4HD      0.046700
     29 H3C2        6.9160    0.6890   -0.5480 hc        1 4HD      0.046700
     30 H4          7.8240    0.0530    1.6830 h1        1 4HD      0.055700
     31 H5          9.1200    2.5770    1.6250 ha        1 4HD      0.206000
     32 H3          5.7890    2.0010    1.7050 ho        1 4HD      0.403000
     33 H6          9.0880    2.9510    4.0160 ha        1 4HD      0.113000
     34 H7          6.7600    0.8750    4.0860 ha        1 4HD      0.138000
     35 H8          6.5790    1.4200    6.4430 ha        1 4HD      0.106000
     36 H9C1        9.0370    2.4520    6.9790 hc        1 4HD      0.053200
     37 H9C2        8.5160    3.7360    5.8170 hc        1 4HD      0.053200
     38 H10         6.7300    2.9530    8.2250 ha        1 4HD      0.113000
     39 H11         6.8860    5.3200    8.7930 ha        1 4HD      0.112000
     40 H121        9.3690    5.5340    7.1770 hc        1 4HD      0.062200
     41 H122        7.9520    5.9410    6.1350 hc        1 4HD      0.062200
     42 H13         7.8070    7.3690    8.7740 ha        1 4HD      0.115000
     43 H14         8.7630    9.3200    7.6420 ha        1 4HD      0.116000
     44 H151        8.6590    7.9970    5.0610 hc        1 4HD      0.061700
     45 H152       10.1900    7.4190    5.8140 hc        1 4HD      0.061700
     46 H16        10.1450   10.3230    6.1780 ha        1 4HD      0.112000
     47 H17        11.1710   10.6540    3.9820 ha        1 4HD      0.116000
     48 H181       11.0310    7.6870    3.5790 hc        1 4HD      0.060200
     49 H182        9.6170    8.4980    2.8130 hc        1 4HD      0.060200
     50 H19        12.1610    9.9130    2.0990 ha        1 4HD      0.105000
     51 H20        12.1850    8.6230    0.0170 ha        1 4HD      0.113000
     52 H211        9.6160    7.4050    0.6260 hc        1 4HD      0.052200
     53 H212       10.8490    6.3830    1.4530 hc        1 4HD      0.052200
     54 H221       10.8480    7.1270   -1.5550 hc        1 4HD      0.053367
     55 H222       12.0750    6.0880   -0.7220 hc        1 4HD      0.053367
     56 H223       10.3410    5.5340   -0.8330 hc        1 4HD      0.053367
@<TRIPOS>BOND
     1    1    3 1   
     2    2    3 1   
     3    3    4 1   
     4    4    5 1   
     5    4   26 1   
     6    4   27 1   
     7    5    6 1   
     8    5   28 1   
     9    5   29 1   
    10    6    7 1   
    11    6   25 1   
    12    6   30 1   
    13    7    8 2   
    14    7   31 1   
    15    8    9 1   
    16    8   33 1   
    17    9   10 2   
    18    9   34 1   
    19   10   11 1   
    20   10   35 1   
    21   11   12 1   
    22   11   36 1   
    23   11   37 1   
    24   12   13 2   
    25   12   38 1   
    26   13   14 1   
    27   13   39 1   
    28   14   15 1   
    29   14   40 1   
    30   14   41 1   
    31   15   16 2   
    32   15   42 1   
    33   16   17 1   
    34   16   43 1   
    35   17   18 1   
    36   17   44 1   
    37   17   45 1   
    38   18   19 2   
    39   18   46 1   
    40   19   20 1   
    41   19   47 1   
    42   20   21 1   
    43   20   48 1   
    44   20   49 1   
    45   21   22 2   
    46   21   50 1   
    47   22   23 1   
    48   22   51 1   
    49   23   24 1   
    50   23   52 1   
    51   23   53 1   
    52   24   54 1   
    53   24   55 1   
    54   24   56 1   
    55   25   32 1   
@<TRIPOS>SUBSTRUCTURE
     1 4HD         1 TEMP              0 ****  ****    0 ROOT
