@<TRIPOS>MOLECULE
4HD
   56    49     1     0     0
SMALL
bcc


@<TRIPOS>ATOM
      1 O1         -7.7230   -5.5890   -2.8740 o         1 4HD     -0.583500
      2 O2         -7.7080   -4.2520   -1.1510 o         1 4HD     -0.583500
      3 C1         -7.0990   -4.8230   -2.0930 c2        1 4HD      0.328000
      4 C2         -5.6160   -4.5940   -2.2840 c3        1 4HD     -0.232000
      5 C3         -5.4000   -3.5610   -3.3680 c3        1 4HD     -0.177000
      6 C4         -4.0250   -2.9510   -3.2160 c3        1 4HD      0.046000
      7 C5         -3.8390   -1.8640   -4.2500 c2        1 4HD     -0.147000
      8 C6         -2.5990   -1.5080   -4.6380 c1        1 4HD     -0.157000
      9 C7         -1.3920   -2.1980   -4.0400 c1        1 4HD     -0.150500
     10 C8         -0.2910   -1.4830   -3.7350 c1        1 4HD     -0.150500
     11 C9         -0.2610    0.0070   -3.9900 c2        1 4HD     -0.101500
     12 C10         1.0730    0.5680   -3.5480 c2        1 4HD     -0.154500
     13 C11         1.1450    1.8130   -3.0370 c1        1 4HD     -0.170000
     14 C12         2.4790    2.3730   -2.5960 c2        1 4HD     -0.101500
     15 C13         2.2830    3.2320   -1.3660 c2        1 4HD     -0.154500
     16 C14         3.1370    3.1290   -0.3290 c1        1 4HD     -0.170000
     17 C15         2.9410    3.9880    0.9010 c2        1 4HD     -0.101500
     18 C16         3.7150    3.3960    2.0580 c2        1 4HD     -0.154500
     19 C17         3.1170    3.2310    3.2550 c1        1 4HD     -0.170000
     20 C18         3.8910    2.6390    4.4120 c2        1 4HD     -0.101500
     21 C19         2.9240    2.0930    5.4390 c2        1 4HD     -0.154500
     22 C20         3.3370    1.1700    6.3300 c1        1 4HD     -0.170000
     23 C21         2.3700    0.6240    7.3570 c2        1 4HD     -0.131000
     24 C22         2.9180   -0.6630    7.9330 c3        1 4HD     -0.209000
     25 O3         -3.8950   -2.4010   -1.9270 oh        1 4HD     -0.344000
     26 H2C1       -5.1870   -5.4340   -2.5450 hc        1 4HD      0.067500
     27 H2C2       -5.2250   -4.2750   -1.4460 hc        1 4HD      0.067500
     28 H3C1       -6.0780   -2.8590   -3.2890 hc        1 4HD      0.094500
     29 H3C2       -5.4730   -3.9870   -4.2450 hc        1 4HD      0.094500
     30 H4         -3.3460   -3.6430   -3.3460 h1        1 4HD      0.098000
     31 H5         -4.6180   -1.4190   -4.6360 ha        1 4HD      0.122000
     32 H3         -4.5060   -1.7650   -1.8130 ho        1 4HD      0.215000
     33 H6         -2.4790   -0.8060   -5.3060 ha        1 4HD      0.105000
     34 H7         -1.4110   -3.1600   -3.8760 ha        1 4HD      0.134000
     35 H8          0.4880   -1.9280   -3.3490 ha        1 4HD      0.134000
     36 H9C1       -0.9790    0.4390   -3.4850 ha        1 4HD      0.088875
     37 H9C2       -0.3870    0.1780   -4.9450 ha        1 4HD      0.088875
     38 H10         1.8820    0.0300   -3.6380 ha        1 4HD      0.120500
     39 H11         0.3370    2.3550   -2.9570 ha        1 4HD      0.120000
     40 H121        3.0880    1.6380   -2.3860 ha        1 4HD      0.088875
     41 H122        2.8580    2.9160   -3.3150 ha        1 4HD      0.088875
     42 H13         1.5400    3.8650   -1.3250 ha        1 4HD      0.120500
     43 H14         3.8860    2.5040   -0.3740 ha        1 4HD      0.120000
     44 H151        3.2650    4.8930    0.7220 ha        1 4HD      0.088875
     45 H152        1.9900    4.0210    1.1280 ha        1 4HD      0.088875
     46 H16         4.6490    3.1380    1.9400 ha        1 4HD      0.120500
     47 H17         2.1860    3.4980    3.3760 ha        1 4HD      0.120000
     48 H181        4.4460    3.3320    4.8220 ha        1 4HD      0.088875
     49 H182        4.4630    1.9150    4.0860 ha        1 4HD      0.088875
     50 H19         2.0020    2.4130    5.4600 ha        1 4HD      0.120500
     51 H20         4.2620    0.8580    6.3160 ha        1 4HD      0.120000
     52 H211        1.5060    0.4500    6.9320 ha        1 4HD      0.082000
     53 H212        2.2530    1.2790    8.0750 ha        1 4HD      0.082000
     54 H221        3.6820   -0.4620    8.5130 hc        1 4HD      0.075667
     55 H222        2.2200   -1.1100    8.4550 hc        1 4HD      0.075667
     56 H223        3.2070   -1.2500    7.2030 hc        1 4HD      0.075667
@<TRIPOS>BOND
     1    1    3 1   
     2    2    3 1   
     3    3    4 1   
     4    4    5 1   
     5    4   26 1   
     6    4   27 1   
     7    5    6 1   
     8    5   28 1   
     9    5   29 1   
    10    6    7 1   
    11    6   25 1   
    12    6   30 1   
    13    7    8 1   
    14    7   31 1   
    15    8   33 1   
    16    9   10 1   
    17    9   34 1   
    18   10   35 1   
    19   11   12 1   
    20   11   36 1   
    21   11   37 1   
    22   12   13 1   
    23   12   38 1   
    24   13   39 1   
    25   14   15 1   
    26   14   40 1   
    27   14   41 1   
    28   15   16 1   
    29   15   42 1   
    30   16   43 1   
    31   17   18 1   
    32   17   44 1   
    33   17   45 1   
    34   18   19 1   
    35   18   46 1   
    36   19   47 1   
    37   20   21 1   
    38   20   48 1   
    39   20   49 1   
    40   21   22 1   
    41   21   50 1   
    42   22   51 1   
    43   23   24 1   
    44   23   52 1   
    45   23   53 1   
    46   24   54 1   
    47   24   55 1   
    48   24   56 1   
    49   25   32 1   
@<TRIPOS>SUBSTRUCTURE
     1 4HD         1 TEMP              0 ****  ****    0 ROOT
