@<TRIPOS>MOLECULE
4HD
   56    55     1     0     0
SMALL
bcc


@<TRIPOS>ATOM
      1 O1          8.6830    6.5950    1.9370 o         1 4HD     -0.857300
      2 O2          8.4710    5.3010    3.7350 o         1 4HD     -0.857300
      3 C1          8.1810    5.6010    2.5380 c         1 4HD      0.915600
      4 C2          7.1590    4.7410    1.7830 c3        1 4HD     -0.196400
      5 C3          7.6160    3.3050    1.7000 c3        1 4HD     -0.093400
      6 C4          6.5300    2.3440    1.2200 c3        1 4HD      0.168300
      7 C5          5.3300    2.3710    2.1140 c2        1 4HD     -0.172200
      8 C6          5.2760    1.8100    3.3250 ce        1 4HD     -0.136000
      9 C7          6.3530    1.0560    3.9460 ce        1 4HD     -0.177000
     10 C8          7.1210    1.5090    4.9440 c2        1 4HD     -0.124200
     11 C9          7.0380    2.8770    5.5070 c3        1 4HD     -0.056000
     12 C10         7.5020    2.9410    6.9140 c2        1 4HD     -0.189200
     13 C11         8.2190    3.9460    7.4290 c2        1 4HD     -0.150200
     14 C12         8.6920    5.1160    6.6520 c3        1 4HD     -0.044000
     15 C13         9.2630    6.1930    7.4920 c2        1 4HD     -0.175200
     16 C14        10.0040    7.1960    7.0080 c2        1 4HD     -0.167200
     17 C15        10.3850    7.3330    5.5820 c3        1 4HD     -0.045000
     18 C16        10.8320    8.7020    5.2310 c2        1 4HD     -0.176200
     19 C17        11.2900    9.0460    4.0210 c2        1 4HD     -0.164200
     20 C18        11.3920    8.1010    2.8860 c3        1 4HD     -0.058000
     21 C19        12.0660    8.6720    1.6980 c2        1 4HD     -0.159200
     22 C20        12.1300    8.0510    0.5140 c2        1 4HD     -0.182200
     23 C21        11.5280    6.7240    0.2500 c3        1 4HD     -0.077200
     24 C22        11.5640    6.3530   -1.2110 c3        1 4HD     -0.078100
     25 O3          6.1480    2.6000   -0.1270 oh        1 4HD     -0.618800
     26 H2C1        7.0130    5.1680    0.7580 hc        1 4HD      0.028200
     27 H2C2        6.1840    4.8020    2.3290 hc        1 4HD      0.028200
     28 H3C1        8.4900    3.2290    1.0020 hc        1 4HD      0.058200
     29 H3C2        7.9540    2.9740    2.7200 hc        1 4HD      0.058200
     30 H4          6.9480    1.2950    1.1820 h1        1 4HD      0.059700
     31 H5          4.4600    2.9090    1.7040 ha        1 4HD      0.117000
     32 H3          6.0150    3.5530   -0.2060 ho        1 4HD      0.403000
     33 H6          4.3630    1.9030    3.9400 ha        1 4HD      0.113000
     34 H7          6.5090    0.0450    3.5340 ha        1 4HD      0.112000
     35 H8          7.9060    0.8640    5.3730 ha        1 4HD      0.110000
     36 H9C1        7.6480    3.5780    4.8510 hc        1 4HD      0.096700
     37 H9C2        5.9770    3.2510    5.4590 hc        1 4HD      0.096700
     38 H10         7.2030    2.0920    7.5500 ha        1 4HD      0.095000
     39 H11         8.5040    3.9250    8.4940 ha        1 4HD      0.097000
     40 H121        9.4500    4.7760    5.8860 hc        1 4HD      0.102200
     41 H122        7.8500    5.5420    6.0280 hc        1 4HD      0.102200
     42 H13         9.0310    6.1480    8.5690 ha        1 4HD      0.095000
     43 H14        10.3780    7.9790    7.6870 ha        1 4HD      0.095000
     44 H151       11.2140    6.6010    5.3590 hc        1 4HD      0.095700
     45 H152        9.5280    7.0200    4.9030 hc        1 4HD      0.095700
     46 H16        10.7580    9.4600    6.0270 ha        1 4HD      0.096000
     47 H17        11.5930   10.0860    3.8230 ha        1 4HD      0.097000
     48 H181       10.3480    7.7390    2.6080 hc        1 4HD      0.103200
     49 H182       11.9450    7.1740    3.2130 hc        1 4HD      0.103200
     50 H19        12.5290    9.6640    1.8240 ha        1 4HD      0.095000
     51 H20        12.6440    8.5270   -0.3360 ha        1 4HD      0.094000
     52 H211       12.0770    5.9460    0.8490 hc        1 4HD      0.083200
     53 H212       10.4590    6.7110    0.6250 hc        1 4HD      0.083200
     54 H221       10.9980    7.0990   -1.8190 hc        1 4HD      0.019033
     55 H222       11.0980    5.3500   -1.3630 hc        1 4HD      0.019033
     56 H223       12.6140    6.3170   -1.5910 hc        1 4HD      0.019033
@<TRIPOS>BOND
     1    1    3 1   
     2    2    3 1   
     3    3    4 1   
     4    4    5 1   
     5    4   26 1   
     6    4   27 1   
     7    5    6 1   
     8    5   28 1   
     9    5   29 1   
    10    6    7 1   
    11    6   25 1   
    12    6   30 1   
    13    7    8 2   
    14    7   31 1   
    15    8    9 1   
    16    8   33 1   
    17    9   10 2   
    18    9   34 1   
    19   10   11 1   
    20   10   35 1   
    21   11   12 1   
    22   11   36 1   
    23   11   37 1   
    24   12   13 2   
    25   12   38 1   
    26   13   14 1   
    27   13   39 1   
    28   14   15 1   
    29   14   40 1   
    30   14   41 1   
    31   15   16 2   
    32   15   42 1   
    33   16   17 1   
    34   16   43 1   
    35   17   18 1   
    36   17   44 1   
    37   17   45 1   
    38   18   19 2   
    39   18   46 1   
    40   19   20 1   
    41   19   47 1   
    42   20   21 1   
    43   20   48 1   
    44   20   49 1   
    45   21   22 2   
    46   21   50 1   
    47   22   23 1   
    48   22   51 1   
    49   23   24 1   
    50   23   52 1   
    51   23   53 1   
    52   24   54 1   
    53   24   55 1   
    54   24   56 1   
    55   25   32 1   
@<TRIPOS>SUBSTRUCTURE
     1 4HD         1 TEMP              0 ****  ****    0 ROOT
