@<TRIPOS>MOLECULE
4HF
   52    49     1     0     0
SMALL
bcc


@<TRIPOS>ATOM
      1 C5          2.2380    3.6010    1.4330 c3        1 4HF     -0.083000
      2 C4A         3.4010    4.5850    1.7930 c2        1 4HF     -0.326000
      3 C4          3.2090    5.6980    2.5550 c2        1 4HF      0.362000
      4 O4          2.0820    6.0250    2.8850 o         1 4HF     -0.372000
      5 N3          4.2920    6.4720    2.9310 n2        1 4HF     -0.341000
      6 C2          5.6170    6.1060    2.5200 c1        1 4HF      0.222000
      7 N2          6.7640    6.8870    2.9800 n3        1 4HF     -0.323000
      8 N1          5.8190    4.9630    1.7380 n1        1 4HF     -0.295000
      9 C8A         4.7750    4.2070    1.3690 c1        1 4HF      0.205000
     10 N8          4.9340    2.9540    0.4390 n3        1 4HF     -0.295000
     11 C7          3.8020    2.3940   -0.0520 c3        1 4HF     -0.031000
     12 C6          2.6250    2.3640    0.8460 c3        1 4HF     -0.110000
     13 C9          1.3410    1.7910   -0.0220 c3        1 4HF     -0.156000
     14 C10         0.3670    1.0600    0.9190 c3        1 4HF     -0.073000
     15 C3'        -0.5120    0.0700    0.0890 c2        1 4HF     -0.433000
     16 S2'        -0.4490   -1.4840    0.1610 ss        1 4HF      0.604000
     17 C4'        -1.6380    0.4310   -0.7510 c1        1 4HF     -0.157000
     18 C5'        -2.3460   -0.9210   -1.2550 c1        1 4HF     -0.148000
     19 C1'        -1.6250   -2.0460   -0.7020 c1        1 4HF     -0.375000
     20 C11        -2.0230   -3.5180   -0.8260 c1        1 4HF      0.349000
     21 O11        -1.3970   -4.3730   -0.2170 o         1 4HF     -0.415000
     22 N          -3.1890   -3.8880   -1.5890 n3        1 4HF     -0.275000
     23 CA         -3.6710   -5.2460   -1.5540 c3        1 4HF     -0.074000
     24 C          -2.7810   -6.1180   -2.4030 c2        1 4HF      0.322000
     25 OX1        -2.1650   -7.0850   -1.8810 o         1 4HF     -0.586500
     26 OX2        -2.6540   -5.8810   -3.6300 o         1 4HF     -0.586500
     27 CB         -5.0730   -5.2930   -2.0840 c3        1 4HF     -0.131000
     28 CG         -5.8530   -6.3330   -1.3360 c3        1 4HF     -0.211000
     29 CD         -7.1410   -6.6040   -2.0530 c2        1 4HF      0.324000
     30 OE1        -8.1060   -5.8030   -1.9380 o         1 4HF     -0.609000
     31 OE2        -7.2760   -7.6560   -2.7250 o         1 4HF     -0.609000
     32 H51         1.6490    4.0600    0.7940 hc        1 4HF      0.099000
     33 H52         1.7550    3.3960    2.2660 hc        1 4HF      0.099000
     34 HN3         4.1570    7.2510    3.3940 hn        1 4HF      0.241000
     35 HN21        7.6130    6.6870    2.6710 hn        1 4HF      0.199000
     36 HN22        6.6380    7.5940    3.5560 hn        1 4HF      0.199000
     37 HN8         5.5040    3.1580   -0.2580 hn        1 4HF      0.229000
     38 H71         3.5490    2.8860   -0.8670 h1        1 4HF      0.087500
     39 H72         4.0090    1.4690   -0.3070 h1        1 4HF      0.087500
     40 H6          2.8110    1.7310    1.5690 hc        1 4HF      0.101000
     41 H91         0.8780    2.5410   -0.4550 hc        1 4HF      0.092500
     42 H92         1.6610    1.1710   -0.7030 hc        1 4HF      0.092500
     43 H101       -0.2100    1.7150    1.3660 hc        1 4HF      0.079500
     44 H102        0.8760    0.5600    1.5910 hc        1 4HF      0.079500
     45 H4'        -1.9180    1.3410   -0.9720 DU        1 4HF      0.154500
     46 H5'        -3.1340   -0.9740   -1.8380 DU        1 4HF      0.154500
     47 HN         -3.6130   -3.2660   -2.1070 hn        1 4HF      0.227000
     48 HA         -3.6610   -5.5740   -0.6230 h1        1 4HF      0.110000
     49 HB1        -5.4960   -4.4210   -1.9650 hc        1 4HF      0.090500
     50 HB2        -5.0550   -5.5190   -3.0320 hc        1 4HF      0.090500
     51 HG1        -6.0450   -6.0100   -0.4330 hc        1 4HF      0.059000
     52 HG2        -5.3320   -7.1540   -1.2830 hc        1 4HF      0.059000
@<TRIPOS>BOND
     1    1    2 1   
     2    1   12 1   
     3    1   32 1   
     4    1   33 1   
     5    2    3 1   
     6    2    9 1   
     7    3    4 1   
     8    3    5 1   
     9    5   34 1   
    10    6    7 1   
    11    6    8 1   
    12    7   35 1   
    13    7   36 1   
    14    9   10 1   
    15   10   11 1   
    16   10   37 1   
    17   11   12 1   
    18   11   38 1   
    19   11   39 1   
    20   12   13 1   
    21   12   40 1   
    22   13   14 1   
    23   13   41 1   
    24   13   42 1   
    25   14   15 1   
    26   14   43 1   
    27   14   44 1   
    28   15   16 1   
    29   15   17 1   
    30   16   19 1   
    31   17   18 1   
    32   18   19 1   
    33   20   21 1   
    34   20   22 1   
    35   22   23 1   
    36   22   47 1   
    37   23   24 1   
    38   23   27 1   
    39   23   48 1   
    40   24   25 1   
    41   24   26 1   
    42   27   28 1   
    43   27   49 1   
    44   27   50 1   
    45   28   29 1   
    46   28   51 1   
    47   28   52 1   
    48   29   30 1   
    49   29   31 1   
@<TRIPOS>SUBSTRUCTURE
     1 4HF         1 TEMP              0 ****  ****    0 ROOT
