@<TRIPOS>MOLECULE
4HF
   54    56     1     0     0
SMALL
bcc


@<TRIPOS>ATOM
      1 C5         -0.5010    1.7900   -1.7790 c3        1 4HF      0.007800
      2 C4A         0.3820    1.3020   -0.6970 cc        1 4HF     -0.372400
      3 C4          0.5180    2.1080    0.4950 c         1 4HF      0.729700
      4 O4         -0.0270    3.2050    0.7250 o         1 4HF     -0.647500
      5 N3          1.3650    1.5920    1.5120 n         1 4HF     -0.502400
      6 C2          1.9750    0.3400    1.3580 cc        1 4HF      0.693800
      7 N2          2.6810   -0.1890    2.4630 nh        1 4HF     -0.894800
      8 N1          1.8760   -0.4060    0.2390 nd        1 4HF     -0.729300
      9 C8A         1.0730    0.0880   -0.7990 cd        1 4HF      0.443600
     10 N8          1.0180   -0.6600   -1.9660 nh        1 4HF     -0.751000
     11 C7          0.1160   -0.2890   -3.0250 c3        1 4HF      0.218800
     12 C6         -1.0430    0.6240   -2.5990 c3        1 4HF     -0.085700
     13 C9         -1.7930    1.1390   -3.8140 c3        1 4HF     -0.069400
     14 C10        -2.7150    0.1060   -4.4370 c3        1 4HF     -0.015100
     15 C3'        -3.9400   -0.1300   -3.6520 cc        1 4HF     -0.077400
     16 S2'        -4.3510   -1.6350   -3.0480 ss        1 4HF      0.060200
     17 C4'        -4.9030    0.8180   -3.3450 cd        1 4HF     -0.174000
     18 C5'        -5.9780    0.2580   -2.6000 cd        1 4HF     -0.065000
     19 C1'        -5.7880   -1.0990   -2.3670 cc        1 4HF     -0.212700
     20 C11        -6.7570   -1.9100   -1.6250 c         1 4HF      0.728700
     21 O11        -7.8800   -1.4720   -1.2860 o         1 4HF     -0.636100
     22 N          -6.4080   -3.2190   -1.3290 n         1 4HF     -0.573900
     23 CA         -7.1810   -4.0170   -0.4120 c3        1 4HF      0.067700
     24 C          -6.2660   -4.8120    0.5130 c         1 4HF      0.618100
     25 OX1        -6.8960   -5.2670    1.6290 oh        1 4HF     -0.599100
     26 OX2        -5.0710   -5.0870    0.3810 o         1 4HF     -0.544000
     27 CB         -8.1390   -5.0190   -1.0830 c3        1 4HF     -0.084400
     28 CG         -9.2950   -4.3210   -1.7680 c3        1 4HF     -0.173400
     29 CD         -9.0150   -4.0650   -3.2200 c         1 4HF      0.629100
     30 OE1        -8.7720   -4.9130   -4.0810 o         1 4HF     -0.505000
     31 OE2        -9.0490   -2.7890   -3.7000 oh        1 4HF     -0.587100
     32 H51        -1.3520    2.3760   -1.3390 hc        1 4HF      0.057200
     33 H52         0.0700    2.4870   -2.4510 hc        1 4HF      0.057200
     34 HN3         1.4320    2.0960    2.3680 hn        1 4HF      0.333500
     35 HN21       -6.2680   -5.7670    2.1780 ho        1 4HF      0.452000
     36 HN22        3.1790    0.4760    3.0110 hn        1 4HF      0.419300
     37 HN8         1.3260   -1.6050   -1.9400 hn        1 4HF      0.440800
     38 H71         0.7230    0.2440   -3.8160 h1        1 4HF      0.043700
     39 H72        -0.3020   -1.2280   -3.4860 h1        1 4HF      0.043700
     40 H6         -1.7530    0.0330   -1.9550 hc        1 4HF      0.062700
     41 H91        -1.0590    1.4810   -4.5920 hc        1 4HF      0.053700
     42 H92        -2.4010    2.0340   -3.5120 hc        1 4HF      0.053700
     43 H101       -2.1570   -0.8600   -4.5780 hc        1 4HF      0.056200
     44 H102       -3.0130    0.4670   -5.4620 hc        1 4HF      0.056200
     45 H4'        -4.8560    1.8700   -3.6330 ha        1 4HF      0.164000
     46 H5'        -6.8480    0.8230   -2.2530 ha        1 4HF      0.175000
     47 HN         -5.5190   -3.5750   -1.5980 hn        1 4HF      0.331500
     48 HA         -7.8010   -3.3210    0.2390 h1        1 4HF      0.113700
     49 HB1        -7.5890   -5.6650   -1.8170 hc        1 4HF      0.076700
     50 HB2        -8.5410   -5.6840   -0.2710 hc        1 4HF      0.076700
     51 HG1       -10.2050   -4.9800   -1.7200 hc        1 4HF      0.083200
     52 HG2        -9.5380   -3.3580   -1.2410 hc        1 4HF      0.083200
     53 H23         3.1950   -1.0220    2.2680 hn        1 4HF      0.419300
     54 HN31       -9.1450   -2.1550   -2.9710 ho        1 4HF      0.447000
@<TRIPOS>BOND
     1    1    2 1   
     2    1   12 1   
     3    1   32 1   
     4    1   33 1   
     5    2    3 1   
     6    2    9 2   
     7    3    4 2   
     8    3    5 1   
     9    5    6 1   
    10    5   34 1   
    11    6    7 1   
    12    6    8 2   
    13    7   36 1   
    14    7   53 1   
    15    8    9 1   
    16    9   10 1   
    17   10   11 1   
    18   10   37 1   
    19   11   12 1   
    20   11   38 1   
    21   11   39 1   
    22   12   13 1   
    23   12   40 1   
    24   13   14 1   
    25   13   41 1   
    26   13   42 1   
    27   14   15 1   
    28   14   43 1   
    29   14   44 1   
    30   15   16 1   
    31   15   17 2   
    32   16   19 1   
    33   17   18 1   
    34   17   45 1   
    35   18   19 2   
    36   18   46 1   
    37   19   20 1   
    38   20   21 2   
    39   20   22 1   
    40   22   23 1   
    41   22   47 1   
    42   23   24 1   
    43   23   27 1   
    44   23   48 1   
    45   24   25 1   
    46   24   26 2   
    47   25   35 1   
    48   27   28 1   
    49   27   49 1   
    50   27   50 1   
    51   28   29 1   
    52   28   51 1   
    53   28   52 1   
    54   29   30 2   
    55   29   31 1   
    56   31   54 1   
@<TRIPOS>SUBSTRUCTURE
     1 4HF         1 TEMP              0 ****  ****    0 ROOT
