@<TRIPOS>MOLECULE
4HF
   52    54     1     0     0
SMALL
bcc


@<TRIPOS>ATOM
      1 C5          4.9010   -1.2170    0.0280 c3        1 4HF      0.001800
      2 C4A         6.2330   -0.6030   -0.1730 cc        1 4HF     -0.353400
      3 C4          7.2420   -1.3510   -0.8870 c         1 4HF      0.726700
      4 O4          7.1440   -2.5030   -1.3510 o         1 4HF     -0.649500
      5 N3          8.4860   -0.6950   -1.0930 n         1 4HF     -0.501400
      6 C2          8.6930    0.6010   -0.6060 cc        1 4HF      0.669800
      7 N2          9.9890    1.1670   -0.7780 nh        1 4HF     -0.884800
      8 N1          7.7580    1.3090    0.0500 nd        1 4HF     -0.724300
      9 C8A         6.5280    0.6790    0.3100 cd        1 4HF      0.428600
     10 N8          5.6170    1.3670    1.0990 nh        1 4HF     -0.738000
     11 C7          4.2630    0.8830    1.2300 c3        1 4HF      0.204800
     12 C6          3.8300   -0.1420    0.1730 c3        1 4HF     -0.081700
     13 C9          2.4970   -0.7650    0.5500 c3        1 4HF     -0.071400
     14 C10         1.3680    0.2490    0.5410 c3        1 4HF      0.008900
     15 C3'         0.0540   -0.3620    0.7880 cc        1 4HF     -0.177400
     16 S2'        -1.2790   -0.0470   -0.1690 ss        1 4HF      0.117200
     17 C4'        -0.2690   -1.2180    1.8310 cd        1 4HF     -0.173000
     18 C5'        -1.6430   -1.5890    1.8020 cd        1 4HF     -0.135000
     19 C1'        -2.3090   -0.9940    0.7440 cc        1 4HF     -0.147700
     20 C11        -3.7600   -1.1940    0.4560 c         1 4HF      0.677700
     21 O11        -4.2980   -2.2770    0.7860 o         1 4HF     -0.639100
     22 N          -4.4220   -0.1160   -0.0680 n         1 4HF     -0.472900
     23 CA         -5.6940   -0.2260   -0.7720 c3        1 4HF     -0.049300
     24 C          -5.4730   -0.1660   -2.3250 c         1 4HF      0.901600
     25 OX1        -6.3510   -0.6960   -3.0580 o         1 4HF     -0.852300
     26 OX2        -4.4230    0.3880   -2.7700 o         1 4HF     -0.852300
     27 CB         -6.6710    0.8880   -0.3690 c3        1 4HF     -0.051400
     28 CG         -7.1810    0.7570    1.0460 c3        1 4HF     -0.182400
     29 CD         -8.0270    1.9580    1.4870 c         1 4HF      0.903600
     30 OE1        -7.5290    3.1230    1.4430 o         1 4HF     -0.874800
     31 OE2        -9.1970    1.7400    1.9300 o         1 4HF     -0.874800
     32 H51         4.6540   -1.8850   -0.8410 hc        1 4HF      0.059700
     33 H52         4.9140   -1.8620    0.9480 hc        1 4HF      0.059700
     34 HN3         9.2200   -1.2010   -1.5350 hn        1 4HF      0.328500
     35 HN21       10.0500    2.1160   -0.4690 hn        1 4HF      0.403800
     36 HN22       10.3610    1.0390   -1.6950 hn        1 4HF      0.403800
     37 HN8         5.7530    2.3450    1.2190 hn        1 4HF      0.431800
     38 H71         3.5630    1.7660    1.1930 h1        1 4HF      0.053200
     39 H72         4.1740    0.4100    2.2510 h1        1 4HF      0.053200
     40 H6          3.7160    0.3860   -0.8150 hc        1 4HF      0.058700
     41 H91         2.2650   -1.5840   -0.1810 hc        1 4HF      0.053200
     42 H92         2.5680   -1.2370    1.5650 hc        1 4HF      0.053200
     43 H101        1.5620    1.0250    1.3340 hc        1 4HF      0.038700
     44 H102        1.3600    0.7850   -0.4480 hc        1 4HF      0.038700
     45 H4'         0.4320   -1.5700    2.5890 ha        1 4HF      0.130000
     46 H5'        -2.1190   -2.2600    2.5200 ha        1 4HF      0.162000
     47 HN         -3.8580    0.6240   -0.4400 hn        1 4HF      0.302500
     48 HA         -6.1530   -1.2240   -0.5210 h1        1 4HF      0.070700
     49 HB1        -6.1920    1.8940   -0.4970 hc        1 4HF      0.051200
     50 HB2        -7.5300    0.8300   -1.0890 hc        1 4HF      0.051200
     51 HG1        -7.7910   -0.1770    1.1450 hc        1 4HF      0.020200
     52 HG2        -6.3210    0.6790    1.7590 hc        1 4HF      0.020200
@<TRIPOS>BOND
     1    1    2 1   
     2    1   12 1   
     3    1   32 1   
     4    1   33 1   
     5    2    3 1   
     6    2    9 2   
     7    3    4 2   
     8    3    5 1   
     9    5    6 1   
    10    5   34 1   
    11    6    7 1   
    12    6    8 2   
    13    7   35 1   
    14    7   36 1   
    15    8    9 1   
    16    9   10 1   
    17   10   11 1   
    18   10   37 1   
    19   11   12 1   
    20   11   38 1   
    21   11   39 1   
    22   12   13 1   
    23   12   40 1   
    24   13   14 1   
    25   13   41 1   
    26   13   42 1   
    27   14   15 1   
    28   14   43 1   
    29   14   44 1   
    30   15   16 1   
    31   15   17 2   
    32   16   19 1   
    33   17   18 1   
    34   17   45 1   
    35   18   19 2   
    36   18   46 1   
    37   19   20 1   
    38   20   21 2   
    39   20   22 1   
    40   22   23 1   
    41   22   47 1   
    42   23   24 1   
    43   23   27 1   
    44   23   48 1   
    45   24   25 1   
    46   24   26 1   
    47   27   28 1   
    48   27   49 1   
    49   27   50 1   
    50   28   29 1   
    51   28   51 1   
    52   28   52 1   
    53   29   30 1   
    54   29   31 1   
@<TRIPOS>SUBSTRUCTURE
     1 4HF         1 TEMP              0 ****  ****    0 ROOT
