@<TRIPOS>MOLECULE
4HF
   53    55     1     0     0
SMALL
bcc


@<TRIPOS>ATOM
      1 C5          0.1120    0.7060   -0.2380 c3        1 4HF      0.002800
      2 C4A         1.5900    0.6400   -0.1800 cc        1 4HF     -0.357400
      3 C4          2.2620    1.4230    0.8350 c         1 4HF      0.725700
      4 O4          1.7320    2.1490    1.6970 o         1 4HF     -0.645500
      5 N3          3.6810    1.3650    0.8430 ns        1 4HF     -0.502400
      6 C2          4.3630    0.5670   -0.0840 cc        1 4HF      0.681800
      7 N2          5.7730    0.4720    0.0410 nv        1 4HF     -0.889800
      8 N1          3.7490   -0.1450   -1.0480 nd        1 4HF     -0.728300
      9 C8A         2.3450   -0.1410   -1.0640 cd        1 4HF      0.432600
     10 N8          1.7180   -0.9820   -1.9740 nu        1 4HF     -0.743000
     11 C7          0.3050   -0.8270   -2.2100 c3        1 4HF      0.210800
     12 C6         -0.4890   -0.5080   -0.9350 c3        1 4HF     -0.072700
     13 C9         -1.9500   -0.2530   -1.2710 c3        1 4HF     -0.073400
     14 C10        -2.6920   -1.5350   -1.6030 c3        1 4HF     -0.001100
     15 C3'        -4.0820   -1.2820   -2.0200 cc        1 4HF     -0.137400
     16 S2'        -5.3960   -1.9830   -1.2660 ss        1 4HF      0.110200
     17 C4'        -4.4780   -0.4750   -3.0760 cd        1 4HF     -0.177000
     18 C5'        -5.8920   -0.4660   -3.2300 cd        1 4HF     -0.107000
     19 C1'        -6.5130   -1.2740   -2.2900 cc        1 4HF     -0.185700
     20 C11        -7.9810   -1.4480   -2.2180 c         1 4HF      0.677700
     21 O11        -8.7420   -0.6130   -2.7590 o         1 4HF     -0.631100
     22 N          -8.4480   -2.6070   -1.6300 ns        1 4HF     -0.519900
     23 CA         -9.8050   -2.7020   -1.1170 c3        1 4HF     -0.071300
     24 C          -9.8350   -3.3180    0.3380 c         1 4HF      0.913600
     25 OX1       -10.9600   -3.3530    0.8960 o         1 4HF     -0.820800
     26 OX2        -8.7470   -3.7180    0.8380 o         1 4HF     -0.820800
     27 CB        -10.7240   -3.5530   -1.9980 c3        1 4HF     -0.076400
     28 CG        -11.0620   -2.8930   -3.3210 c3        1 4HF     -0.187400
     29 CD        -10.6970   -3.7290   -4.5060 c         1 4HF      0.637100
     30 OE1       -11.4150   -4.0140   -5.4700 o         1 4HF     -0.542000
     31 OE2        -9.4350   -4.2450   -4.6100 oh        1 4HF     -0.603100
     32 H51        -0.3040    0.7850    0.8030 hc        1 4HF      0.057700
     33 H52        -0.1930    1.6420   -0.7830 hc        1 4HF      0.057700
     34 HN3         4.1680    1.8360    1.5720 hn        1 4HF      0.330500
     35 HN21        6.2130   -0.0350   -0.6970 hn        1 4HF      0.411300
     36 HN22        6.2290    1.3310    0.2580 hn        1 4HF      0.411300
     37 HN8         2.2570   -1.3580   -2.7210 hn        1 4HF      0.435800
     38 H71         0.1200   -0.0090   -2.9670 h1        1 4HF      0.042700
     39 H72        -0.0640   -1.7980   -2.6490 h1        1 4HF      0.042700
     40 H6         -0.4230   -1.3910   -0.2390 hc        1 4HF      0.065700
     41 H91        -2.4420    0.2400   -0.3910 hc        1 4HF      0.053700
     42 H92        -2.0250    0.4600   -2.1340 hc        1 4HF      0.053700
     43 H101       -2.6760   -2.2140   -0.7070 hc        1 4HF      0.046700
     44 H102       -2.1580   -2.0740   -2.4340 hc        1 4HF      0.046700
     45 H4'        -3.8000    0.0890   -3.7190 ha        1 4HF      0.143000
     46 H5'        -6.4290    0.1060   -3.9910 ha        1 4HF      0.167000
     47 HN         -7.7990   -3.1210   -1.0580 hn        1 4HF      0.320500
     48 HA        -10.2480   -1.6660   -1.0450 h1        1 4HF      0.065700
     49 HB1       -10.2690   -4.5650   -2.1610 hc        1 4HF      0.064700
     50 HB2       -11.6660   -3.7090   -1.4030 hc        1 4HF      0.064700
     51 HG1       -12.1620   -2.6770   -3.3730 hc        1 4HF      0.087700
     52 HG2       -10.5220   -1.9080   -3.4180 hc        1 4HF      0.087700
     53 HN31       -8.9170   -3.9920   -3.8310 ho        1 4HF      0.444000
@<TRIPOS>BOND
     1    1    2 1   
     2    1   12 1   
     3    1   32 1   
     4    1   33 1   
     5    2    3 1   
     6    2    9 2   
     7    3    4 2   
     8    3    5 1   
     9    5    6 1   
    10    5   34 1   
    11    6    7 1   
    12    6    8 2   
    13    7   35 1   
    14    7   36 1   
    15    8    9 1   
    16    9   10 1   
    17   10   11 1   
    18   10   37 1   
    19   11   12 1   
    20   11   38 1   
    21   11   39 1   
    22   12   13 1   
    23   12   40 1   
    24   13   14 1   
    25   13   41 1   
    26   13   42 1   
    27   14   15 1   
    28   14   43 1   
    29   14   44 1   
    30   15   16 1   
    31   15   17 2   
    32   16   19 1   
    33   17   18 1   
    34   17   45 1   
    35   18   19 2   
    36   18   46 1   
    37   19   20 1   
    38   20   21 2   
    39   20   22 1   
    40   22   23 1   
    41   22   47 1   
    42   23   24 1   
    43   23   27 1   
    44   23   48 1   
    45   24   25 1   
    46   24   26 1   
    47   27   28 1   
    48   27   49 1   
    49   27   50 1   
    50   28   29 1   
    51   28   51 1   
    52   28   52 1   
    53   29   30 2   
    54   29   31 1   
    55   31   53 1   
@<TRIPOS>SUBSTRUCTURE
     1 4HF         1 TEMP              0 ****  ****    0 ROOT
