@<TRIPOS>MOLECULE
4HG
   28    29     1     0     0
SMALL
bcc


@<TRIPOS>ATOM
      1 C1         -0.5100   -0.3440    0.5310 ca        1 4HG     -0.120000
      2 C2          0.8610   -0.1090    0.2970 ca        1 4HG     -0.064000
      3 C3          1.7410    0.0600    1.3480 ca        1 4HG      0.029900
      4 C4         -0.9950   -0.4080    1.8170 ca        1 4HG     -0.079000
      5 C5         -0.1130   -0.2380    2.9120 ca        1 4HG     -0.079000
      6 C6          1.2670   -0.0020    2.6810 ca        1 4HG     -0.082300
      7 C7          2.1170    0.1670    3.8360 ca        1 4HG      0.398200
      8 N1          1.7000    0.1280    5.0830 nb        1 4HG     -0.603000
      9 C8          0.3560   -0.0900    5.3040 ca        1 4HG      0.230800
     10 C9         -0.5640   -0.2990    4.2730 ca        1 4HG      0.140800
     11 I1          3.6920    0.3940    0.9290 i         1 4HG     -0.114900
     12 O1         -1.8370   -0.6490    4.6060 oh        1 4HG     -0.518100
     13 C10        -0.0910   -0.0990    6.7190 c         1 4HG      0.495600
     14 C11        -2.5000    0.3310    7.2770 c3        1 4HG     -0.056200
     15 C12        -3.5600    0.9320    6.2730 c         1 4HG      0.926600
     16 O2         -4.7520    0.7800    6.5800 o         1 4HG     -0.777300
     17 O3          0.3190   -0.7930    7.6370 o         1 4HG     -0.430100
     18 O4         -3.0740    1.4930    5.2430 o         1 4HG     -0.777300
     19 N2         -1.1520    0.9170    7.0230 n4        1 4HG     -0.657800
     20 H1         -1.1860   -0.4740   -0.3290 ha        1 4HG      0.154000
     21 H2          1.2150   -0.0620   -0.7470 ha        1 4HG      0.157000
     22 H4         -2.0640   -0.5940    2.0110 ha        1 4HG      0.157000
     23 H7          3.2020    0.3460    3.6960 h4        1 4HG      0.052100
     24 HO1        -2.4730   -0.0690    4.1300 ho        1 4HG      0.497000
     25 H111       -2.8090    0.5450    8.3310 hx        1 4HG      0.097200
     26 H112       -2.4680   -0.7770    7.1040 hx        1 4HG      0.097200
     27 HN2        -0.8620    1.4780    7.8240 hn        1 4HG      0.462800
     28 H22        -1.2730    1.5370    6.1860 hn        1 4HG      0.462800
@<TRIPOS>BOND
     1    1    2 ar  
     2    1    4 ar  
     3    1   20 1   
     4    2    3 ar  
     5    2   21 1   
     6    3    6 ar  
     7    3   11 1   
     8    4    5 ar  
     9    4   22 1   
    10    5    6 ar  
    11    5   10 ar  
    12    6    7 ar  
    13    7    8 ar  
    14    7   23 1   
    15    8    9 ar  
    16    9   10 ar  
    17    9   13 1   
    18   10   12 1   
    19   12   24 1   
    20   13   17 2   
    21   13   19 1   
    22   14   15 1   
    23   14   19 1   
    24   14   25 1   
    25   14   26 1   
    26   15   16 1   
    27   15   18 1   
    28   19   27 1   
    29   19   28 1   
@<TRIPOS>SUBSTRUCTURE
     1 4HG         1 TEMP              0 ****  ****    0 ROOT
