@<TRIPOS>MOLECULE
4HG
   27    24     1     0     0
SMALL
bcc


@<TRIPOS>ATOM
      1 C1          0.0860    0.2250   -4.3730 c1        1 4HG     -0.111000
      2 C2          1.4360    0.2370   -4.3100 c1        1 4HG     -0.087000
      3 C3          2.0810    0.1880   -3.0700 c1        1 4HG     -0.249000
      4 C4         -0.6610    0.1660   -3.2100 c1        1 4HG     -0.111000
      5 C5         -0.0030    0.1150   -1.9320 c1        1 4HG     -0.058000
      6 C6          1.3160    0.1260   -1.8750 c1        1 4HG     -0.030000
      7 C7          1.9790    0.1290   -0.6100 c2        1 4HG     -0.103000
      8 N1          1.2490    0.1200    0.5560 n1        1 4HG     -0.068000
      9 C8         -0.0960    0.1100    0.5060 c1        1 4HG     -0.154000
     10 C9         -0.7550    0.1070   -0.7470 c2        1 4HG      0.123000
     11 I1          4.0740    0.2740   -3.6560 i         1 4HG      0.134000
     12 O1         -2.1770    0.0970   -0.6840 oh        1 4HG     -0.269000
     13 C10        -0.8720   -0.0870    1.7560 c2        1 4HG      0.338000
     14 C11        -0.7900    0.1530    4.2710 c3        1 4HG     -0.122000
     15 C12        -1.1920   -1.0270    5.0470 c2        1 4HG      0.332000
     16 O2         -2.2630   -1.6310    4.7690 o         1 4HG     -0.565000
     17 O3         -2.1180   -0.0960    1.7200 o         1 4HG     -0.465000
     18 O4         -0.4140   -1.4780    6.0030 o         1 4HG     -0.565000
     19 N2         -0.1740   -0.2790    3.0200 n         1 4HG     -0.284000
     20 H1         -0.3780    0.2600   -5.2710 ha        1 4HG      0.144500
     21 H2          1.9520    0.2390   -5.1190 ha        1 4HG      0.137000
     22 H4         -1.6520    0.1660   -3.2570 ha        1 4HG      0.144500
     23 H7          2.9530    0.1620   -0.4900 h4        1 4HG      0.172000
     24 HO1        -2.5030    0.9400   -0.8950 ho        1 4HG      0.280000
     25 H111       -1.5730    0.7060    4.0820 h1        1 4HG      0.081500
     26 H112       -0.1900    0.6330    4.7470 h1        1 4HG      0.081500
     27 HN2         0.6840   -0.5530    3.0180 hn        1 4HG      0.269000
@<TRIPOS>BOND
     1    1    4 1   
     2    1   20 1   
     3    2    3 1   
     4    2   21 1   
     5    3   11 1   
     6    4   22 1   
     7    5    6 1   
     8    5   10 1   
     9    6    7 1   
    10    7    8 1   
    11    7   23 1   
    12    9   10 1   
    13    9   13 1   
    14   10   12 1   
    15   12   24 1   
    16   13   17 1   
    17   13   19 1   
    18   14   15 1   
    19   14   19 1   
    20   14   25 1   
    21   14   26 1   
    22   15   16 1   
    23   15   18 1   
    24   19   27 1   
@<TRIPOS>SUBSTRUCTURE
     1 4HG         1 TEMP              0 ****  ****    0 ROOT
