@<TRIPOS>MOLECULE
4HG
   28    29     1     0     0
SMALL
bcc


@<TRIPOS>ATOM
      1 C1         -0.5420   -0.4230    0.5420 ca        1 4HG     -0.120000
      2 C2          0.8190   -0.1510    0.2850 ca        1 4HG     -0.064000
      3 C3          1.7060    0.0670    1.3200 ca        1 4HG      0.029900
      4 C4         -1.0090   -0.4740    1.8360 ca        1 4HG     -0.079000
      5 C5         -0.1180   -0.2530    2.9140 ca        1 4HG     -0.079000
      6 C6          1.2510    0.0210    2.6600 ca        1 4HG     -0.082300
      7 C7          2.1100    0.2400    3.8000 ca        1 4HG      0.399200
      8 N1          1.7100    0.2160    5.0530 nb        1 4HG     -0.603000
      9 C8          0.3760   -0.0380    5.2960 ca        1 4HG      0.230800
     10 C9         -0.5500   -0.2980    4.2830 ca        1 4HG      0.140800
     11 I1          3.6410    0.4510    0.8680 i         1 4HG     -0.114900
     12 O1         -1.8070   -0.6790    4.6400 oh        1 4HG     -0.518100
     13 C10        -0.0520   -0.0300    6.7170 c         1 4HG      0.495600
     14 C11        -2.4660    0.3380    7.2980 c3        1 4HG     -0.056200
     15 C12        -3.5570    0.8840    6.2960 c         1 4HG      0.926600
     16 O2         -4.7400    0.7020    6.6220 o         1 4HG     -0.777300
     17 O3          0.3910   -0.6910    7.6440 o         1 4HG     -0.430100
     18 O4         -3.1020    1.4370    5.2480 o         1 4HG     -0.777300
     19 N2         -1.1400    0.9590    7.0140 ny        1 4HG     -0.657800
     20 H1         -1.2250   -0.5920   -0.3060 ha        1 4HG      0.154000
     21 H2          1.1570   -0.1170   -0.7650 ha        1 4HG      0.157000
     22 H4         -2.0690   -0.6880    2.0480 ha        1 4HG      0.157000
     23 H7          3.1870    0.4500    3.6410 h4        1 4HG      0.052100
     24 HO1        -2.4670   -0.1290    4.1600 ho        1 4HG      0.497000
     25 H111       -2.4020   -0.7720    7.1490 hx        1 4HG      0.097200
     26 H112       -2.7680    0.5650    8.3520 hx        1 4HG      0.097200
     27 HN2        -0.8570    1.5460    7.7980 hn        1 4HG      0.462800
     28 H22        -1.2910    1.5570    6.1650 hn        1 4HG      0.462800
@<TRIPOS>BOND
     1    1    2 ar  
     2    1    4 ar  
     3    1   20 1   
     4    2    3 ar  
     5    2   21 1   
     6    3    6 ar  
     7    3   11 1   
     8    4    5 ar  
     9    4   22 1   
    10    5    6 ar  
    11    5   10 ar  
    12    6    7 ar  
    13    7    8 ar  
    14    7   23 1   
    15    8    9 ar  
    16    9   10 ar  
    17    9   13 1   
    18   10   12 1   
    19   12   24 1   
    20   13   17 2   
    21   13   19 1   
    22   14   15 1   
    23   14   19 1   
    24   14   25 1   
    25   14   26 1   
    26   15   16 1   
    27   15   18 1   
    28   19   27 1   
    29   19   28 1   
@<TRIPOS>SUBSTRUCTURE
     1 4HG         1 TEMP              0 ****  ****    0 ROOT
