@<TRIPOS>MOLECULE
4HG
   27    28     1     0     0
SMALL
bcc


@<TRIPOS>ATOM
      1 C1          6.3350   47.5150   24.0450 ca        1 4HG     -0.163000
      2 C2          5.5510   48.6850   24.1520 ca        1 4HG     -0.085000
      3 C3          4.3360   48.6620   24.8000 ca        1 4HG      0.031900
      4 C4          5.8950   46.3340   24.5940 ca        1 4HG     -0.057000
      5 C5          4.6490   46.2860   25.2690 ca        1 4HG     -0.063000
      6 C6          3.8550   47.4570   25.3750 ca        1 4HG     -0.091300
      7 C7          2.6000   47.3400   26.0620 ca        1 4HG      0.341200
      8 N1          2.1500   46.2240   26.6080 nb        1 4HG     -0.581000
      9 C8          2.9170   45.0940   26.5180 ca        1 4HG      0.231800
     10 C9          4.1530   45.0690   25.8570 ca        1 4HG      0.110800
     11 I1          3.2730   50.3850   24.9070 i         1 4HG     -0.165900
     12 O1          4.9730   43.9970   25.7400 oh        1 4HG     -0.507100
     13 C10         2.3990   43.8520   27.2090 c         1 4HG      0.554600
     14 C11         1.9460   41.4870   26.7700 c3        1 4HG     -0.080000
     15 C12         3.1220   40.7110   26.1190 c         1 4HG      0.897600
     16 O2          3.1080   39.4590   26.2190 o         1 4HG     -0.836300
     17 O3          2.4040   43.7780   28.4510 o         1 4HG     -0.589100
     18 O4          4.0260   41.3700   25.5150 o         1 4HG     -0.836300
     19 N2          1.8680   42.8770   26.3770 n         1 4HG     -0.489900
     20 H1          7.2990   47.5640   23.5190 ha        1 4HG      0.132000
     21 H2          5.9340   49.6140   23.7020 ha        1 4HG      0.134000
     22 H4          6.4860   45.4050   24.5240 ha        1 4HG      0.165000
     23 H7          1.9440   48.2240   26.1610 h4        1 4HG      0.027100
     24 HO1         4.5010   43.1550   25.9590 ho        1 4HG      0.507000
     25 H111        0.9830   40.9960   26.4630 h1        1 4HG      0.060200
     26 H112        2.0450   41.4090   27.8870 h1        1 4HG      0.060200
     27 HN2         2.0920   43.0010   25.4080 hn        1 4HG      0.290500
@<TRIPOS>BOND
     1    1    2 ar  
     2    1    4 ar  
     3    1   20 1   
     4    2    3 ar  
     5    2   21 1   
     6    3    6 ar  
     7    3   11 1   
     8    4    5 ar  
     9    4   22 1   
    10    5    6 ar  
    11    5   10 ar  
    12    6    7 ar  
    13    7    8 ar  
    14    7   23 1   
    15    8    9 ar  
    16    9   10 ar  
    17    9   13 1   
    18   10   12 1   
    19   12   24 1   
    20   13   17 2   
    21   13   19 1   
    22   14   15 1   
    23   14   19 1   
    24   14   25 1   
    25   14   26 1   
    26   15   16 1   
    27   15   18 1   
    28   19   27 1   
@<TRIPOS>SUBSTRUCTURE
     1 4HG         1 TEMP              0 ****  ****    0 ROOT
