@<TRIPOS>MOLECULE
4HG
   28    29     1     0     0
SMALL
bcc


@<TRIPOS>ATOM
      1 C1         -0.5430   -0.3220    0.5270 ca        1 4HG     -0.120000
      2 C2          0.8220   -0.0620    0.2810 ca        1 4HG     -0.064000
      3 C3          1.7100    0.1150    1.3230 ca        1 4HG      0.029900
      4 C4         -1.0120   -0.4020    1.8190 ca        1 4HG     -0.079000
      5 C5         -0.1210   -0.2230    2.9050 ca        1 4HG     -0.079000
      6 C6          1.2520    0.0380    2.6600 ca        1 4HG     -0.082300
      7 C7          2.1120    0.2140    3.8070 ca        1 4HG      0.398200
      8 N1          1.7090    0.1620    5.0590 nb        1 4HG     -0.603000
      9 C8          0.3710   -0.0800    5.2930 ca        1 4HG      0.230800
     10 C9         -0.5560   -0.2990    4.2710 ca        1 4HG      0.140800
     11 I1          3.6510    0.4840    0.8850 i         1 4HG     -0.114900
     12 O1         -1.8190   -0.6720    4.6150 oh        1 4HG     -0.518100
     13 C10        -0.0600   -0.1050    6.7120 c         1 4HG      0.495600
     14 C11        -2.4690    0.2810    7.2990 c3        1 4HG     -0.056200
     15 C12        -3.5510    0.8700    6.3110 c         1 4HG      0.926600
     16 O2         -4.7370    0.6950    6.6300 o         1 4HG     -0.777300
     17 O3          0.3720   -0.7980    7.6220 o         1 4HG     -0.430100
     18 O4         -3.0850    1.4440    5.2780 o         1 4HG     -0.777300
     19 N2         -1.1340    0.8910    7.0340 n4        1 4HG     -0.657800
     20 H1         -1.2260   -0.4580   -0.3260 ha        1 4HG      0.154000
     21 H2          1.1640   -0.0040   -0.7670 ha        1 4HG      0.157000
     22 H4         -2.0760   -0.6070    2.0230 ha        1 4HG      0.157000
     23 H7          3.1920    0.4130    3.6560 h4        1 4HG      0.052100
     24 HO1        -2.4700   -0.1000    4.1490 ho        1 4HG      0.497000
     25 H111       -2.4210   -0.8260    7.1200 hx        1 4HG      0.097200
     26 H112       -2.7710    0.4830    8.3580 hx        1 4HG      0.097200
     27 HN2        -0.8450    1.4520    7.8350 hn        1 4HG      0.462800
     28 H22        -1.2750    1.5140    6.2020 hn        1 4HG      0.462800
@<TRIPOS>BOND
     1    1    2 ar  
     2    1    4 ar  
     3    1   20 1   
     4    2    3 ar  
     5    2   21 1   
     6    3    6 ar  
     7    3   11 1   
     8    4    5 ar  
     9    4   22 1   
    10    5    6 ar  
    11    5   10 ar  
    12    6    7 ar  
    13    7    8 ar  
    14    7   23 1   
    15    8    9 ar  
    16    9   10 ar  
    17    9   13 1   
    18   10   12 1   
    19   12   24 1   
    20   13   17 2   
    21   13   19 1   
    22   14   15 1   
    23   14   19 1   
    24   14   25 1   
    25   14   26 1   
    26   15   16 1   
    27   15   18 1   
    28   19   27 1   
    29   19   28 1   
@<TRIPOS>SUBSTRUCTURE
     1 4HG         1 TEMP              0 ****  ****    0 ROOT
