@<TRIPOS>MOLECULE
4HI
   67    61     1     0     0
SMALL
bcc


@<TRIPOS>ATOM
      1 N1         -0.1940    0.5260   -0.3560 n2        1 4HI     -0.127000
      2 N3          1.5600    0.5910    0.9870 n2        1 4HI     -0.127000
      3 C4          1.6080    1.2570    5.4260 c3        1 4HI      0.001000
      4 C5          1.1700    0.5590   -0.3230 c2        1 4HI     -0.018000
      5 C6         -1.9520    0.6900    1.6730 c3        1 4HI     -0.069000
      6 C7         -1.0200    0.6300   -1.5500 c2        1 4HI     -0.033000
      7 C8         -1.2280   -0.7710   -2.1560 c3        1 4HI     -0.179000
      8 C10        -2.4780   -2.0730   -3.8660 c3        1 4HI     -0.201000
      9 C13        -2.8480   -0.4900    1.3740 c3        1 4HI     -0.209500
     10 C15         3.0850    1.7040   -3.2580 c1        1 4HI     -0.127333
     11 C17         3.2540   -0.0200    6.8690 c1        1 4HI     -0.110000
     12 C20         4.4470   -0.1000    7.5750 c1        1 4HI     -0.127333
     13 C21         2.7290   -0.6030   -1.7580 c1        1 4HI     -0.070000
     14 C24         3.6110   -0.5990   -2.8260 c1        1 4HI     -0.172000
     15 C26         3.9320    2.1070    5.9690 c1        1 4HI     -0.127333
     16 O2         -0.6480    0.6340    3.8810 o         1 4HI     -0.395000
     17 C3          0.4190    0.6550    3.2980 c1        1 4HI      0.391000
     18 N2          1.6520    0.8180    4.0470 n2        1 4HI     -0.354000
     19 C32         2.9960    1.0850    6.0650 c1        1 4HI     -0.106000
     20 C23         5.1230    2.0240    6.6750 c1        1 4HI     -0.127333
     21 C29         5.3800    0.9200    7.4780 c1        1 4HI     -0.127333
     22 C2          0.4570    0.5780    1.7500 c2        1 4HI     -0.206000
     23 C12        -0.6390    0.5370    0.9130 c2        1 4HI      0.004000
     24 C14        -2.6380    1.9670    1.2420 c3        1 4HI     -0.209500
     25 C27         2.0220    0.5480   -1.4370 c1        1 4HI     -0.024000
     26 C30         3.7890    0.5580   -3.5770 c1        1 4HI      0.098000
     27 F1          4.6050    0.5480   -4.6410 f         1 4HI     -0.109000
     28 C18         2.1990    1.7010   -2.1860 c1        1 4HI     -0.127333
     29 C9         -2.2450   -0.6870   -3.2910 c3        1 4HI      0.046000
     30 O4         -1.7590    0.1550   -4.2900 oh        1 4HI     -0.368000
     31 C11        -3.5210   -1.9960   -4.9710 c3        1 4HI      0.061000
     32 O3         -2.9640   -1.3780   -6.0960 oh        1 4HI     -0.405000
     33 C35        -3.9730   -3.3970   -5.3360 c3        1 4HI     -0.265000
     34 C36        -5.1400   -3.3160   -6.3030 c2        1 4HI      0.330000
     35 O6         -4.9970   -3.6930   -7.4960 o         1 4HI     -0.579000
     36 O7         -6.2540   -2.8770   -5.9110 o         1 4HI     -0.579000
     37 H4          0.9510    0.7190    5.9190 h1        1 4HI      0.105500
     38 H4A         1.3480    2.2010    5.4590 h1        1 4HI      0.105500
     39 H6         -1.7710    0.7270    2.6300 hc        1 4HI      0.149000
     40 H7         -0.5750    1.2050   -2.2050 ha        1 4HI      0.118000
     41 H7A        -1.8850    1.0150   -1.3140 ha        1 4HI      0.118000
     42 H8         -1.5600   -1.3790   -1.4650 hc        1 4HI      0.096500
     43 H8A        -0.3760   -1.1060   -2.5040 hc        1 4HI      0.096500
     44 H10        -1.6400   -2.4190   -4.2330 hc        1 4HI      0.092000
     45 H10A       -2.7970   -2.6710   -3.1580 hc        1 4HI      0.092000
     46 H13        -3.5370   -0.5620    2.0690 hc        1 4HI      0.079833
     47 H13A       -2.3120   -1.3120    1.3590 hc        1 4HI      0.079833
     48 H13B       -3.2760   -0.3630    0.5020 hc        1 4HI      0.079833
     49 H15         3.1890    2.3890   -3.9490 ha        1 4HI      0.135167
     50 H17         2.6110   -0.7500    6.9160 ha        1 4HI      0.141000
     51 H20         4.5720   -0.7840    8.2590 ha        1 4HI      0.135167
     52 H21         2.6330   -1.4040   -1.2080 ha        1 4HI      0.152000
     53 H24         3.9500   -1.4470   -3.1710 ha        1 4HI      0.148000
     54 H26         3.7560    2.9290    5.4740 ha        1 4HI      0.135167
     55 HN2         2.4460    0.5920    3.6680 hn        1 4HI      0.234000
     56 H23         5.7940    2.7300    6.5850 ha        1 4HI      0.135167
     57 H29         6.0570    0.9190    8.1840 ha        1 4HI      0.135167
     58 H14        -3.3460    1.7560    0.5970 hc        1 4HI      0.079833
     59 H14A       -3.0310    2.4080    2.0270 hc        1 4HI      0.079833
     60 H14B       -1.9840    2.5650    0.8250 hc        1 4HI      0.079833
     61 H18         1.8300    2.6010   -2.3040 ha        1 4HI      0.135167
     62 H9         -3.0880   -0.3310   -2.9480 h1        1 4HI      0.071000
     63 HO4        -2.2540    0.8940   -4.3220 ho        1 4HI      0.245000
     64 H11        -4.2870   -1.4780   -4.6600 h1        1 4HI      0.069000
     65 HO3        -3.4730   -0.6890   -6.3370 ho        1 4HI      0.268000
     66 H35        -3.2320   -3.8800   -5.7590 hc        1 4HI      0.077000
     67 H35A       -4.2520   -3.8700   -4.5280 hc        1 4HI      0.077000
@<TRIPOS>BOND
     1    1    4 1   
     2    1   23 1   
     3    2    4 1   
     4    2   22 1   
     5    3   18 1   
     6    3   19 1   
     7    3   37 1   
     8    3   38 1   
     9    4   25 1   
    10    5    9 1   
    11    5   23 1   
    12    5   24 1   
    13    5   39 1   
    14    6    7 1   
    15    6   40 1   
    16    6   41 1   
    17    7   29 1   
    18    7   42 1   
    19    7   43 1   
    20    8   29 1   
    21    8   31 1   
    22    8   44 1   
    23    8   45 1   
    24    9   46 1   
    25    9   47 1   
    26    9   48 1   
    27   10   28 1   
    28   10   49 1   
    29   11   19 1   
    30   11   50 1   
    31   12   21 1   
    32   12   51 1   
    33   13   25 1   
    34   13   52 1   
    35   14   26 1   
    36   14   53 1   
    37   15   20 1   
    38   15   54 1   
    39   16   17 1   
    40   17   22 1   
    41   18   55 1   
    42   20   56 1   
    43   21   57 1   
    44   22   23 1   
    45   24   58 1   
    46   24   59 1   
    47   24   60 1   
    48   26   27 1   
    49   28   61 1   
    50   29   30 1   
    51   29   62 1   
    52   30   63 1   
    53   31   32 1   
    54   31   33 1   
    55   31   64 1   
    56   32   65 1   
    57   33   34 1   
    58   33   66 1   
    59   33   67 1   
    60   34   35 1   
    61   34   36 1   
@<TRIPOS>SUBSTRUCTURE
     1 4HI         1 TEMP              0 ****  ****    0 ROOT
