@<TRIPOS>MOLECULE
4HI
   68    70     1     0     0
SMALL
bcc


@<TRIPOS>ATOM
      1 N1         -0.0850   -0.0110    0.1710 na        1 4HI     -0.167900
      2 N3          1.6780   -0.2140    1.6030 nc        1 4HI     -0.696000
      3 C4          1.7810   -0.5360    5.8940 c3        1 4HI      0.170100
      4 C5          1.3290   -0.1570    0.3050 cd        1 4HI      0.539000
      5 C7         -0.8250   -0.0070   -1.0720 c3        1 4HI      0.005300
      6 C8         -1.5390   -1.3260   -1.3730 c3        1 4HI     -0.107400
      7 C10        -2.7360   -2.6180   -3.1560 c3        1 4HI     -0.124400
      8 C13        -2.6310   -1.0570    2.4420 c3        1 4HI     -0.098100
      9 C15         2.9880   -1.0590   -2.9610 ca        1 4HI     -0.169500
     10 C17         3.9140    0.2230    6.9640 ca        1 4HI     -0.102500
     11 C20         5.1660   -0.0520    7.5130 ca        1 4HI     -0.121000
     12 C21         3.4360    0.5820   -0.7350 ca        1 4HI     -0.064000
     13 C24         4.3770    0.5480   -1.7560 ca        1 4HI     -0.169500
     14 C26         3.6130   -2.1340    6.4860 ca        1 4HI     -0.102500
     15 O2         -0.4700   -0.0420    4.5690 o         1 4HI     -0.479100
     16 N2          1.8240   -0.4240    4.4050 n4        1 4HI     -0.666800
     17 C32         3.1360   -0.8190    6.4500 ca        1 4HI     -0.175300
     18 C23         4.8660   -2.4030    7.0330 ca        1 4HI     -0.121000
     19 C29         5.6430   -1.3630    7.5460 ca        1 4HI     -0.088000
     20 C2          0.4780   -0.1140    2.3420 cc        1 4HI      0.122800
     21 C12        -0.6320    0.0150    1.4430 cd        1 4HI      0.002100
     22 C14        -2.3660    1.4360    2.5020 c3        1 4HI     -0.098100
     23 C27         2.2720   -0.1960   -0.8160 ca        1 4HI     -0.193500
     24 C30         4.1560   -0.2780   -2.8760 ca        1 4HI      0.160900
     25 F1          5.0700   -0.3180   -3.8700 f         1 4HI     -0.124900
     26 C18         2.0530   -1.0150   -1.9310 ca        1 4HI     -0.064000
     27 C9         -1.8960   -1.3830   -2.8600 c3        1 4HI      0.159100
     28 O4         -0.6570   -1.3960   -3.5590 oh        1 4HI     -0.656800
     29 C11        -3.4600   -2.4940   -4.4970 c3        1 4HI      0.175100
     30 O3         -2.4550   -2.4610   -5.5030 oh        1 4HI     -0.684800
     31 C35        -4.4310   -3.6420   -4.7020 c3        1 4HI     -0.242400
     32 C36        -5.3150   -3.3840   -5.9390 c         1 4HI      0.912600
     33 O6         -6.5330   -3.6920   -5.8690 o         1 4HI     -0.834800
     34 O7         -4.7570   -2.8740   -6.9570 o         1 4HI     -0.834800
     35 H4          1.3650    0.4310    6.3000 hx        1 4HI      0.110700
     36 H4A         1.0570   -1.3610    6.1550 hx        1 4HI      0.110700
     37 H6         -2.6500    0.2450    0.7390 hc        1 4HI      0.083700
     38 H7         -0.1000    0.2210   -1.9100 h1        1 4HI      0.096700
     39 H7A        -1.5790    0.8310   -1.0320 h1        1 4HI      0.096700
     40 H8         -2.4740   -1.4090   -0.7630 hc        1 4HI      0.058200
     41 H8A        -0.8840   -2.2030   -1.1310 hc        1 4HI      0.058200
     42 H10        -3.5040   -2.7540   -2.3530 hc        1 4HI      0.053200
     43 H10A       -2.0750   -3.5220   -3.1740 hc        1 4HI      0.053200
     44 H13        -3.7310   -0.9360    2.5990 hc        1 4HI      0.053700
     45 H13A       -2.4580   -1.9780    1.8340 hc        1 4HI      0.053700
     46 H13B       -2.1450   -1.1810    3.4390 hc        1 4HI      0.053700
     47 H15         2.8130   -1.6930   -3.8440 ha        1 4HI      0.165500
     48 H21         3.6100    1.2290    0.1390 ha        1 4HI      0.159500
     49 H24         5.2900    1.1590   -1.7020 ha        1 4HI      0.165500
     50 HN2         2.4550    0.3390    4.1340 hn        1 4HI      0.461800
     51 H23         5.2400   -3.4390    7.0650 ha        1 4HI      0.153500
     52 H29         6.6330   -1.5780    7.9810 ha        1 4HI      0.154000
     53 H14        -3.4700    1.5590    2.6260 hc        1 4HI      0.053700
     54 H14A       -1.9680    2.3250    1.9570 hc        1 4HI      0.053700
     55 H14B       -1.9010    1.3940    3.5160 hc        1 4HI      0.053700
     56 H18         1.1340   -1.6240   -2.0250 ha        1 4HI      0.159500
     57 H9         -2.4610   -0.4530   -3.1520 h1        1 4HI      0.044700
     58 HO4        -0.8460   -1.6710   -4.4700 ho        1 4HI      0.462000
     59 H11        -4.0250   -1.5180   -4.5300 h1        1 4HI      0.031700
     60 HO3        -2.9140   -2.5700   -6.3590 ho        1 4HI      0.478000
     61 H35        -5.0800   -3.7630   -3.8010 hc        1 4HI      0.038700
     62 H35A       -3.8680   -4.5930   -4.8690 hc        1 4HI      0.038700
     63 C6         -2.0920    0.1650    1.7210 c3        1 4HI     -0.024400
     64 C3          0.4570   -0.1650    3.7740 c         1 4HI      0.512600
     65 H17         3.5370    1.2580    6.9510 ha        1 4HI      0.139000
     66 H20         5.7770    0.7680    7.9230 ha        1 4HI      0.153500
     67 H22         2.2060   -1.2900    4.0080 hn        1 4HI      0.461800
     68 H26         2.9960   -2.9590    6.0970 ha        1 4HI      0.139000
@<TRIPOS>BOND
     1    1    4 1   
     2    1    5 1   
     3    1   21 1   
     4    2    4 2   
     5    2   20 1   
     6    3   16 1   
     7    3   17 1   
     8    3   35 1   
     9    3   36 1   
    10    4   23 1   
    11    5    6 1   
    12    5   38 1   
    13    5   39 1   
    14    6   27 1   
    15    6   40 1   
    16    6   41 1   
    17    7   27 1   
    18    7   29 1   
    19    7   42 1   
    20    7   43 1   
    21    8   44 1   
    22    8   45 1   
    23    8   46 1   
    24    8   63 1   
    25    9   24 ar  
    26    9   26 ar  
    27    9   47 1   
    28   10   11 ar  
    29   10   17 ar  
    30   10   65 1   
    31   11   19 ar  
    32   11   66 1   
    33   12   13 ar  
    34   12   23 ar  
    35   12   48 1   
    36   13   24 ar  
    37   13   49 1   
    38   14   17 ar  
    39   14   18 ar  
    40   14   68 1   
    41   15   64 2   
    42   16   50 1   
    43   16   64 1   
    44   16   67 1   
    45   18   19 ar  
    46   18   51 1   
    47   19   52 1   
    48   20   21 2   
    49   20   64 1   
    50   21   63 1   
    51   22   53 1   
    52   22   54 1   
    53   22   55 1   
    54   22   63 1   
    55   23   26 ar  
    56   24   25 1   
    57   26   56 1   
    58   27   28 1   
    59   27   57 1   
    60   28   58 1   
    61   29   30 1   
    62   29   31 1   
    63   29   59 1   
    64   30   60 1   
    65   31   32 1   
    66   31   61 1   
    67   31   62 1   
    68   32   33 1   
    69   32   34 1   
    70   37   63 1   
@<TRIPOS>SUBSTRUCTURE
     1 4HI         1 TEMP              0 ****  ****    0 ROOT
