@<TRIPOS>MOLECULE
4HI
   68    70     1     0     0
SMALL
bcc


@<TRIPOS>ATOM
      1 N1         -0.1790    0.0460    0.1760 na        1 4HI     -0.158900
      2 N3          1.6760   -0.1380    1.5040 nc        1 4HI     -0.691000
      3 C4          1.9600   -0.4940    5.8020 c3        1 4HI      0.171100
      4 C5          1.2480   -0.0740    0.2290 cd        1 4HI      0.536000
      5 C7         -0.9720   -0.0430   -1.0310 c3        1 4HI      0.008300
      6 C8         -1.4290   -1.4590   -1.3870 c3        1 4HI     -0.110400
      7 C10        -2.4970   -2.8490   -3.1790 c3        1 4HI     -0.124400
      8 C13        -3.0510   -0.6320    1.4440 c3        1 4HI     -0.098600
      9 C15         2.8240   -0.7070   -3.1510 ca        1 4HI     -0.169500
     10 C17         4.1540    0.2090    6.7850 ca        1 4HI     -0.102500
     11 C20         5.4200   -0.0990    7.2810 ca        1 4HI     -0.121000
     12 C21         3.2730    0.8120   -0.8430 ca        1 4HI     -0.063500
     13 C24         4.1770    0.8880   -1.8930 ca        1 4HI     -0.169500
     14 C26         3.7750   -2.1390    6.3140 ca        1 4HI     -0.102500
     15 O2         -0.3350    0.0620    4.5650 o         1 4HI     -0.483100
     16 N2          1.9460   -0.3740    4.3130 ny        1 4HI     -0.664800
     17 C32         3.3290   -0.8120    6.3010 ca        1 4HI     -0.176300
     18 C23         5.0420   -2.4410    6.8090 ca        1 4HI     -0.121000
     19 C29         5.8650   -1.4210    7.2910 ca        1 4HI     -0.088000
     20 C2          0.5230   -0.0380    2.3090 cc        1 4HI      0.110800
     21 C12        -0.6400    0.0970    1.4780 cd        1 4HI      0.002100
     22 C14        -2.4430    1.7830    1.6390 c3        1 4HI     -0.098600
     23 C27         2.1420   -0.0180   -0.9310 ca        1 4HI     -0.192500
     24 C30         3.9560    0.1230   -3.0570 ca        1 4HI      0.160900
     25 F1          4.8350    0.1910   -4.0800 f         1 4HI     -0.124900
     26 C18         1.9250   -0.7730   -2.0900 ca        1 4HI     -0.063500
     27 C9         -1.9000   -1.4890   -2.8420 c3        1 4HI      0.158100
     28 O4         -0.7580   -1.1940   -3.6360 oh        1 4HI     -0.655800
     29 C11        -3.3620   -2.7830   -4.4380 c3        1 4HI      0.175100
     30 O3         -2.4930   -2.4610   -5.5160 oh        1 4HI     -0.684800
     31 C35        -4.0930   -4.0930   -4.6690 c3        1 4HI     -0.242400
     32 C36        -5.1340   -3.9350   -5.7960 c         1 4HI      0.912600
     33 O6         -6.2500   -4.4970   -5.6530 o         1 4HI     -0.834800
     34 O7         -4.7980   -3.2420   -6.8050 o         1 4HI     -0.834800
     35 H4          1.5840    0.4810    6.2290 hx        1 4HI      0.110700
     36 H4A         1.2270   -1.3030    6.0870 hx        1 4HI      0.110700
     37 H6         -1.9940    0.2530    3.0870 hc        1 4HI      0.088700
     38 H7         -0.3450    0.3640   -1.8820 h1        1 4HI      0.096700
     39 H7A        -1.8750    0.6210   -0.9080 h1        1 4HI      0.096700
     40 H8         -2.2730   -1.7800   -0.7270 hc        1 4HI      0.059200
     41 H8A        -0.5980   -2.2000   -1.2590 hc        1 4HI      0.059200
     42 H10        -3.1360   -3.2030   -2.3310 hc        1 4HI      0.053200
     43 H10A       -1.6710   -3.5880   -3.3360 hc        1 4HI      0.053200
     44 H13        -2.6600   -1.6760    1.4940 hc        1 4HI      0.054367
     45 H13A       -3.3440   -0.4000    0.3920 hc        1 4HI      0.054367
     46 H13B       -3.9710   -0.5690    2.0770 hc        1 4HI      0.054367
     47 H15         2.6460   -1.2940   -4.0660 ha        1 4HI      0.165500
     48 H21         3.4490    1.4140    0.0620 ha        1 4HI      0.160000
     49 H24         5.0610    1.5390   -1.8300 ha        1 4HI      0.165500
     50 HN2         2.2930   -1.2460    3.8960 hn        1 4HI      0.462800
     51 H23         5.3910   -3.4850    6.8220 ha        1 4HI      0.153500
     52 H29         6.8660   -1.6620    7.6840 ha        1 4HI      0.154000
     53 H14        -1.7090    2.5120    2.0590 hc        1 4HI      0.054367
     54 H14A       -2.5200    1.9480    0.5380 hc        1 4HI      0.054367
     55 H14B       -3.4440    1.9810    2.0930 hc        1 4HI      0.054367
     56 H18         1.0360   -1.4210   -2.1980 ha        1 4HI      0.160000
     57 H9         -2.6680   -0.6800   -3.0090 h1        1 4HI      0.043700
     58 HO4        -0.9770   -1.4310   -4.5520 ho        1 4HI      0.462000
     59 H11        -4.1160   -1.9500   -4.3320 h1        1 4HI      0.031700
     60 HO3        -3.0040   -2.6000   -6.3380 ho        1 4HI      0.478000
     61 H35        -3.3680   -4.8860   -4.9740 hc        1 4HI      0.038700
     62 H35A       -4.6070   -4.4170   -3.7330 hc        1 4HI      0.038700
     63 C6         -2.0270    0.3570    1.9590 c3        1 4HI     -0.030400
     64 C3          0.5620   -0.0850    3.7400 c         1 4HI      0.510600
     65 H17         3.8020    1.2520    6.7900 ha        1 4HI      0.139000
     66 H20         6.0670    0.7050    7.6670 ha        1 4HI      0.153500
     67 H22         2.5800    0.3770    4.0190 hn        1 4HI      0.462800
     68 H26         3.1220   -2.9470    5.9490 ha        1 4HI      0.139000
@<TRIPOS>BOND
     1    1    4 1   
     2    1    5 1   
     3    1   21 1   
     4    2    4 2   
     5    2   20 1   
     6    3   16 1   
     7    3   17 1   
     8    3   35 1   
     9    3   36 1   
    10    4   23 1   
    11    5    6 1   
    12    5   38 1   
    13    5   39 1   
    14    6   27 1   
    15    6   40 1   
    16    6   41 1   
    17    7   27 1   
    18    7   29 1   
    19    7   42 1   
    20    7   43 1   
    21    8   44 1   
    22    8   45 1   
    23    8   46 1   
    24    8   63 1   
    25    9   24 ar  
    26    9   26 ar  
    27    9   47 1   
    28   10   11 ar  
    29   10   17 ar  
    30   10   65 1   
    31   11   19 ar  
    32   11   66 1   
    33   12   13 ar  
    34   12   23 ar  
    35   12   48 1   
    36   13   24 ar  
    37   13   49 1   
    38   14   17 ar  
    39   14   18 ar  
    40   14   68 1   
    41   15   64 2   
    42   16   50 1   
    43   16   64 1   
    44   16   67 1   
    45   18   19 ar  
    46   18   51 1   
    47   19   52 1   
    48   20   21 2   
    49   20   64 1   
    50   21   63 1   
    51   22   53 1   
    52   22   54 1   
    53   22   55 1   
    54   22   63 1   
    55   23   26 ar  
    56   24   25 1   
    57   26   56 1   
    58   27   28 1   
    59   27   57 1   
    60   28   58 1   
    61   29   30 1   
    62   29   31 1   
    63   29   59 1   
    64   30   60 1   
    65   31   32 1   
    66   31   61 1   
    67   31   62 1   
    68   32   33 1   
    69   32   34 1   
    70   37   63 1   
@<TRIPOS>SUBSTRUCTURE
     1 4HI         1 TEMP              0 ****  ****    0 ROOT
