@<TRIPOS>MOLECULE
4HI
   67    69     1     0     0
SMALL
bcc


@<TRIPOS>ATOM
      1 N1         -0.0560    0.2220    0.1840 na        1 4HI     -0.171900
      2 N3          1.8930    0.4630    1.3510 nc        1 4HI     -0.661000
      3 C4          2.5290    0.8780    5.6010 c3        1 4HI      0.128300
      4 C5          1.3540    0.3640    0.1100 cd        1 4HI      0.457000
      5 C7         -0.9300   -0.0480   -0.9290 c3        1 4HI      0.022300
      6 C8         -1.1670   -1.5310   -1.2270 c3        1 4HI     -0.108400
      7 C10        -2.2630   -3.1160   -2.8390 c3        1 4HI     -0.122400
      8 C13        -2.6340   -0.8870    1.7390 c3        1 4HI     -0.090600
      9 C15         2.7280   -0.1190   -3.3860 ca        1 4HI     -0.172500
     10 C17         4.5580   -0.3310    6.4820 ca        1 4HI     -0.116000
     11 C20         5.1880   -1.4940    6.9270 ca        1 4HI     -0.135000
     12 C21         3.1610    1.4760   -1.1310 ca        1 4HI     -0.077500
     13 C24         3.9630    1.6480   -2.2520 ca        1 4HI     -0.172500
     14 C26         2.5350   -1.5890    6.0670 ca        1 4HI     -0.116000
     15 O2          0.0930    0.1270    4.5090 o         1 4HI     -0.639100
     16 N2          2.2130    0.9330    4.1990 n         1 4HI     -0.542900
     17 C32         3.2300   -0.3740    6.0530 ca        1 4HI     -0.119300
     18 C23         3.1680   -2.7500    6.5080 ca        1 4HI     -0.135000
     19 C29         4.4940   -2.7030    6.9390 ca        1 4HI     -0.129000
     20 C2          0.8270    0.3970    2.2490 cc        1 4HI      0.216800
     21 C12        -0.3990    0.2590    1.5380 cd        1 4HI     -0.096900
     22 C14        -2.4640    1.6030    1.7980 c3        1 4HI     -0.090600
     23 C27         2.1390    0.5100   -1.1200 ca        1 4HI     -0.140500
     24 C30         3.7480    0.8470   -3.3890 ca        1 4HI      0.127900
     25 F1          4.5280    1.0100   -4.4850 f         1 4HI     -0.145900
     26 C18         1.9330   -0.2820   -2.2540 ca        1 4HI     -0.077500
     27 C9         -1.8130   -1.6790   -2.6050 c3        1 4HI      0.155100
     28 O4         -0.8360   -1.2640   -3.5520 oh        1 4HI     -0.645800
     29 C11        -3.2490   -3.2250   -4.0020 c3        1 4HI      0.172100
     30 O3         -2.5250   -2.9170   -5.1870 oh        1 4HI     -0.678800
     31 C35        -3.8720   -4.6090   -4.0650 c3        1 4HI     -0.236400
     32 C36        -5.0070   -4.6660   -5.1020 c         1 4HI      0.910600
     33 O6         -6.0260   -5.3560   -4.8290 o         1 4HI     -0.842800
     34 O7         -4.8550   -4.0220   -6.1850 o         1 4HI     -0.842800
     35 H4          1.5690    0.9770    6.1880 h1        1 4HI      0.064200
     36 H4A         3.1800    1.7710    5.8320 h1        1 4HI      0.064200
     37 H6         -1.6230    0.2500    3.2470 hc        1 4HI      0.109700
     38 H7         -1.9230    0.4440   -0.7230 h1        1 4HI      0.079200
     39 H7A        -0.4820    0.4370   -1.8470 h1        1 4HI      0.079200
     40 H8         -0.2060   -2.1070   -1.2080 hc        1 4HI      0.059200
     41 H8A        -1.8420   -1.9830   -0.4570 hc        1 4HI      0.059200
     42 H10        -2.7620   -3.5060   -1.9160 hc        1 4HI      0.052700
     43 H10A       -1.3660   -3.7520   -3.0550 hc        1 4HI      0.052700
     44 H13        -3.4900   -0.9640    2.4530 hc        1 4HI      0.040033
     45 H13A       -2.0500   -1.8370    1.7850 hc        1 4HI      0.040033
     46 H13B       -3.0550   -0.7650    0.7120 hc        1 4HI      0.040033
     47 H15         2.5550   -0.7390   -4.2790 ha        1 4HI      0.151000
     48 H21         3.3350    2.1040   -0.2430 ha        1 4HI      0.162000
     49 H24         4.7620    2.4030   -2.2600 ha        1 4HI      0.151000
     50 H26         1.4870   -1.6140    5.7240 ha        1 4HI      0.142000
     51 HN2         2.9880    0.9740    3.5770 hn        1 4HI      0.321500
     52 H23         2.6200   -3.7040    6.5140 ha        1 4HI      0.128500
     53 H29         4.9920   -3.6200    7.2860 ha        1 4HI      0.126000
     54 H14        -2.6630    1.7030    0.7050 hc        1 4HI      0.040033
     55 H14A       -3.4420    1.6440    2.3370 hc        1 4HI      0.040033
     56 H14B       -1.8390    2.4680    2.1250 hc        1 4HI      0.040033
     57 H18         1.1330   -1.0430   -2.2840 ha        1 4HI      0.162000
     58 H9         -2.7000   -0.9860   -2.6830 h1        1 4HI      0.034700
     59 HO4        -1.1290   -1.5760   -4.4210 ho        1 4HI      0.449000
     60 H11        -4.0660   -2.4560   -3.8780 h1        1 4HI      0.029700
     61 HO3        -3.1030   -3.1540   -5.9360 ho        1 4HI      0.470000
     62 H35        -4.2750   -4.8920   -3.0620 hc        1 4HI      0.038200
     63 H35A       -3.0960   -5.3590   -4.3610 hc        1 4HI      0.038200
     64 C6         -1.7670    0.2930    2.1220 c3        1 4HI     -0.022400
     65 C3          1.0050    0.4510    3.7150 c         1 4HI      0.605600
     66 H17         5.1110    0.6200    6.4710 ha        1 4HI      0.142000
     67 H20         6.2330   -1.4560    7.2640 ha        1 4HI      0.128500
@<TRIPOS>BOND
     1    1    4 1   
     2    1    5 1   
     3    1   21 1   
     4    2    4 2   
     5    2   20 1   
     6    3   16 1   
     7    3   17 1   
     8    3   35 1   
     9    3   36 1   
    10    4   23 1   
    11    5    6 1   
    12    5   38 1   
    13    5   39 1   
    14    6   27 1   
    15    6   40 1   
    16    6   41 1   
    17    7   27 1   
    18    7   29 1   
    19    7   42 1   
    20    7   43 1   
    21    8   44 1   
    22    8   45 1   
    23    8   46 1   
    24    8   64 1   
    25    9   24 ar  
    26    9   26 ar  
    27    9   47 1   
    28   10   11 ar  
    29   10   17 ar  
    30   10   66 1   
    31   11   19 ar  
    32   11   67 1   
    33   12   13 ar  
    34   12   23 ar  
    35   12   48 1   
    36   13   24 ar  
    37   13   49 1   
    38   14   17 ar  
    39   14   18 ar  
    40   14   50 1   
    41   15   65 2   
    42   16   51 1   
    43   16   65 1   
    44   18   19 ar  
    45   18   52 1   
    46   19   53 1   
    47   20   21 2   
    48   20   65 1   
    49   21   64 1   
    50   22   54 1   
    51   22   55 1   
    52   22   56 1   
    53   22   64 1   
    54   23   26 ar  
    55   24   25 1   
    56   26   57 1   
    57   27   28 1   
    58   27   58 1   
    59   28   59 1   
    60   29   30 1   
    61   29   31 1   
    62   29   60 1   
    63   30   61 1   
    64   31   32 1   
    65   31   62 1   
    66   31   63 1   
    67   32   33 1   
    68   32   34 1   
    69   37   64 1   
@<TRIPOS>SUBSTRUCTURE
     1 4HI         1 TEMP              0 ****  ****    0 ROOT
