@<TRIPOS>MOLECULE
4HI
   67    69     1     0     0
SMALL
bcc


@<TRIPOS>ATOM
      1 N1         -0.1460    0.1550    0.5710 na        1 4HI     -0.169900
      2 N3         -2.1020   -0.5500   -0.3800 nc        1 4HI     -0.661000
      3 C4         -5.4940    1.8230   -1.6480 c3        1 4HI      0.129300
      4 C5         -0.8640   -0.9380    0.0200 cd        1 4HI      0.456000
      5 C7          1.2400    0.1390    0.9590 c3        1 4HI      0.022300
      6 C8          2.2290    0.5170   -0.1470 c3        1 4HI     -0.108400
      7 C10         4.6730    0.6940   -0.6990 c3        1 4HI     -0.122400
      8 C13         0.4710    3.3050    0.5810 c3        1 4HI     -0.090600
      9 C15         1.2540   -4.0450   -0.4290 ca        1 4HI     -0.173000
     10 C17        -6.7900    1.3260    0.4440 ca        1 4HI     -0.115500
     11 C20        -7.8890    0.7770    1.1010 ca        1 4HI     -0.136000
     12 C21        -1.3460   -3.3300    0.3100 ca        1 4HI     -0.077500
     13 C24        -0.9940   -4.6740    0.2690 ca        1 4HI     -0.173000
     14 C26        -7.6540    0.5230   -1.6670 ca        1 4HI     -0.115500
     15 O2         -3.6930    2.6380    0.3110 o         1 4HI     -0.638100
     16 N2         -4.2250    1.1980   -1.3930 n         1 4HI     -0.543900
     17 C32        -6.6690    1.2010   -0.9450 ca        1 4HI     -0.118300
     18 C23        -8.7550   -0.0230   -1.0070 ca        1 4HI     -0.136000
     19 C29        -8.8730    0.1030    0.3770 ca        1 4HI     -0.130000
     20 C2         -2.2040    0.8060   -0.0700 cc        1 4HI      0.217800
     21 C12        -1.0000    1.2600    0.5380 cd        1 4HI     -0.102900
     22 C14        -0.7400    2.5570    2.6320 c3        1 4HI     -0.090600
     23 C27        -0.4110   -2.3330   -0.0160 ca        1 4HI     -0.141500
     24 C30         0.3140   -5.0370   -0.1030 ca        1 4HI      0.127900
     25 F1          0.6630   -6.3460   -0.1450 f         1 4HI     -0.145900
     26 C18         0.8860   -2.7030   -0.3860 ca        1 4HI     -0.077500
     27 C9          3.6470    0.1380    0.2810 c3        1 4HI      0.155100
     28 O4          3.6810   -1.2830    0.3410 oh        1 4HI     -0.645800
     29 C11         6.0860    0.6890   -0.1140 c3        1 4HI      0.172100
     30 O3          6.4710   -0.6730    0.0210 oh        1 4HI     -0.678800
     31 C35         7.0480    1.4630   -1.0000 c3        1 4HI     -0.236400
     32 C36         8.4190    1.6330   -0.3230 c         1 4HI      0.910600
     33 O6          9.0290    2.7240   -0.4830 o         1 4HI     -0.842800
     34 O7          8.8710    0.6590    0.3540 o         1 4HI     -0.842800
     35 H4         -5.4270    2.9070   -1.3340 h1        1 4HI      0.065200
     36 H4A        -5.6660    1.7870   -2.7630 h1        1 4HI      0.065200
     37 H6         -1.6620    3.2340    0.8120 hc        1 4HI      0.103700
     38 H7          1.3720    0.8510    1.8230 h1        1 4HI      0.079700
     39 H7A         1.4870   -0.9030    1.3230 h1        1 4HI      0.079700
     40 H8          1.9830   -0.0060   -1.1070 hc        1 4HI      0.058700
     41 H8A         2.1910    1.6190   -0.3460 hc        1 4HI      0.058700
     42 H10         4.6600    0.0800   -1.6350 hc        1 4HI      0.052200
     43 H10A        4.4050    1.7490   -0.9620 hc        1 4HI      0.052200
     44 H13         1.3970    2.9180    1.0710 hc        1 4HI      0.040033
     45 H13A        0.5570    3.1670   -0.5230 hc        1 4HI      0.040033
     46 H13B        0.4020    4.4000    0.7960 hc        1 4HI      0.040033
     47 H15         2.2790   -4.3300   -0.7110 ha        1 4HI      0.151500
     48 H21        -2.3710   -3.0510    0.6010 ha        1 4HI      0.163000
     49 H24        -1.7250   -5.4540    0.5240 ha        1 4HI      0.151500
     50 H26        -7.5630    0.4180   -2.7590 ha        1 4HI      0.143000
     51 HN2        -4.1050    0.2780   -1.7520 hn        1 4HI      0.323500
     52 H23        -9.5280   -0.5550   -1.5790 ha        1 4HI      0.128000
     53 H29        -9.7400   -0.3300    0.8960 ha        1 4HI      0.125000
     54 H14         0.1250    1.9620    3.0080 hc        1 4HI      0.040033
     55 H14A       -0.6550    3.5940    3.0380 hc        1 4HI      0.040033
     56 H14B       -1.6830    2.0990    3.0170 hc        1 4HI      0.040033
     57 H18         1.6490   -1.9450   -0.6390 ha        1 4HI      0.163000
     58 H9          3.8520    0.5410    1.3150 h1        1 4HI      0.035700
     59 HO4         4.6130   -1.5460    0.3690 ho        1 4HI      0.449000
     60 H11         6.0710    1.1560    0.9140 h1        1 4HI      0.029700
     61 HO3         7.4250   -0.6740    0.2270 ho        1 4HI      0.470000
     62 H35         7.2020    0.9110   -1.9600 hc        1 4HI      0.038200
     63 H35A        6.6260    2.4700   -1.2320 hc        1 4HI      0.038200
     64 C6         -0.7640    2.6110    1.1150 c3        1 4HI     -0.017400
     65 C3         -3.4180    1.6040   -0.3400 c         1 4HI      0.606600
     66 H17        -6.0060    1.8620    1.0060 ha        1 4HI      0.143000
     67 H20        -7.9800    0.8760    2.1930 ha        1 4HI      0.128000
@<TRIPOS>BOND
     1    1    4 1   
     2    1    5 1   
     3    1   21 1   
     4    2    4 2   
     5    2   20 1   
     6    3   16 1   
     7    3   17 1   
     8    3   35 1   
     9    3   36 1   
    10    4   23 1   
    11    5    6 1   
    12    5   38 1   
    13    5   39 1   
    14    6   27 1   
    15    6   40 1   
    16    6   41 1   
    17    7   27 1   
    18    7   29 1   
    19    7   42 1   
    20    7   43 1   
    21    8   44 1   
    22    8   45 1   
    23    8   46 1   
    24    8   64 1   
    25    9   24 ar  
    26    9   26 ar  
    27    9   47 1   
    28   10   11 ar  
    29   10   17 ar  
    30   10   66 1   
    31   11   19 ar  
    32   11   67 1   
    33   12   13 ar  
    34   12   23 ar  
    35   12   48 1   
    36   13   24 ar  
    37   13   49 1   
    38   14   17 ar  
    39   14   18 ar  
    40   14   50 1   
    41   15   65 2   
    42   16   51 1   
    43   16   65 1   
    44   18   19 ar  
    45   18   52 1   
    46   19   53 1   
    47   20   21 2   
    48   20   65 1   
    49   21   64 1   
    50   22   54 1   
    51   22   55 1   
    52   22   56 1   
    53   22   64 1   
    54   23   26 ar  
    55   24   25 1   
    56   26   57 1   
    57   27   28 1   
    58   27   58 1   
    59   28   59 1   
    60   29   30 1   
    61   29   31 1   
    62   29   60 1   
    63   30   61 1   
    64   31   32 1   
    65   31   62 1   
    66   31   63 1   
    67   32   33 1   
    68   32   34 1   
    69   37   64 1   
@<TRIPOS>SUBSTRUCTURE
     1 4HI         1 TEMP              0 ****  ****    0 ROOT
