@<TRIPOS>MOLECULE
4HK
   48    52     1     0     0
SMALL
bcc


@<TRIPOS>ATOM
      1 N1         -1.6160   -0.5050   -2.0550 n1        1 4HK     -0.335800
      2 C1         -0.9830   -0.3910   -1.0870 cg        1 4HK      0.129800
      3 C2         -0.2140   -0.2580    0.1140 ca        1 4HK      0.487300
      4 N2          1.0010    0.3530    0.0450 nb        1 4HK     -0.622000
      5 C6          1.6970    0.4620    1.1820 ca        1 4HK      0.411200
      6 C5          1.2490   -0.0170    2.4430 ca        1 4HK     -0.100300
      7 C4         -0.0050   -0.6380    2.4900 ca        1 4HK     -0.099000
      8 C3         -0.7500   -0.7650    1.3160 ca        1 4HK     -0.199300
      9 C7          2.0910    0.1640    3.6000 cc        1 4HK     -0.032300
     10 C9          3.2510    0.9170    3.7660 cd        1 4HK     -0.239600
     11 C10         4.2170    1.8330    3.1120 c3        1 4HK      0.045200
     12 C11         5.1940    2.1400    4.2270 ca        1 4HK     -0.056300
     13 C22         4.8450    1.4630    5.4390 ca        1 4HK     -0.138500
     14 C8          3.6410    0.6990    5.1770 cd        1 4HK      0.347800
     15 N4          2.7700   -0.1300    5.7900 nc        1 4HK     -0.451800
     16 N3          1.8530   -0.4320    4.8670 na        1 4HK     -0.032600
     17 C21         5.6150    1.6040    6.5780 ca        1 4HK     -0.068000
     18 C18         6.7510    2.4320    6.5480 ca        1 4HK     -0.095300
     19 C19         7.5840    2.5730    7.7740 c3        1 4HK     -0.035100
     20 C20         6.8430    3.2680    8.8910 c3        1 4HK     -0.089100
     21 C13         7.0860    3.0890    5.3500 ca        1 4HK      0.124100
     22 C12         6.3120    2.9460    4.1800 ca        1 4HK     -0.178000
     23 O1          8.2550    3.8320    5.3700 os        1 4HK     -0.328900
     24 C14         8.3160    4.9430    4.4640 c3        1 4HK      0.114100
     25 C17         8.9810    4.5320    3.1410 c3        1 4HK      0.100400
     26 O2         10.1250    5.3590    2.9330 os        1 4HK     -0.419600
     27 C16        10.4340    6.0930    4.1230 c3        1 4HK      0.126400
     28 C15         9.2680    5.9670    5.0950 c3        1 4HK     -0.114400
     29 H4          2.6810    0.9640    1.0990 h4        1 4HK      0.038100
     30 H3         -0.4210   -1.0230    3.4330 ha        1 4HK      0.142000
     31 H2         -1.7380   -1.2480    1.3250 ha        1 4HK      0.159000
     32 H5          3.7220    2.7680    2.7440 hc        1 4HK      0.074200
     33 H6          4.7390    1.3430    2.2500 hc        1 4HK      0.074200
     34 H1          1.1410   -1.0910    5.0740 hn        1 4HK      0.320700
     35 H17         5.3480    1.0800    7.5080 ha        1 4HK      0.150000
     36 H16         8.5220    3.1460    7.5380 hc        1 4HK      0.057200
     37 H15         7.8990    1.5490    8.1150 hc        1 4HK      0.057200
     38 H201        6.5590    4.3050    8.5920 hc        1 4HK      0.035700
     39 H202        5.9100    2.7110    9.1550 hc        1 4HK      0.035700
     40 H203        7.4900    3.3260    9.8000 hc        1 4HK      0.035700
     41 H7          6.6040    3.4560    3.2510 ha        1 4HK      0.142000
     42 H8          7.2940    5.3710    4.3020 h1        1 4HK      0.066700
     43 H14         8.3090    4.7000    2.2610 h1        1 4HK      0.059200
     44 H13         9.3220    3.4650    3.1730 h1        1 4HK      0.059200
     45 H12        10.6110    7.1500    3.7980 h1        1 4HK      0.051200
     46 H11        11.3780    5.6640    4.5480 h1        1 4HK      0.051200
     47 H9          8.7460    6.9450    5.2300 hc        1 4HK      0.069700
     48 H10         9.6150    5.6140    6.0980 hc        1 4HK      0.069700
@<TRIPOS>BOND
     1    1    2 3   
     2    2    3 1   
     3    3    4 ar  
     4    3    8 ar  
     5    4    5 ar  
     6    5    6 ar  
     7    5   29 1   
     8    6    7 ar  
     9    6    9 1   
    10    7    8 ar  
    11    7   30 1   
    12    8   31 1   
    13    9   10 2   
    14    9   16 1   
    15   10   11 1   
    16   10   14 1   
    17   11   12 1   
    18   11   32 1   
    19   11   33 1   
    20   12   13 ar  
    21   12   22 ar  
    22   13   14 1   
    23   13   17 ar  
    24   14   15 2   
    25   15   16 1   
    26   16   34 1   
    27   17   18 ar  
    28   17   35 1   
    29   18   19 1   
    30   18   21 ar  
    31   19   20 1   
    32   19   36 1   
    33   19   37 1   
    34   20   38 1   
    35   20   39 1   
    36   20   40 1   
    37   21   22 ar  
    38   21   23 1   
    39   22   41 1   
    40   23   24 1   
    41   24   25 1   
    42   24   28 1   
    43   24   42 1   
    44   25   26 1   
    45   25   43 1   
    46   25   44 1   
    47   26   27 1   
    48   27   28 1   
    49   27   45 1   
    50   27   46 1   
    51   28   47 1   
    52   28   48 1   
@<TRIPOS>SUBSTRUCTURE
     1 4HK         1 TEMP              0 ****  ****    0 ROOT
