@<TRIPOS>MOLECULE
4HK
   48    40     1     0     0
SMALL
bcc


@<TRIPOS>ATOM
      1 N1         -4.6810    3.7350   -7.3660 n1        1 4HK     -0.009000
      2 C1         -4.0210    3.6660   -6.4390 c1        1 4HK     -0.089000
      3 C2         -3.1450    3.5750   -5.2080 c1        1 4HK      0.002667
      4 N2         -1.9760    2.8760   -5.2540 n1        1 4HK     -0.096000
      5 C6         -1.1990    2.7700   -4.1390 c1        1 4HK     -0.067000
      6 C5         -1.5970    3.3740   -2.9570 c1        1 4HK      0.002667
      7 C4         -2.7680    4.0750   -2.9090 c1        1 4HK     -0.101000
      8 C3         -3.5450    4.1800   -4.0270 c1        1 4HK     -0.101000
      9 C7         -0.7670    3.2020   -1.7010 c1        1 4HK     -0.052000
     10 C9         -0.5970    2.0340   -0.9970 c1        1 4HK     -0.165000
     11 C10        -1.3000    0.9710   -0.2720 c2        1 4HK     -0.045000
     12 C11        -0.3070    0.0110    0.1900 c1        1 4HK     -0.071000
     13 C22         0.9470    0.4680   -0.2070 c1        1 4HK      0.002667
     14 C8          0.7580    1.7520   -0.9600 c1        1 4HK     -0.052000
     15 N4          1.4090    2.7350   -1.6330 n2        1 4HK     -0.095000
     16 N3          0.4640    3.6380   -2.0950 n2        1 4HK     -0.095000
     17 C21         2.0870   -0.2890    0.0740 c1        1 4HK     -0.101000
     18 C18         1.9690   -1.4990    0.7510 c1        1 4HK     -0.083000
     19 C19         2.5570   -2.4850   -0.2360 c2        1 4HK     -0.129000
     20 C20         4.0440   -2.6180    0.0090 c3        1 4HK     -0.210000
     21 C13         0.7130   -1.9580    1.1490 c1        1 4HK      0.052000
     22 C12        -0.4230   -1.2050    0.8690 c2        1 4HK     -0.125000
     23 O1          0.2420   -2.9100    2.0660 o         1 4HK     -0.224000
     24 C14         0.3920   -2.3790    3.4620 c3        1 4HK      0.003000
     25 C17         1.4270   -3.2730    4.2840 c3        1 4HK     -0.026000
     26 O2          0.7450   -3.5870    5.5860 os        1 4HK     -0.279000
     27 C16        -0.2810   -2.7950    5.6220 c3        1 4HK     -0.021000
     28 C15        -0.6740   -2.4810    4.0750 c3        1 4HK     -0.214000
     29 H4         -0.3630    2.2690   -4.1730 ha        1 4HK      0.164000
     30 H3         -3.0490    4.5010   -2.0770 ha        1 4HK      0.154667
     31 H2         -4.3820    4.6810   -3.9940 ha        1 4HK      0.154667
     32 H5         -1.7740    1.3510    0.4940 ha        1 4HK      0.111500
     33 H6         -1.9350    0.5290   -0.8690 ha        1 4HK      0.111500
     34 H1          0.6350    4.3960   -2.5720 DU        1 4HK      0.274000
     35 H17         2.9690    0.0440   -0.1800 ha        1 4HK      0.154667
     36 H16         2.1280   -3.3560   -0.1200 ha        1 4HK      0.097000
     37 H15         2.4030   -2.1640   -1.1470 ha        1 4HK      0.097000
     38 H201        4.1960   -3.0350    0.8830 hc        1 4HK      0.076000
     39 H202        4.4420   -3.1750   -0.6930 hc        1 4HK      0.076000
     40 H203        4.4590   -1.7290   -0.0060 hc        1 4HK      0.076000
     41 H7         -1.3020   -1.5260    1.1480 ha        1 4HK      0.148000
     42 H8          0.6870   -1.4460    3.4430 h1        1 4HK      0.104000
     43 H14         1.6220   -4.0980    3.7970 h1        1 4HK      0.102000
     44 H13         2.2510   -2.7720    4.4460 h1        1 4HK      0.102000
     45 H12        -0.0480   -1.9640    6.0850 h1        1 4HK      0.088500
     46 H11        -1.0290   -3.2350    6.0770 h1        1 4HK      0.088500
     47 H9         -1.2050   -3.2170    3.7060 hc        1 4HK      0.102500
     48 H10        -1.1770   -1.6410    4.0180 hc        1 4HK      0.102500
@<TRIPOS>BOND
     1    1    2 1   
     2    3    8 1   
     3    4    5 1   
     4    5   29 1   
     5    6    7 1   
     6    7   30 1   
     7    8   31 1   
     8    9   10 1   
     9    9   16 1   
    10   10   14 1   
    11   11   12 1   
    12   11   32 1   
    13   11   33 1   
    14   12   22 1   
    15   13   17 1   
    16   14   15 1   
    17   15   16 1   
    18   17   35 1   
    19   18   21 1   
    20   19   20 1   
    21   19   36 1   
    22   19   37 1   
    23   20   38 1   
    24   20   39 1   
    25   20   40 1   
    26   21   22 1   
    27   22   41 1   
    28   23   24 1   
    29   24   25 1   
    30   24   28 1   
    31   24   42 1   
    32   25   26 1   
    33   25   43 1   
    34   25   44 1   
    35   26   27 1   
    36   27   28 1   
    37   27   45 1   
    38   27   46 1   
    39   28   47 1   
    40   28   48 1   
@<TRIPOS>SUBSTRUCTURE
     1 4HK         1 TEMP              0 ****  ****    0 ROOT
