@<TRIPOS>MOLECULE
4HK
   48    52     1     0     0
SMALL
bcc


@<TRIPOS>ATOM
      1 N1         -8.5020   -2.4650   -0.1390 n1        1 4HK     -0.335800
      2 C1         -7.5250   -1.8370   -0.1190 cg        1 4HK      0.129800
      3 C2         -6.3290   -1.0480   -0.0970 ca        1 4HK      0.487300
      4 N2         -5.1420   -1.6720    0.1390 nb        1 4HK     -0.622000
      5 C6         -4.0420   -0.9110    0.1550 ca        1 4HK      0.411200
      6 C5         -4.0400    0.4940   -0.0570 ca        1 4HK     -0.100300
      7 C4         -5.2720    1.1140   -0.3020 ca        1 4HK     -0.099000
      8 C3         -6.4330    0.3400   -0.3230 ca        1 4HK     -0.199300
      9 C7         -2.7860    1.2060   -0.0190 cc        1 4HK     -0.032300
     10 C9         -1.4770    0.7300    0.0150 cd        1 4HK     -0.239600
     11 C10        -0.6150   -0.4770    0.0250 c3        1 4HK      0.045200
     12 C11         0.7810    0.1090    0.0530 ca        1 4HK     -0.056300
     13 C22         0.7550    1.5400    0.0630 ca        1 4HK     -0.138500
     14 C8         -0.6360    1.9480    0.0380 cd        1 4HK      0.347800
     15 N4         -1.4040    3.0580    0.0250 nc        1 4HK     -0.451800
     16 N3         -2.6640    2.6200   -0.0220 na        1 4HK     -0.032600
     17 C21         1.9280    2.2700    0.0960 ca        1 4HK     -0.068000
     18 C18         3.1630    1.5990    0.1090 ca        1 4HK     -0.095300
     19 C19         4.4240    2.3900    0.1540 c3        1 4HK     -0.035100
     20 C20         4.6350    3.2010   -1.1020 c3        1 4HK     -0.089100
     21 C13         3.1750    0.1920    0.1020 ca        1 4HK      0.124100
     22 C12         1.9850   -0.5640    0.0770 ca        1 4HK     -0.178000
     23 O1          4.4220   -0.4060    0.1870 os        1 4HK     -0.328900
     24 C14         4.5430   -1.7060   -0.4060 c3        1 4HK      0.114100
     25 C17         4.3020   -2.8070    0.6400 c3        1 4HK      0.100400
     26 O2          5.4640   -3.6330    0.7040 os        1 4HK     -0.419600
     27 C16         6.5510   -3.0230   -0.0020 c3        1 4HK      0.126400
     28 C15         6.0120   -1.8590   -0.8240 c3        1 4HK     -0.114400
     29 H4         -3.0910   -1.4430    0.3490 h4        1 4HK      0.038100
     30 H3         -5.3440    2.1950   -0.4870 ha        1 4HK      0.142000
     31 H2         -7.4130    0.8010   -0.5130 ha        1 4HK      0.159000
     32 H5         -0.7970   -1.1120    0.9300 hc        1 4HK      0.074200
     33 H6         -0.7670   -1.1060   -0.8890 hc        1 4HK      0.074200
     34 H1         -3.4160    3.2670    0.0290 hn        1 4HK      0.320700
     35 H17         1.9070    3.3710    0.1080 ha        1 4HK      0.150000
     36 H16         4.3850    3.0790    1.0420 hc        1 4HK      0.057200
     37 H15         5.3020    1.7050    0.3060 hc        1 4HK      0.057200
     38 H201        4.7230    2.5340   -1.9930 hc        1 4HK      0.035700
     39 H202        3.7800    3.9000   -1.2700 hc        1 4HK      0.035700
     40 H203        5.5720    3.8010   -1.0140 hc        1 4HK      0.035700
     41 H7          2.0200   -1.6620    0.0890 ha        1 4HK      0.142000
     42 H8          3.8500   -1.8030   -1.2800 h1        1 4HK      0.066700
     43 H14         4.1270   -2.3690    1.6560 h1        1 4HK      0.059200
     44 H13         3.4540   -3.4810    0.3550 h1        1 4HK      0.059200
     45 H12         7.2980   -2.6820    0.7600 h1        1 4HK      0.051200
     46 H11         6.9980   -3.8290   -0.6380 h1        1 4HK      0.051200
     47 H9          6.0790   -2.0710   -1.9180 hc        1 4HK      0.069700
     48 H10         6.5790   -0.9180   -0.6130 hc        1 4HK      0.069700
@<TRIPOS>BOND
     1    1    2 3   
     2    2    3 1   
     3    3    4 ar  
     4    3    8 ar  
     5    4    5 ar  
     6    5    6 ar  
     7    5   29 1   
     8    6    7 ar  
     9    6    9 1   
    10    7    8 ar  
    11    7   30 1   
    12    8   31 1   
    13    9   10 2   
    14    9   16 1   
    15   10   11 1   
    16   10   14 1   
    17   11   12 1   
    18   11   32 1   
    19   11   33 1   
    20   12   13 ar  
    21   12   22 ar  
    22   13   14 1   
    23   13   17 ar  
    24   14   15 2   
    25   15   16 1   
    26   16   34 1   
    27   17   18 ar  
    28   17   35 1   
    29   18   19 1   
    30   18   21 ar  
    31   19   20 1   
    32   19   36 1   
    33   19   37 1   
    34   20   38 1   
    35   20   39 1   
    36   20   40 1   
    37   21   22 ar  
    38   21   23 1   
    39   22   41 1   
    40   23   24 1   
    41   24   25 1   
    42   24   28 1   
    43   24   42 1   
    44   25   26 1   
    45   25   43 1   
    46   25   44 1   
    47   26   27 1   
    48   27   28 1   
    49   27   45 1   
    50   27   46 1   
    51   28   47 1   
    52   28   48 1   
@<TRIPOS>SUBSTRUCTURE
     1 4HK         1 TEMP              0 ****  ****    0 ROOT
