@<TRIPOS>MOLECULE
4HK
   48    52     1     0     0
SMALL
bcc


@<TRIPOS>ATOM
      1 N1         -1.6270   -0.4640   -2.0620 n1        1 4HK     -0.335800
      2 C1         -0.9940   -0.3550   -1.0940 cg        1 4HK      0.129800
      3 C2         -0.2250   -0.2280    0.1080 ca        1 4HK      0.487300
      4 N2          0.9950    0.3750    0.0400 nb        1 4HK     -0.622000
      5 C6          1.6910    0.4790    1.1770 ca        1 4HK      0.411200
      6 C5          1.2390    0.0030    2.4380 ca        1 4HK     -0.100300
      7 C4         -0.0200   -0.6100    2.4840 ca        1 4HK     -0.099000
      8 C3         -0.7650   -0.7310    1.3100 ca        1 4HK     -0.199300
      9 C7          2.0820    0.1770    3.5950 cc        1 4HK     -0.032300
     10 C9          3.2450    0.9250    3.7630 cd        1 4HK     -0.239600
     11 C10         4.2150    1.8390    3.1110 c3        1 4HK      0.045200
     12 C11         5.1930    2.1390    4.2270 ca        1 4HK     -0.056300
     13 C22         4.8410    1.4610    5.4370 ca        1 4HK     -0.138500
     14 C8          3.6340    0.7020    5.1730 cd        1 4HK      0.347800
     15 N4          2.7600   -0.1250    5.7840 nc        1 4HK     -0.452800
     16 N3          1.8420   -0.4210    4.8610 na        1 4HK     -0.032600
     17 C21         5.6120    1.5960    6.5760 ca        1 4HK     -0.068000
     18 C18         6.7510    2.4190    6.5490 ca        1 4HK     -0.095300
     19 C19         7.5850    2.5550    7.7750 c3        1 4HK     -0.035100
     20 C20         6.8460    3.2490    8.8940 c3        1 4HK     -0.089100
     21 C13         7.0890    3.0790    5.3520 ca        1 4HK      0.124100
     22 C12         6.3140    2.9410    4.1810 ca        1 4HK     -0.178000
     23 O1          8.2610    3.8170    5.3730 os        1 4HK     -0.328900
     24 C14         8.3250    4.9300    4.4710 c3        1 4HK      0.114100
     25 C17         8.9890    4.5200    3.1460 c3        1 4HK      0.100400
     26 O2         10.1360    5.3440    2.9410 os        1 4HK     -0.419600
     27 C16        10.4480    6.0740    4.1330 c3        1 4HK      0.126400
     28 C15         9.2810    5.9490    5.1050 c3        1 4HK     -0.114400
     29 H4          2.6790    0.9730    1.0940 h4        1 4HK      0.038100
     30 H3         -0.4380   -0.9910    3.4270 ha        1 4HK      0.142000
     31 H2         -1.7560   -1.2070    1.3190 ha        1 4HK      0.159000
     32 H5          4.7350    1.3490    2.2480 hc        1 4HK      0.074200
     33 H6          3.7240    2.7770    2.7450 hc        1 4HK      0.074200
     34 H1          1.1270   -1.0780    5.0650 hn        1 4HK      0.320700
     35 H17         5.3430    1.0710    7.5050 ha        1 4HK      0.150000
     36 H16         7.8960    1.5280    8.1130 hc        1 4HK      0.057200
     37 H15         8.5240    3.1240    7.5400 hc        1 4HK      0.057200
     38 H201        5.9120    2.6950    9.1560 hc        1 4HK      0.035700
     39 H202        6.5660    4.2880    8.5980 hc        1 4HK      0.035700
     40 H203        7.4940    3.3020    9.8020 hc        1 4HK      0.035700
     41 H7          6.6080    3.4530    3.2540 ha        1 4HK      0.142000
     42 H8          7.3050    5.3620    4.3100 h1        1 4HK      0.066700
     43 H14         8.3170    4.6930    2.2670 h1        1 4HK      0.059200
     44 H13         9.3260    3.4520    3.1750 h1        1 4HK      0.059200
     45 H12        11.3900    5.6400    4.5570 h1        1 4HK      0.051200
     46 H11        10.6280    7.1310    3.8110 h1        1 4HK      0.051200
     47 H9          9.6270    5.5910    6.1070 hc        1 4HK      0.069700
     48 H10         8.7630    6.9280    5.2420 hc        1 4HK      0.069700
@<TRIPOS>BOND
     1    1    2 3   
     2    2    3 1   
     3    3    4 ar  
     4    3    8 ar  
     5    4    5 ar  
     6    5    6 ar  
     7    5   29 1   
     8    6    7 ar  
     9    6    9 1   
    10    7    8 ar  
    11    7   30 1   
    12    8   31 1   
    13    9   10 2   
    14    9   16 1   
    15   10   11 1   
    16   10   14 1   
    17   11   12 1   
    18   11   32 1   
    19   11   33 1   
    20   12   13 ar  
    21   12   22 ar  
    22   13   14 1   
    23   13   17 ar  
    24   14   15 2   
    25   15   16 1   
    26   16   34 1   
    27   17   18 ar  
    28   17   35 1   
    29   18   19 1   
    30   18   21 ar  
    31   19   20 1   
    32   19   36 1   
    33   19   37 1   
    34   20   38 1   
    35   20   39 1   
    36   20   40 1   
    37   21   22 ar  
    38   21   23 1   
    39   22   41 1   
    40   23   24 1   
    41   24   25 1   
    42   24   28 1   
    43   24   42 1   
    44   25   26 1   
    45   25   43 1   
    46   25   44 1   
    47   26   27 1   
    48   27   28 1   
    49   27   45 1   
    50   27   46 1   
    51   28   47 1   
    52   28   48 1   
@<TRIPOS>SUBSTRUCTURE
     1 4HK         1 TEMP              0 ****  ****    0 ROOT
