@<TRIPOS>MOLECULE
4HL
   40    41     1     0     0
SMALL
bcc


@<TRIPOS>ATOM
      1 C1          2.1220   -1.0870   -0.3350 c3        1 4HL      0.149100
      2 NX1         1.6470   -1.6610    0.9530 n3        1 4HL     -0.656500
      3 NX2         0.5240   -2.4430    0.8710 nh        1 4HL     -0.101900
      4 C4'         4.5020   -0.4920    0.2150 ca        1 4HL     -0.067000
      5 C5'         5.5130    0.4430    0.4140 ca        1 4HL     -0.202000
      6 C6'         5.2010    1.8070    0.3090 ca        1 4HL      0.118100
      7 C1'         3.8980    2.2310    0.0110 ca        1 4HL     -0.202000
      8 C2'         2.8960    1.2840   -0.1850 ca        1 4HL     -0.067000
      9 C3'         3.2000   -0.0810   -0.0860 ca        1 4HL     -0.144300
     10 N          -2.7390    1.1620   -2.2930 n3        1 4HL     -0.911800
     11 CA         -2.2240    1.6680   -1.0350 c3        1 4HL      0.065500
     12 C          -0.6800    1.6060   -0.8840 c         1 4HL      0.883600
     13 O           0.0120    0.9450   -1.7150 o         1 4HL     -0.853300
     14 CG         -2.4590   -0.4060    0.3620 cc        1 4HL      0.023600
     15 CD1        -3.4600   -1.4780    0.0310 c         1 4HL      0.565500
     16 CD2        -1.2060   -0.7280    0.7690 cd        1 4HL     -0.356600
     17 CE1        -3.0740   -2.8210    0.3000 cc        1 4HL     -0.531200
     18 CE2        -0.7630   -2.0960    0.7970 cd        1 4HL      0.356600
     19 CZ         -1.8140   -3.2230    0.7180 cd        1 4HL      0.474000
     20 OH         -1.4150   -4.3800    1.0080 o         1 4HL     -0.713300
     21 OXT        -0.1530    2.1960    0.1060 o         1 4HL     -0.853300
     22 H11         2.5300   -1.9410   -0.9450 h1        1 4HL      0.094700
     23 H12         1.2850   -0.5860   -0.9240 h1        1 4HL      0.094700
     24 H3          1.4560   -0.8790    1.5790 hn        1 4HL      0.383800
     25 H4'         4.7310   -1.5660    0.2960 ha        1 4HL      0.180000
     26 H5'         6.5390    0.1340    0.6490 ha        1 4HL      0.136500
     27 H1'         3.6620    3.3010   -0.0660 ha        1 4HL      0.136500
     28 H2'         1.8530    1.6060   -0.4220 ha        1 4HL      0.180000
     29 H5          5.8800    3.5880    0.4120 ho        1 4HL      0.414000
     30 HA         -2.5070    2.7620   -0.9960 h1        1 4HL      0.058700
     31 HD2        -0.4890    0.0900    0.9930 ha        1 4HL      0.190000
     32 HE1        -3.8340   -3.6000    0.1570 ha        1 4HL      0.154000
     33 H4          0.7430   -3.4330    0.8840 hn        1 4HL      0.340700
     34 OX1        -4.5690   -1.1450   -0.4370 o         1 4HL     -0.601100
     35 CB         -2.8550    1.0170    0.2160 c3        1 4HL     -0.082200
     36 H          -1.9690    0.8680   -2.8710 hn        1 4HL      0.352800
     37 HB2        -2.4900    1.6030    1.1030 hc        1 4HL      0.075700
     38 HB3        -3.9740    1.0950    0.1610 hc        1 4HL      0.075700
     39 OH'         6.2380    2.6950    0.5140 oh        1 4HL     -0.514100
     40 H2         -3.3360    0.3700   -2.1360 hn        1 4HL      0.352800
@<TRIPOS>BOND
     1    1    2 1   
     2    1    9 1   
     3    1   22 1   
     4    1   23 1   
     5    2    3 1   
     6    2   24 1   
     7    3   18 2   
     8    3   33 1   
     9    4    5 ar  
    10    4    9 ar  
    11    4   25 1   
    12    5    6 ar  
    13    5   26 1   
    14    6    7 ar  
    15    6   39 1   
    16    7    8 ar  
    17    7   27 1   
    18    8    9 ar  
    19    8   28 1   
    20   10   11 1   
    21   10   36 1   
    22   10   40 1   
    23   11   12 1   
    24   11   30 1   
    25   11   35 1   
    26   12   13 1   
    27   12   21 1   
    28   14   15 1   
    29   14   16 2   
    30   14   35 1   
    31   15   17 1   
    32   15   34 2   
    33   16   18 1   
    34   16   31 1   
    35   17   19 2   
    36   17   32 1   
    37   18   19 1   
    38   19   20 1   
    39   29   39 1   
    40   35   37 1   
    41   35   38 1   
@<TRIPOS>SUBSTRUCTURE
     1 4HL         1 TEMP              0 ****  ****    0 ROOT
