@<TRIPOS>MOLECULE
4HL
   40    33     1     0     0
SMALL
bcc


@<TRIPOS>ATOM
      1 C1         -2.9870   -1.6420    0.9910 c3        1 4HL     -0.060000
      2 NX1        -1.5440   -1.6280    0.8370 n3        1 4HL     -0.179000
      3 NX2        -0.9670   -1.3240   -0.4230 n3        1 4HL     -0.132000
      4 C4'        -3.6030    0.6940    1.7880 c1        1 4HL     -0.079000
      5 C5'        -4.0960    1.5700    2.7490 c1        1 4HL     -0.218000
      6 C6'        -4.3860    1.1080    4.0290 c1        1 4HL      0.085000
      7 C1'        -4.1830   -0.2320    4.3460 c2        1 4HL     -0.147000
      8 C2'        -3.6900   -1.1070    3.3860 c1        1 4HL     -0.079000
      9 C3'        -3.4000   -0.6430    2.1050 c1        1 4HL     -0.164000
     10 OH'        -4.7590    2.0260    5.0440 o         1 4HL     -0.252000
     11 OX1         4.4580   -0.2020   -0.7780 o         1 4HL     -0.321000
     12 N           3.5230    1.9550   -4.5260 n3        1 4HL     -0.343000
     13 CA          3.8230    1.2420   -3.3370 c3        1 4HL     -0.122000
     14 C           5.3110    0.9840   -3.2670 c2        1 4HL      0.311000
     15 O           6.0450    1.7100   -2.5380 o         1 4HL     -0.560000
     16 CB          3.0740   -0.0900   -3.3390 c3        1 4HL     -0.154000
     17 CG          2.4090   -0.3200   -1.9410 c1        1 4HL      0.094000
     18 CD1         3.2560   -0.3070   -0.6920 c1        1 4HL      0.282000
     19 CD2         0.9270   -0.6390   -1.8490 c1        1 4HL     -0.284000
     20 CE1         2.6060   -0.5300    0.6700 c1        1 4HL     -0.489000
     21 CE2         0.3010   -0.9680   -0.4950 c1        1 4HL      0.169000
     22 CZ          1.1320   -0.8870    0.7580 c1        1 4HL      0.270000
     23 OH          0.5710   -1.2540    1.9970 os        1 4HL     -0.491000
     24 OXT         5.8060    0.0020   -3.8760 o         1 4HL     -0.560000
     25 H11        -3.2780   -2.5400    1.2380 h1        1 4HL      0.104000
     26 H12        -3.4070   -1.3830    0.1500 h1        1 4HL      0.104000
     27 H3         -0.9990   -1.8500    1.5530 hn        1 4HL      0.230000
     28 H4'        -3.4000    1.0170    0.8930 ha        1 4HL      0.127000
     29 H5'        -4.2380    2.5050    2.5270 ha        1 4HL      0.131000
     30 H1'        -4.3860   -0.5570    5.2470 ha        1 4HL      0.158000
     31 H2'        -3.5470   -2.0490    3.6090 ha        1 4HL      0.175000
     32 H5         -5.6310    2.1640    5.0100 ho        1 4HL      0.215000
     33 H           4.2480    1.9360   -5.0840 hn        1 4HL      0.133500
     34 H2          3.3180    2.8320   -4.3170 hn        1 4HL      0.133500
     35 HA          3.5490    1.7670   -2.5670 h1        1 4HL      0.099000
     36 HB2         2.3740   -0.0740   -4.0370 hc        1 4HL      0.124500
     37 HB3         3.7100   -0.8250   -3.5260 hc        1 4HL      0.124500
     38 HD2         0.3600   -0.5600   -2.6410 ha        1 4HL      0.153000
     39 HE1         3.1380   -0.4340    1.4890 ha        1 4HL      0.156000
     40 H4         -1.4370   -1.4680   -1.1800 hn        1 4HL      0.254000
@<TRIPOS>BOND
     1    1    2 1   
     2    1    9 1   
     3    1   25 1   
     4    1   26 1   
     5    2    3 1   
     6    2   27 1   
     7    3   21 1   
     8    3   40 1   
     9    4    9 1   
    10    4   28 1   
    11    5    6 1   
    12    5   29 1   
    13    6    7 1   
    14    7    8 1   
    15    7   30 1   
    16    8   31 1   
    17   10   32 1   
    18   11   18 1   
    19   12   13 1   
    20   12   33 1   
    21   12   34 1   
    22   13   14 1   
    23   13   16 1   
    24   13   35 1   
    25   14   15 1   
    26   14   24 1   
    27   16   17 1   
    28   16   36 1   
    29   16   37 1   
    30   17   19 1   
    31   19   38 1   
    32   20   22 1   
    33   20   39 1   
@<TRIPOS>SUBSTRUCTURE
     1 4HL         1 TEMP              0 ****  ****    0 ROOT
