@<TRIPOS>MOLECULE
4HM
   19    19     1     0     0
SMALL
bcc


@<TRIPOS>ATOM
      1 C1         -1.0690   -0.1020    1.2290 ca        1 4HM      0.092100
      2 C2          0.2840   -0.1260    0.8200 ca        1 4HM      0.066100
      3 C3          0.6180    0.0230   -0.5270 ca        1 4HM     -0.194000
      4 C4         -0.4170    0.1850   -1.4500 ca        1 4HM      0.060100
      5 C5         -1.7640    0.2110   -1.0670 ca        1 4HM     -0.140000
      6 C6         -2.0860    0.0680    0.2800 ca        1 4HM     -0.113000
      7 O7         -0.1840    0.3660   -2.8290 os        1 4HM     -0.116100
      8 O8          1.0370    0.1480   -3.1860 oh        1 4HM     -0.387000
      9 O9          1.2000   -0.3180    1.8400 os        1 4HM     -0.345900
     10 O10        -1.4560   -0.2510    2.5400 oh        1 4HM     -0.494100
     11 C11         2.5660   -0.1070    1.4970 c3        1 4HM      0.120700
     12 H3          1.6620    0.0220   -0.8700 ha        1 4HM      0.158000
     13 H5         -2.5490    0.3490   -1.8230 ha        1 4HM      0.154000
     14 H6         -3.1340    0.0870    0.6140 ha        1 4HM      0.158000
     15 H8          1.0960   -0.7860   -3.4930 ho        1 4HM      0.403000
     16 H10        -0.6550   -0.3080    3.0840 ho        1 4HM      0.436000
     17 HC1         3.0970   -0.2020    2.4780 h1        1 4HM      0.048033
     18 HC2         2.9110   -0.8940    0.7830 h1        1 4HM      0.048033
     19 HC3         2.7130    0.9110    1.0600 h1        1 4HM      0.048033
@<TRIPOS>BOND
     1    1    2 ar  
     2    1    6 ar  
     3    1   10 1   
     4    2    3 ar  
     5    2    9 1   
     6    3    4 ar  
     7    3   12 1   
     8    4    5 ar  
     9    4    7 1   
    10    5    6 ar  
    11    5   13 1   
    12    6   14 1   
    13    7    8 1   
    14    8   15 1   
    15    9   11 1   
    16   10   16 1   
    17   11   17 1   
    18   11   18 1   
    19   11   19 1   
@<TRIPOS>SUBSTRUCTURE
     1 4HM         1 TEMP              0 ****  ****    0 ROOT
