@<TRIPOS>MOLECULE
4HM
   19    19     1     0     0
SMALL
bcc


@<TRIPOS>ATOM
      1 C1         -0.0520    0.0490    0.0940 ca        1 4HM      0.092100
      2 C2          1.3520    0.1830    0.1940 ca        1 4HM      0.066100
      3 C3          1.9700    0.2290    1.4440 ca        1 4HM     -0.194000
      4 C4          1.1640    0.1470    2.5830 ca        1 4HM      0.060100
      5 C5         -0.2270    0.0140    2.5060 ca        1 4HM     -0.140000
      6 C6         -0.8330   -0.0370    1.2540 ca        1 4HM     -0.113000
      7 O7          1.6930    0.1600    3.8900 os        1 4HM     -0.116100
      8 O8          2.9440    0.4750    3.9450 oh        1 4HM     -0.387000
      9 O9          2.0180    0.2770   -1.0160 os        1 4HM     -0.345900
     10 O10        -0.7140    0.0060   -1.1110 oh        1 4HM     -0.494100
     11 C11         3.4370    0.1700   -0.9530 c3        1 4HM      0.120700
     12 H3          3.0600    0.3190    1.5510 ha        1 4HM      0.158000
     13 H5         -0.8260   -0.0550    3.4250 ha        1 4HM      0.154000
     14 H6         -1.9240   -0.1430    1.1590 ha        1 4HM      0.158000
     15 H8          3.0010    1.4430    4.1170 ho        1 4HM      0.403000
     16 H10        -0.0510    0.0240   -1.8180 ho        1 4HM      0.436000
     17 HC1         3.7430   -0.7730   -0.4400 h1        1 4HM      0.048033
     18 HC2         3.8680    1.0590   -0.4320 h1        1 4HM      0.048033
     19 HC3         3.7440    0.1570   -2.0300 h1        1 4HM      0.048033
@<TRIPOS>BOND
     1    1    2 ar  
     2    1    6 ar  
     3    1   10 1   
     4    2    3 ar  
     5    2    9 1   
     6    3    4 ar  
     7    3   12 1   
     8    4    5 ar  
     9    4    7 1   
    10    5    6 ar  
    11    5   13 1   
    12    6   14 1   
    13    7    8 1   
    14    8   15 1   
    15    9   11 1   
    16   10   16 1   
    17   11   17 1   
    18   11   18 1   
    19   11   19 1   
@<TRIPOS>SUBSTRUCTURE
     1 4HM         1 TEMP              0 ****  ****    0 ROOT
