@<TRIPOS>MOLECULE
4HM
   19    19     1     0     0
SMALL
bcc


@<TRIPOS>ATOM
      1 C1         -0.0290   -0.1060    0.0940 ca        1 4HM      0.092100
      2 C2          1.3670    0.0970    0.1980 ca        1 4HM      0.066100
      3 C3          1.9540    0.3390    1.4410 ca        1 4HM     -0.194000
      4 C4          1.1290    0.3650    2.5680 ca        1 4HM      0.060100
      5 C5         -0.2540    0.1650    2.4870 ca        1 4HM     -0.140000
      6 C6         -0.8310   -0.0680    1.2420 ca        1 4HM     -0.113000
      7 O7          1.6220    0.6230    3.8650 os        1 4HM     -0.116100
      8 O8          2.9100    0.6120    3.9450 oh        1 4HM     -0.387000
      9 O9          2.0600    0.0210   -0.9970 os        1 4HM     -0.345900
     10 O10        -0.6600   -0.3550   -1.1020 oh        1 4HM     -0.494100
     11 C11         3.4150    0.4540   -0.9580 c3        1 4HM      0.120700
     12 H3          3.0340    0.5130    1.5490 ha        1 4HM      0.158000
     13 H5         -0.8700    0.2010    3.3960 ha        1 4HM      0.154000
     14 H6         -1.9150   -0.2260    1.1440 ha        1 4HM      0.158000
     15 H8          3.1830   -0.2910    4.2290 ho        1 4HM      0.403000
     16 H10         0.0030   -0.3010   -1.8080 ho        1 4HM      0.436000
     17 HC1         4.0280   -0.2470   -0.3400 h1        1 4HM      0.048033
     18 HC2         3.4890    1.4950   -0.5600 h1        1 4HM      0.048033
     19 HC3         3.7320    0.4140   -2.0310 h1        1 4HM      0.048033
@<TRIPOS>BOND
     1    1    2 ar  
     2    1    6 ar  
     3    1   10 1   
     4    2    3 ar  
     5    2    9 1   
     6    3    4 ar  
     7    3   12 1   
     8    4    5 ar  
     9    4    7 1   
    10    5    6 ar  
    11    5   13 1   
    12    6   14 1   
    13    7    8 1   
    14    8   15 1   
    15    9   11 1   
    16   10   16 1   
    17   11   17 1   
    18   11   18 1   
    19   11   19 1   
@<TRIPOS>SUBSTRUCTURE
     1 4HM         1 TEMP              0 ****  ****    0 ROOT
