@<TRIPOS>MOLECULE
4HM
   19    16     1     0     0
SMALL
bcc


@<TRIPOS>ATOM
      1 C1         -1.1870    0.2160   -0.7640 c1        1 4HM      0.057600
      2 C2          0.2170    0.1920   -0.7800 c1        1 4HM      0.086600
      3 C3          0.9320    0.1320    0.4270 c1        1 4HM     -0.070500
      4 C4          0.2410    0.0960    1.6490 c1        1 4HM      0.030600
      5 C5         -1.1650    0.1200    1.6590 c1        1 4HM     -0.082500
      6 C6         -1.8740    0.1790    0.4540 c1        1 4HM     -0.116500
      7 O7          0.8880   -0.0640    2.7510 os        1 4HM     -0.099600
      8 O8          1.0220    1.2590    3.3700 oh        1 4HM     -0.385000
      9 O9          0.9020    0.2650   -2.0010 os        1 4HM     -0.311400
     10 O10        -1.9030    0.2600   -1.9740 oh        1 4HM     -0.477600
     11 C11         1.3420   -1.0030   -2.5090 c3        1 4HM      0.114700
     12 H3          1.9060    0.1170    0.4170 ha        1 4HM      0.109500
     13 H5         -1.6280    0.0970    2.4740 ha        1 4HM      0.097500
     14 H6         -2.8990    0.1950    0.4640 ha        1 4HM      0.081500
     15 H8          1.6830    1.2210    4.0430 ho        1 4HM      0.404000
     16 H10        -2.8480    0.6150   -1.8030 ho        1 4HM      0.420000
     17 HC1         1.1870   -1.7250   -1.8110 h1        1 4HM      0.047033
     18 HC2         2.3570   -0.9520   -2.7400 h1        1 4HM      0.047033
     19 HC3         0.8270   -1.2220   -3.3280 h1        1 4HM      0.047033
@<TRIPOS>BOND
     1    1    6 3   
     2    1   10 1   
     3    2    3 3   
     4    2    9 1   
     5    3   12 1   
     6    4    5 3   
     7    4    7 1   
     8    5   13 1   
     9    6   14 1   
    10    7    8 1   
    11    8   15 1   
    12    9   11 1   
    13   10   16 1   
    14   11   17 1   
    15   11   18 1   
    16   11   19 1   
@<TRIPOS>SUBSTRUCTURE
     1 4HM         1 TEMP              0 ****  ****    0 ROOT
