@<TRIPOS>MOLECULE
4HN
   45    48     1     0     0
SMALL
bcc


@<TRIPOS>ATOM
      1 C1         -3.0800   -2.5070    7.2300 cg        1 4HN      0.253800
      2 C2         -0.0790   -0.1090   -0.0410 ca        1 4HN     -0.164000
      3 C3          1.3130   -0.1050   -0.1080 ca        1 4HN     -0.090000
      4 C4         -0.7140   -0.0950    1.1980 ca        1 4HN     -0.089000
      5 C5         -1.8110    0.7680    3.8330 ca        1 4HN     -0.117500
      6 C6         -0.2830   -0.8740    4.7360 ca        1 4HN     -0.117500
      7 C7         -2.5110    0.7830    5.0370 ca        1 4HN     -0.095000
      8 C8         -0.9880   -0.8690    5.9370 ca        1 4HN     -0.095000
      9 C9          2.0720   -0.0920    1.0590 ca        1 4HN     -0.205000
     10 C10        -4.0130    2.4040    9.8150 ca        1 4HN     -0.281600
     11 C11        -4.6920    2.3970   11.0180 ca        1 4HN      0.401200
     12 C12        -4.9250    0.1050   11.0370 ca        1 4HN      0.434200
     13 C13        -3.3040   -1.2890    7.9150 ca        1 4HN     -0.178300
     14 C14        -4.2370   -0.0320    9.7900 ca        1 4HN     -0.347600
     15 C15        -0.6910   -0.0600    3.6690 cp        1 4HN     -0.002000
     16 C16        -2.1100   -0.0470    6.0910 cp        1 4HN     -0.173500
     17 C17         0.0190   -0.0790    2.3920 cp        1 4HN     -0.070000
     18 C18        -3.7600    1.1570    9.1530 ca        1 4HN      0.469600
     19 C19         1.4320   -0.0830    2.3060 ca        1 4HN      0.144100
     20 C20        -3.9930   -1.2740    9.1300 ca        1 4HN      0.229100
     21 C21        -2.8530   -0.0340    7.3670 cp        1 4HN      0.565800
     22 C22         3.9710    0.3780    4.8700 c3        1 4HN     -0.101100
     23 C23         3.5130    0.2170    3.4390 c3        1 4HN      0.128400
     24 N24        -2.9170   -3.5200    6.6810 n1        1 4HN     -0.353800
     25 N25        -5.1500    1.2630   11.6350 nb        1 4HN     -0.660000
     26 N26        -3.0790    1.1400    7.9580 nb        1 4HN     -0.683000
     27 O28         2.1150   -0.1010    3.5050 os        1 4HN     -0.330900
     28 H2         -0.6760   -0.1230   -0.9640 ha        1 4HN      0.136000
     29 H3          1.8180   -0.1160   -1.0860 ha        1 4HN      0.133000
     30 H4         -1.8150   -0.1030    1.2480 ha        1 4HN      0.139000
     31 H9          3.1690   -0.0950    0.9910 ha        1 4HN      0.138000
     32 H5         -2.1330    1.4220    3.0090 ha        1 4HN      0.145000
     33 H7         -3.3790    1.4480    5.1580 ha        1 4HN      0.142500
     34 H6          0.6070   -1.5130    4.6230 ha        1 4HN      0.145000
     35 H8         -0.6570   -1.5120    6.7670 ha        1 4HN      0.142500
     36 H10        -3.6640    3.3430    9.3610 ha        1 4HN      0.168000
     37 H11        -4.9080    3.3350   11.5610 h4        1 4HN      0.032100
     38 H12        -5.3090   -0.7860   11.5690 h4        1 4HN      0.015100
     39 H27        -4.8830   -2.3400   10.4550 ho        1 4HN      0.434000
     40 H221        5.0630    0.6090    4.8800 hc        1 4HN      0.050033
     41 H222        3.4150    1.2090    5.3670 hc        1 4HN      0.050033
     42 H223        3.7890   -0.5600    5.4470 hc        1 4HN      0.050033
     43 H231        3.6620    1.1630    2.8550 h1        1 4HN      0.039200
     44 H232        4.0540   -0.6270    2.9340 h1        1 4HN      0.039200
     45 O27        -4.4040   -2.4790    9.6240 oh        1 4HN     -0.468100
@<TRIPOS>BOND
     1    1   13 1   
     2    1   24 3   
     3    2    3 ar  
     4    2    4 ar  
     5    2   28 1   
     6    3    9 ar  
     7    3   29 1   
     8    4   17 ar  
     9    4   30 1   
    10    5    7 ar  
    11    5   15 ar  
    12    5   32 1   
    13    6    8 ar  
    14    6   15 ar  
    15    6   34 1   
    16    7   16 ar  
    17    7   33 1   
    18    8   16 ar  
    19    8   35 1   
    20    9   19 ar  
    21    9   31 1   
    22   10   11 ar  
    23   10   18 ar  
    24   10   36 1   
    25   11   25 ar  
    26   11   37 1   
    27   12   14 ar  
    28   12   25 ar  
    29   12   38 1   
    30   13   20 ar  
    31   13   21 ar  
    32   14   18 ar  
    33   14   20 ar  
    34   15   17 1   
    35   16   21 1   
    36   17   19 ar  
    37   18   26 ar  
    38   19   27 1   
    39   20   45 1   
    40   21   26 ar  
    41   22   23 1   
    42   22   40 1   
    43   22   41 1   
    44   22   42 1   
    45   23   27 1   
    46   23   43 1   
    47   23   44 1   
    48   39   45 1   
@<TRIPOS>SUBSTRUCTURE
     1 4HN         1 TEMP              0 ****  ****    0 ROOT
