@<TRIPOS>MOLECULE
4HN
   45    48     1     0     0
SMALL
bcc


@<TRIPOS>ATOM
      1 C1         -3.0640   -2.5130    7.2420 cg        1 4HN      0.253800
      2 C2         -0.0700   -0.1330   -0.0390 ca        1 4HN     -0.164000
      3 C3          1.3210   -0.1200   -0.1050 ca        1 4HN     -0.090000
      4 C4         -0.7080   -0.1170    1.1990 ca        1 4HN     -0.089000
      5 C5         -1.8140    0.7530    3.8280 ca        1 4HN     -0.117500
      6 C6         -0.2760   -0.8730    4.7420 ca        1 4HN     -0.117500
      7 C7         -2.5160    0.7690    5.0300 ca        1 4HN     -0.095000
      8 C8         -0.9810   -0.8670    5.9420 ca        1 4HN     -0.095000
      9 C9          2.0790   -0.0950    1.0640 ca        1 4HN     -0.205000
     10 C10        -4.0360    2.4060    9.7980 ca        1 4HN     -0.281600
     11 C11        -4.7160    2.4000   11.0000 ca        1 4HN      0.401200
     12 C12        -4.9330    0.1070   11.0320 ca        1 4HN      0.434200
     13 C13        -3.2980   -1.2920    7.9200 ca        1 4HN     -0.178300
     14 C14        -4.2420   -0.0320    9.7870 ca        1 4HN     -0.347600
     15 C15        -0.6870   -0.0690    3.6700 cp        1 4HN     -0.002000
     16 C16        -2.1100   -0.0520    6.0900 cp        1 4HN     -0.173500
     17 C17         0.0240   -0.0890    2.3940 cp        1 4HN     -0.070000
     18 C18        -3.7720    1.1570    9.1430 ca        1 4HN      0.469600
     19 C19         1.4370   -0.0830    2.3100 ca        1 4HN      0.144100
     20 C20        -3.9880   -1.2760    9.1340 ca        1 4HN      0.229100
     21 C21        -2.8540   -0.0370    7.3650 cp        1 4HN      0.565800
     22 C22         3.9690    0.4120    4.8750 c3        1 4HN     -0.101100
     23 C23         3.5140    0.2390    3.4440 c3        1 4HN      0.128400
     24 N24        -2.8920   -3.5270    6.6980 n1        1 4HN     -0.353800
     25 N25        -5.1660    1.2670   11.6230 nb        1 4HN     -0.660000
     26 N26        -3.0900    1.1380    7.9500 nb        1 4HN     -0.683000
     27 O28         2.1190   -0.0890    3.5100 os        1 4HN     -0.330900
     28 H2         -0.6670   -0.1580   -0.9620 ha        1 4HN      0.136000
     29 H3          1.8280   -0.1320   -1.0810 ha        1 4HN      0.133000
     30 H4         -1.8080   -0.1330    1.2470 ha        1 4HN      0.139000
     31 H9          3.1750   -0.0890    0.9970 ha        1 4HN      0.138000
     32 H5         -2.1390    1.3990    2.9990 ha        1 4HN      0.145000
     33 H7         -3.3890    1.4290    5.1470 ha        1 4HN      0.142500
     34 H6          0.6190   -1.5060    4.6340 ha        1 4HN      0.145000
     35 H8         -0.6470   -1.5030    6.7760 ha        1 4HN      0.142500
     36 H10        -3.6930    3.3450    9.3390 ha        1 4HN      0.168000
     37 H11        -4.9400    3.3400   11.5380 h4        1 4HN      0.032100
     38 H12        -5.3110   -0.7830   11.5680 h4        1 4HN      0.015100
     39 H27        -4.8720   -2.3400   10.4630 ho        1 4HN      0.434000
     40 H221        5.0590    0.6510    4.8850 hc        1 4HN      0.050033
     41 H222        3.4060    1.2410    5.3660 hc        1 4HN      0.050033
     42 H223        3.7930   -0.5240    5.4570 hc        1 4HN      0.050033
     43 H231        3.6560    1.1830    2.8550 h1        1 4HN      0.039200
     44 H232        4.0620   -0.6040    2.9440 h1        1 4HN      0.039200
     45 O27        -4.3910   -2.4810    9.6330 oh        1 4HN     -0.468100
@<TRIPOS>BOND
     1    1   13 1   
     2    1   24 3   
     3    2    3 ar  
     4    2    4 ar  
     5    2   28 1   
     6    3    9 ar  
     7    3   29 1   
     8    4   17 ar  
     9    4   30 1   
    10    5    7 ar  
    11    5   15 ar  
    12    5   32 1   
    13    6    8 ar  
    14    6   15 ar  
    15    6   34 1   
    16    7   16 ar  
    17    7   33 1   
    18    8   16 ar  
    19    8   35 1   
    20    9   19 ar  
    21    9   31 1   
    22   10   11 ar  
    23   10   18 ar  
    24   10   36 1   
    25   11   25 ar  
    26   11   37 1   
    27   12   14 ar  
    28   12   25 ar  
    29   12   38 1   
    30   13   20 ar  
    31   13   21 ar  
    32   14   18 ar  
    33   14   20 ar  
    34   15   17 1   
    35   16   21 1   
    36   17   19 ar  
    37   18   26 ar  
    38   19   27 1   
    39   20   45 1   
    40   21   26 ar  
    41   22   23 1   
    42   22   40 1   
    43   22   41 1   
    44   22   42 1   
    45   23   27 1   
    46   23   43 1   
    47   23   44 1   
    48   39   45 1   
@<TRIPOS>SUBSTRUCTURE
     1 4HN         1 TEMP              0 ****  ****    0 ROOT
