@<TRIPOS>MOLECULE
4HN
   45    48     1     0     0
SMALL
bcc


@<TRIPOS>ATOM
      1 C1          1.8870    1.6880   -1.8140 cg        1 4HN      0.233800
      2 C2         -5.7080   -1.4030   -1.8620 ca        1 4HN     -0.164000
      3 C3         -6.5840   -0.7950   -0.9650 ca        1 4HN     -0.090000
      4 C4         -4.3330   -1.2720   -1.6870 ca        1 4HN     -0.089000
      5 C5         -1.5450   -1.5590   -0.6670 ca        1 4HN     -0.117000
      6 C6         -1.7430    0.7960   -0.1600 ca        1 4HN     -0.117000
      7 C7         -0.1610   -1.4710   -0.5510 ca        1 4HN     -0.097000
      8 C8         -0.3590    0.8900   -0.0540 ca        1 4HN     -0.097000
      9 C9         -6.0900   -0.0520    0.1040 ca        1 4HN     -0.205000
     10 C10         4.6190   -1.7660    1.6880 ca        1 4HN     -0.293600
     11 C11         5.9930   -1.6380    1.7870 ca        1 4HN      0.409200
     12 C12         6.0950    0.0990    0.2790 ca        1 4HN      0.462200
     13 C13         2.6000    0.8510   -0.9230 ca        1 4HN     -0.243300
     14 C14         4.6790    0.0700    0.0860 ca        1 4HN     -0.311600
     15 C15        -2.3520   -0.4270   -0.4740 cp        1 4HN     -0.003000
     16 C16         0.4400   -0.2410   -0.2580 cp        1 4HN     -0.173500
     17 C17        -3.8020   -0.5340   -0.6210 cp        1 4HN     -0.070000
     18 C18         3.9050   -0.8890    0.8090 ca        1 4HN      0.466600
     19 C19        -4.7050    0.0840    0.2770 ca        1 4HN      0.143100
     20 C20         3.9850    0.9490   -0.8000 ca        1 4HN      0.245100
     21 C21         1.9100   -0.1450   -0.1370 cp        1 4HN      0.570800
     22 C22        -4.1220    1.7360    3.4640 c3        1 4HN     -0.101100
     23 C23        -5.0120    1.1680    2.3830 c3        1 4HN      0.128400
     24 N24         1.3090    2.3730   -2.5570 n1        1 4HN     -0.354800
     25 N25         6.7380   -0.7200    1.0970 nb        1 4HN     -0.671000
     26 N26         2.5350   -0.9830    0.6870 nb        1 4HN     -0.681000
     27 O28        -4.1410    0.8300    1.2920 os        1 4HN     -0.330900
     28 H2         -6.1000   -1.9860   -2.7070 ha        1 4HN      0.136000
     29 H3         -7.6710   -0.8970   -1.0990 ha        1 4HN      0.133000
     30 H4         -3.6430   -1.7500   -2.4010 ha        1 4HN      0.138000
     31 H9         -6.7920    0.4260    0.8010 ha        1 4HN      0.138000
     32 H5         -2.0110   -2.5290   -0.8990 ha        1 4HN      0.145500
     33 H7          0.4600   -2.3700   -0.6880 ha        1 4HN      0.141000
     34 H6         -2.3700    1.6850    0.0130 ha        1 4HN      0.145500
     35 H8          0.1060    1.8560    0.1950 ha        1 4HN      0.141000
     36 H10         4.0720   -2.5230    2.2690 ha        1 4HN      0.166000
     37 H11         6.5800   -2.2960    2.4550 h4        1 4HN      0.029100
     38 H12         6.7000    0.8410   -0.2790 h4        1 4HN      0.041100
     39 H27         4.1930    2.3830   -2.0570 ho        1 4HN      0.445000
     40 H221       -4.7520    2.0350    4.3350 hc        1 4HN      0.050033
     41 H222       -3.3750    0.9750    3.7950 hc        1 4HN      0.050033
     42 H223       -3.5690    2.6290    3.0870 hc        1 4HN      0.050033
     43 H231       -5.5500    0.2510    2.7390 h1        1 4HN      0.039200
     44 H232       -5.7560    1.9300    2.0300 h1        1 4HN      0.039200
     45 O27         4.7590    1.8430   -1.4800 oh        1 4HN     -0.478100
@<TRIPOS>BOND
     1    1   13 1   
     2    1   24 3   
     3    2    3 ar  
     4    2    4 ar  
     5    2   28 1   
     6    3    9 ar  
     7    3   29 1   
     8    4   17 ar  
     9    4   30 1   
    10    5    7 ar  
    11    5   15 ar  
    12    5   32 1   
    13    6    8 ar  
    14    6   15 ar  
    15    6   34 1   
    16    7   16 ar  
    17    7   33 1   
    18    8   16 ar  
    19    8   35 1   
    20    9   19 ar  
    21    9   31 1   
    22   10   11 ar  
    23   10   18 ar  
    24   10   36 1   
    25   11   25 ar  
    26   11   37 1   
    27   12   14 ar  
    28   12   25 ar  
    29   12   38 1   
    30   13   20 ar  
    31   13   21 ar  
    32   14   18 ar  
    33   14   20 ar  
    34   15   17 1   
    35   16   21 1   
    36   17   19 ar  
    37   18   26 ar  
    38   19   27 1   
    39   20   45 1   
    40   21   26 ar  
    41   22   23 1   
    42   22   40 1   
    43   22   41 1   
    44   22   42 1   
    45   23   27 1   
    46   23   43 1   
    47   23   44 1   
    48   39   45 1   
@<TRIPOS>SUBSTRUCTURE
     1 4HN         1 TEMP              0 ****  ****    0 ROOT
