@<TRIPOS>MOLECULE
4HN
   45    39     1     0     0
SMALL
bcc


@<TRIPOS>ATOM
      1 C1         -4.1560   -1.3090    0.0100 c1        1 4HN     -0.094000
      2 C2          1.9540   -1.1130   -4.8790 c1        1 4HN     -0.113000
      3 C3          3.2650   -0.6860   -5.0160 c1        1 4HN     -0.113000
      4 C4          1.2480   -0.8230   -3.7220 c1        1 4HN     -0.089000
      5 C5         -0.0370    0.9200   -1.4040 c1        1 4HN     -0.113000
      6 C6          0.7120   -1.2780   -0.7960 c1        1 4HN     -0.125000
      7 C7         -0.9990    0.8680   -0.4070 c1        1 4HN     -0.113000
      8 C8         -0.2500   -1.3310    0.2010 c1        1 4HN     -0.105000
      9 C9          3.8700    0.0320   -3.9970 c1        1 4HN     -0.205000
     10 C10        -2.3590    0.6230    4.9780 c1        1 4HN     -0.164000
     11 C11        -3.2980    0.7040    6.0010 c1        1 4HN     -0.056000
     12 C12        -4.9800   -0.0840    4.5260 c1        1 4HN     -0.003000
     13 C13        -3.4960   -0.6870    1.2220 c1        1 4HN     -0.174000
     14 C14        -4.0330   -0.1670    3.4880 c1        1 4HN     -0.181000
     15 C15         0.8190   -0.1530   -1.5980 c1        1 4HN     -0.003000
     16 C16        -1.1050   -0.2570    0.3950 c1        1 4HN     -0.066000
     17 C17         1.8530   -0.1060   -2.7020 c2        1 4HN     -0.071000
     18 C18        -2.7410    0.1840    3.7200 c1        1 4HN      0.073000
     19 C19         3.1650    0.3220   -2.8390 c2        1 4HN      0.098000
     20 C20        -4.4170   -0.6080    2.2260 c2        1 4HN      0.200000
     21 C21        -2.1800   -0.3290    1.4610 c2        1 4HN      0.135000
     22 C22         5.3380    1.6080   -0.2080 c3        1 4HN     -0.219000
     23 C23         4.8280    1.4710   -1.6260 c3        1 4HN     -0.022000
     24 N24        -4.6520   -1.7780   -0.9040 n1        1 4HN     -0.031000
     25 N25        -4.6010    0.3500    5.7660 n1        1 4HN     -0.145000
     26 N26        -1.8050    0.1020    2.6960 n2        1 4HN     -0.154000
     27 O27        -5.7340   -1.0410    1.9810 oh        1 4HN     -0.232000
     28 O28         3.5480    0.8820   -1.6100 os        1 4HN     -0.214000
     29 H2          1.5270   -1.6180   -5.5970 ha        1 4HN      0.141500
     30 H3          3.7620   -0.8900   -5.8310 ha        1 4HN      0.141500
     31 H4          0.3240   -1.1240   -3.6250 ha        1 4HN      0.140000
     32 H9          4.7940    0.3330   -4.0930 ha        1 4HN      0.138000
     33 H5          0.0380    1.7130   -1.9690 ha        1 4HN      0.141500
     34 H7         -1.6020    1.6240   -0.2700 ha        1 4HN      0.141500
     35 H6          1.3150   -2.0340   -0.9330 ha        1 4HN      0.139000
     36 H8         -0.3240   -2.1230    0.7660 ha        1 4HN      0.138000
     37 H10        -1.4310    0.8760    5.1460 ha        1 4HN      0.165000
     38 H11        -3.0290    1.0130    6.8870 ha        1 4HN      0.166000
     39 H12        -5.9090   -0.3360    4.3600 ha        1 4HN      0.178000
     40 H27        -5.7800   -1.9230    2.0830 ho        1 4HN      0.244000
     41 H221        5.0120    0.8560    0.3300 hc        1 4HN      0.089667
     42 H222        5.0140    2.4490    0.1760 hc        1 4HN      0.089667
     43 H223        6.3180    1.6060   -0.2120 hc        1 4HN      0.089667
     44 H231        5.4410    0.9070   -2.1410 h1        1 4HN      0.078000
     45 H232        4.7740    2.3570   -2.0400 h1        1 4HN      0.078000
@<TRIPOS>BOND
     1    1   24 1   
     2    2    3 1   
     3    2   29 1   
     4    3   30 1   
     5    4   17 1   
     6    4   31 1   
     7    5    7 1   
     8    5   33 1   
     9    6   15 1   
    10    6   35 1   
    11    7   34 1   
    12    8   16 1   
    13    8   36 1   
    14    9   19 1   
    15    9   32 1   
    16   10   18 1   
    17   10   37 1   
    18   11   25 1   
    19   11   38 1   
    20   12   14 1   
    21   12   39 1   
    22   13   20 1   
    23   13   21 1   
    24   14   20 1   
    25   15   17 1   
    26   16   21 1   
    27   17   19 1   
    28   18   26 1   
    29   19   28 1   
    30   20   27 1   
    31   21   26 1   
    32   22   23 1   
    33   22   41 1   
    34   22   42 1   
    35   22   43 1   
    36   23   28 1   
    37   23   44 1   
    38   23   45 1   
    39   27   40 1   
@<TRIPOS>SUBSTRUCTURE
     1 4HN         1 TEMP              0 ****  ****    0 ROOT
