@<TRIPOS>MOLECULE
4HO
   16    16     1     0     0
SMALL
bcc


@<TRIPOS>ATOM
      1 O2         -0.0400   -0.2570   -0.1810 o         1 4HO     -0.645500
      2 C1          1.1950   -0.1550   -0.0520 c         1 4HO      0.680700
      3 C2          1.9400   -0.1200    1.1970 cc        1 4HO     -0.266200
      4 C3          3.3010   -0.0180    1.2180 cd        1 4HO      0.028800
      5 C6          4.0620    0.0270    2.4880 c3        1 4HO     -0.069900
      6 C4          4.0270    0.0560   -0.0130 cd        1 4HO     -0.255000
      7 C5          3.3560    0.0320   -1.2100 cc        1 4HO      0.037600
      8 N1          1.9820   -0.1230   -1.2420 n         1 4HO     -0.219500
      9 O1          1.4000    0.0210   -2.4300 oh        1 4HO     -0.397100
     10 H1          1.3280   -0.1600    2.1090 ha        1 4HO      0.167000
     11 H2          4.7720   -0.8360    2.5380 hc        1 4HO      0.055033
     12 H3          4.6560    0.9740    2.5450 hc        1 4HO      0.055033
     13 H4          3.3820   -0.0190    3.3740 hc        1 4HO      0.055033
     14 H5          5.1210    0.1400    0.0030 ha        1 4HO      0.155000
     15 H6          3.8580    0.1150   -2.1900 h4        1 4HO      0.171000
     16 H7          0.5360   -0.4470   -2.3720 ho        1 4HO      0.448000
@<TRIPOS>BOND
     1    1    2 2   
     2    2    3 1   
     3    2    8 1   
     4    3    4 2   
     5    3   10 1   
     6    4    5 1   
     7    4    6 1   
     8    5   11 1   
     9    5   12 1   
    10    5   13 1   
    11    6    7 2   
    12    6   14 1   
    13    7    8 1   
    14    7   15 1   
    15    8    9 1   
    16    9   16 1   
@<TRIPOS>SUBSTRUCTURE
     1 4HO         1 TEMP              0 ****  ****    0 ROOT
