@<TRIPOS>MOLECULE
4HO
   16    16     1     0     0
SMALL
bcc


@<TRIPOS>ATOM
      1 O2         -0.0400   -0.2690   -0.1790 o         1 4HO     -0.645500
      2 C1          1.1950   -0.1620   -0.0500 c         1 4HO      0.680700
      3 C2          1.9410   -0.1260    1.1980 cc        1 4HO     -0.266200
      4 C3          3.3020   -0.0180    1.2180 cd        1 4HO      0.028800
      5 C6          4.0640    0.0270    2.4870 c3        1 4HO     -0.069900
      6 C4          4.0270    0.0630   -0.0140 cd        1 4HO     -0.255000
      7 C5          3.3530    0.0390   -1.2100 cc        1 4HO      0.037600
      8 N1          1.9800   -0.1220   -1.2420 n         1 4HO     -0.219500
      9 O1          1.3970    0.0220   -2.4290 oh        1 4HO     -0.397100
     10 H1          1.3310   -0.1710    2.1110 ha        1 4HO      0.167000
     11 H2          3.3850   -0.0250    3.3730 hc        1 4HO      0.055033
     12 H3          4.6540    0.9760    2.5460 hc        1 4HO      0.055033
     13 H4          4.7780   -0.8330    2.5340 hc        1 4HO      0.055033
     14 H5          5.1200    0.1520    0.0010 ha        1 4HO      0.155000
     15 H6          3.8540    0.1270   -2.1910 h4        1 4HO      0.171000
     16 H7          0.5350   -0.4500   -2.3710 ho        1 4HO      0.448000
@<TRIPOS>BOND
     1    1    2 2   
     2    2    3 1   
     3    2    8 1   
     4    3    4 2   
     5    3   10 1   
     6    4    5 1   
     7    4    6 1   
     8    5   11 1   
     9    5   12 1   
    10    5   13 1   
    11    6    7 2   
    12    6   14 1   
    13    7    8 1   
    14    7   15 1   
    15    8    9 1   
    16    9   16 1   
@<TRIPOS>SUBSTRUCTURE
     1 4HO         1 TEMP              0 ****  ****    0 ROOT
