@<TRIPOS>MOLECULE
4HP
   18    18     1     0     0
SMALL
bcc


@<TRIPOS>ATOM
      1 C8          0.5460    0.1720    2.5350 c         1 4HP      0.917600
      2 O1          1.7850    0.3730    2.3800 o         1 4HP     -0.842300
      3 O2         -0.1680    0.7670    3.3880 o         1 4HP     -0.842300
      4 C7         -0.1370   -0.9090    1.6640 c3        1 4HP     -0.171100
      5 C1         -0.1580   -0.5880    0.2170 ca        1 4HP     -0.044300
      6 C2          0.9940   -0.0930   -0.4150 ca        1 4HP     -0.107500
      7 C3          0.9950    0.1770   -1.7790 ca        1 4HP     -0.192500
      8 C4         -0.1720   -0.0450   -2.5260 ca        1 4HP      0.077100
      9 C5         -1.3340   -0.5260   -1.9130 ca        1 4HP     -0.192500
     10 C6         -1.3150   -0.7920   -0.5450 ca        1 4HP     -0.107500
     11 O4         -0.2340    0.1910   -3.8890 oh        1 4HP     -0.523100
     12 H71         0.4360   -1.8620    1.8120 hc        1 4HP      0.036700
     13 H72        -1.1790   -1.0650    2.0440 hc        1 4HP      0.036700
     14 H2          1.8870    0.1020    0.2110 ha        1 4HP      0.157000
     15 H3          1.8960    0.5690   -2.2680 ha        1 4HP      0.119000
     16 H5         -2.2410   -0.6850   -2.5100 ha        1 4HP      0.119000
     17 H6         -2.2290   -1.1610   -0.0560 ha        1 4HP      0.157000
     18 HO4         0.6110    0.5820   -4.1480 ho        1 4HP      0.403000
@<TRIPOS>BOND
     1    1    2 1   
     2    1    3 1   
     3    1    4 1   
     4    4    5 1   
     5    4   12 1   
     6    4   13 1   
     7    5    6 ar  
     8    5   10 ar  
     9    6    7 ar  
    10    6   14 1   
    11    7    8 ar  
    12    7   15 1   
    13    8    9 ar  
    14    8   11 1   
    15    9   10 ar  
    16    9   16 1   
    17   10   17 1   
    18   11   18 1   
@<TRIPOS>SUBSTRUCTURE
     1 4HP         1 TEMP              0 ****  ****    0 ROOT
