@<TRIPOS>MOLECULE
4HP
   18    15     1     0     0
SMALL
bcc


@<TRIPOS>ATOM
      1 C8          1.3870    2.3380   -1.0180 c1        1 4HP      0.337000
      2 O1          0.7450    3.3910   -1.2690 o         1 4HP     -0.588000
      3 O2          2.1300    1.8280   -1.8980 os        1 4HP     -0.566000
      4 C7          1.2560    1.6760    0.3360 c3        1 4HP     -0.207000
      5 C1          0.3840    0.4460    0.2130 c2        1 4HP     -0.037000
      6 C2         -0.9960    0.5750    0.1760 c1        1 4HP     -0.089000
      7 C3         -1.7960   -0.5540    0.0990 c1        1 4HP     -0.216000
      8 C4         -1.2170   -1.8130    0.0590 c1        1 4HP      0.032000
      9 C5          0.1630   -1.9420    0.0960 c1        1 4HP     -0.169000
     10 C6          0.9630   -0.8130    0.1730 c2        1 4HP     -0.126000
     11 O4         -2.0300   -2.9600    0.0160 oh        1 4HP     -0.277000
     12 H71         0.8480    2.3020    0.9670 hc        1 4HP      0.076000
     13 H72         2.1410    1.4160    0.6600 hc        1 4HP      0.076000
     14 H2         -1.4040    1.4610    0.2040 ha        1 4HP      0.192000
     15 H3         -2.7680   -0.4630    0.0730 ha        1 4HP      0.114000
     16 H5          0.5700   -2.8290    0.0800 ha        1 4HP      0.124000
     17 H6          1.9340   -0.9040    0.1990 ha        1 4HP      0.122000
     18 HO4        -2.3100   -3.1560    0.8370 ho        1 4HP      0.202000
@<TRIPOS>BOND
     1    1    2 1   
     2    1    4 1   
     3    4    5 1   
     4    4   12 1   
     5    4   13 1   
     6    5    6 1   
     7    5   10 1   
     8    6   14 1   
     9    7    8 1   
    10    7   15 1   
    11    8   11 1   
    12    9   10 1   
    13    9   16 1   
    14   10   17 1   
    15   11   18 1   
@<TRIPOS>SUBSTRUCTURE
     1 4HP         1 TEMP              0 ****  ****    0 ROOT
