@<TRIPOS>MOLECULE
4HP
   18    18     1     0     0
SMALL
bcc


@<TRIPOS>ATOM
      1 C8         -0.2040    0.3880    0.0200 c         1 4HP      0.917600
      2 O1          0.0390   -0.2910    1.0550 o         1 4HP     -0.842300
      3 O2         -0.1650    1.6520   -0.0270 o         1 4HP     -0.842300
      4 C7         -0.6260   -0.3820   -1.2540 c3        1 4HP     -0.171100
      5 C1          0.3270   -0.2450   -2.3800 ca        1 4HP     -0.044300
      6 C2          0.6970   -1.3590   -3.1440 ca        1 4HP     -0.107500
      7 C3          1.5660   -1.2360   -4.2280 ca        1 4HP     -0.192500
      8 C4          2.0730    0.0290   -4.5480 ca        1 4HP      0.077100
      9 C5          1.7250    1.1560   -3.7880 ca        1 4HP     -0.192500
     10 C6          0.8590    1.0120   -2.7110 ca        1 4HP     -0.107500
     11 O4          2.9210    0.1060   -5.6400 oh        1 4HP     -0.523100
     12 H71        -1.6200    0.0290   -1.5730 hc        1 4HP      0.036700
     13 H72        -0.7630   -1.4610   -0.9880 hc        1 4HP      0.036700
     14 H2          0.3030   -2.3520   -2.8820 ha        1 4HP      0.157000
     15 H3          1.8560   -2.1080   -4.8260 ha        1 4HP      0.119000
     16 H5          2.1420    2.1400   -4.0390 ha        1 4HP      0.119000
     17 H6          0.5880    1.8750   -2.0710 ha        1 4HP      0.157000
     18 HO4         3.2400    1.0170   -5.6880 ho        1 4HP      0.403000
@<TRIPOS>BOND
     1    1    2 1   
     2    1    3 1   
     3    1    4 1   
     4    4    5 1   
     5    4   12 1   
     6    4   13 1   
     7    5    6 ar  
     8    5   10 ar  
     9    6    7 ar  
    10    6   14 1   
    11    7    8 ar  
    12    7   15 1   
    13    8    9 ar  
    14    8   11 1   
    15    9   10 ar  
    16    9   16 1   
    17   10   17 1   
    18   11   18 1   
@<TRIPOS>SUBSTRUCTURE
     1 4HP         1 TEMP              0 ****  ****    0 ROOT
