@<TRIPOS>MOLECULE
4HS
   12    12     1     0     0
SMALL
bcc


@<TRIPOS>ATOM
      1 C1         -0.0170    0.0010   -0.0090 cc        1 4HS      0.049600
      2 C2          2.1030    0.0010    1.1760 c         1 4HS      0.682700
      3 C3          1.3360    0.0060    2.4220 cc        1 4HS     -0.252200
      4 C4         -0.0210    0.0090    2.4140 cd        1 4HS     -0.018000
      5 O           3.3450   -0.0020    1.0890 o         1 4HS     -0.627500
      6 N           1.3520   -0.0010   -0.0210 n         1 4HS     -0.436100
      7 C          -0.7330    0.0060    1.1700 cd        1 4HS     -0.177300
      8 BR         -2.5920    0.0090    1.1530 br        1 4HS     -0.047700
      9 H1         -0.5140   -0.0010   -0.9990 h4        1 4HS      0.165000
     10 H2          1.9300    0.0080    3.3460 ha        1 4HS      0.169000
     11 H4         -0.5940    0.0120    3.3550 ha        1 4HS      0.154000
     12 H3          1.8410   -0.0050   -0.8900 hn        1 4HS      0.337500
@<TRIPOS>BOND
     1    1    6 1   
     2    1    7 2   
     3    1    9 1   
     4    2    3 1   
     5    2    5 2   
     6    2    6 1   
     7    3    4 2   
     8    3   10 1   
     9    4    7 1   
    10    4   11 1   
    11    6   12 1   
    12    7    8 1   
@<TRIPOS>SUBSTRUCTURE
     1 4HS         1 TEMP              0 ****  ****    0 ROOT
