@<TRIPOS>MOLECULE
4HT
   27    28     1     0     0
SMALL
bcc


@<TRIPOS>ATOM
      1 N          -1.7450    4.0500    6.2070 n3        1 4HT     -0.894800
      2 CA         -1.2700    2.8580    5.5130 c3        1 4HT      0.016500
      3 C          -1.1810    3.0190    3.9580 c         1 4HT      0.890600
      4 O          -1.2110    4.1910    3.4890 o         1 4HT     -0.847300
      5 CB         -2.1110    1.6170    5.8570 c3        1 4HT      0.002800
      6 CG         -1.2660    0.4310    6.0710 cc        1 4HT     -0.119400
      7 CD1        -0.7360   -0.3410    5.0380 cd        1 4HT     -0.088100
      8 NE1        -0.0580   -1.4500    5.5630 na        1 4HT     -0.201400
      9 CE2        -0.0810   -1.3570    6.9570 ca        1 4HT     -0.031200
     10 CD2        -0.8430   -0.1780    7.3160 ca        1 4HT     -0.150800
     11 CE3        -0.9800    0.1330    8.6760 ca        1 4HT      0.177100
     12 OE3        -1.6340    1.2530    9.1310 oh        1 4HT     -0.520100
     13 CZ3        -0.4390   -0.7200    9.6450 ca        1 4HT     -0.215000
     14 CH2         0.2610   -1.8720    9.2660 ca        1 4HT     -0.100000
     15 CZ2         0.4620   -2.2060    7.9350 ca        1 4HT     -0.193000
     16 OXT        -1.0650    1.9770    3.2520 o         1 4HT     -0.847300
     17 H          -2.7010    4.2120    5.9430 hn        1 4HT      0.333800
     18 H2         -1.2190    4.8310    5.8500 hn        1 4HT      0.333800
     19 HA         -0.2110    2.6890    5.8670 h1        1 4HT      0.048700
     20 HB2        -2.7620    1.7880    6.7550 hc        1 4HT      0.041700
     21 HB3        -2.7990    1.4140    4.9890 hc        1 4HT      0.041700
     22 HD1        -0.7970   -0.1280    3.9600 h4        1 4HT      0.225000
     23 HE1         0.5500   -2.0320    5.0560 hn        1 4HT      0.282700
     24 HE3        -1.7110    1.8750    8.3860 ho        1 4HT      0.450000
     25 HZ3        -0.5640   -0.4700   10.7070 ha        1 4HT      0.131000
     26 HH2         0.6720   -2.5220   10.0530 ha        1 4HT      0.112000
     27 HZ2         1.0280   -3.1010    7.6530 ha        1 4HT      0.117000
@<TRIPOS>BOND
     1    1    2 1   
     2    1   17 1   
     3    1   18 1   
     4    2    3 1   
     5    2    5 1   
     6    2   19 1   
     7    3    4 1   
     8    3   16 1   
     9    5    6 1   
    10    5   20 1   
    11    5   21 1   
    12    6    7 2   
    13    6   10 1   
    14    7    8 1   
    15    7   22 1   
    16    8    9 1   
    17    8   23 1   
    18    9   10 ar  
    19    9   15 ar  
    20   10   11 ar  
    21   11   12 1   
    22   11   13 ar  
    23   12   24 1   
    24   13   14 ar  
    25   13   25 1   
    26   14   15 ar  
    27   14   26 1   
    28   15   27 1   
@<TRIPOS>SUBSTRUCTURE
     1 4HT         1 TEMP              0 ****  ****    0 ROOT
