@<TRIPOS>MOLECULE
4HV
   52    54     1     0     0
SMALL
bcc


@<TRIPOS>ATOM
      1 C1          8.0040   -0.5240   -1.9750 c3        1 4HV      0.109700
      2 O2          7.3940    0.0750   -0.8370 os        1 4HV     -0.300900
      3 C3          6.0370   -0.1280   -0.7040 ca        1 4HV      0.115100
      4 C4          5.2470   -0.8690   -1.5830 ca        1 4HV     -0.184000
      5 C5          3.8790   -1.0090   -1.3480 ca        1 4HV     -0.104000
      6 C6          3.2860   -0.4110   -0.2320 ca        1 4HV     -0.131500
      7 C7          4.0730    0.3390    0.6610 ca        1 4HV     -0.156000
      8 C8          5.4380    0.4830    0.4330 ca        1 4HV      0.101100
      9 O9          6.3020    1.1920    1.2440 os        1 4HV     -0.303900
     10 C10         5.7130    1.8350    2.3690 c3        1 4HV      0.109700
     11 C11         1.8710   -0.5670   -0.0070 cc        1 4HV      0.306200
     12 C12         0.8640   -1.2160   -0.7020 cd        1 4HV     -0.202300
     13 C13        -0.3590   -1.0070    0.0440 cd        1 4HV     -0.277900
     14 C14        -0.0270   -0.2400    1.1490 cc        1 4HV      0.290600
     15 O15         1.3300    0.0440    1.1440 os        1 4HV     -0.355800
     16 C16        -1.6640   -1.5350   -0.3720 c         1 4HV      0.705700
     17 O17        -1.8300   -2.0770   -1.4850 o         1 4HV     -0.611100
     18 N18        -2.7180   -1.3830    0.5140 n         1 4HV     -0.558900
     19 C19        -4.0220   -1.9380    0.2570 c3        1 4HV      0.108700
     20 C21        -5.1610   -0.9470    0.5670 c3        1 4HV     -0.048100
     21 C22        -5.0610    0.3220   -0.2000 ca        1 4HV     -0.075300
     22 C23        -5.1010    0.3150   -1.6000 ca        1 4HV     -0.099000
     23 C24        -5.0260    1.5090   -2.3150 ca        1 4HV     -0.130000
     24 C25        -4.9130    2.7250   -1.6450 ca        1 4HV     -0.092000
     25 C26        -4.8750    2.7410   -0.2440 ca        1 4HV     -0.020000
     26 C27        -4.9480    1.5410    0.4770 ca        1 4HV     -0.090000
     27 C28        -4.7590    3.9760    0.4500 cg        1 4HV      0.235800
     28 N29        -4.6640    4.9870    1.0190 n1        1 4HV     -0.368800
     29 C30        -4.2890   -3.2350    1.0590 c3        1 4HV      0.102400
     30 O31        -4.2170   -2.9200    2.4400 oh        1 4HV     -0.610800
     31 H19        -4.0720   -2.2160   -0.8410 h1        1 4HV      0.092700
     32 H1          9.0790   -0.2270   -1.8750 h1        1 4HV      0.045700
     33 H1A         7.8980   -1.6350   -1.9420 h1        1 4HV      0.045700
     34 H1B         7.5680   -0.1160   -2.9190 h1        1 4HV      0.045700
     35 H4          5.6930   -1.3470   -2.4670 ha        1 4HV      0.143000
     36 H5          3.2660   -1.5950   -2.0500 ha        1 4HV      0.141000
     37 H7          3.5930    0.8050    1.5350 ha        1 4HV      0.154000
     38 H10         6.5830    2.3460    2.8550 h1        1 4HV      0.045700
     39 H10A        4.9480    2.5800    2.0440 h1        1 4HV      0.045700
     40 H10B        5.2610    1.0840    3.0610 h1        1 4HV      0.045700
     41 H12         0.9330   -1.7780   -1.6310 ha        1 4HV      0.183000
     42 H14        -0.5730    0.1860    1.9870 h4        1 4HV      0.058100
     43 HN18       -2.5380   -1.0990    1.4480 hn        1 4HV      0.315500
     44 H21        -6.1280   -1.4560    0.3060 hc        1 4HV      0.064200
     45 H21A       -5.1770   -0.7430    1.6710 hc        1 4HV      0.064200
     46 H23        -5.1850   -0.6420   -2.1380 ha        1 4HV      0.141000
     47 H24        -5.0530    1.4910   -3.4150 ha        1 4HV      0.141000
     48 H25        -4.8530    3.6680   -2.2100 ha        1 4HV      0.145000
     49 H27        -4.9180    1.5610    1.5770 ha        1 4HV      0.142000
     50 H30        -5.3130   -3.6190    0.8060 h1        1 4HV      0.035700
     51 H30A       -3.5270   -4.0160    0.7990 h1        1 4HV      0.035700
     52 HO31       -4.3200   -3.7500    2.9180 ho        1 4HV      0.407000
@<TRIPOS>BOND
     1    1    2 1   
     2    1   32 1   
     3    1   33 1   
     4    1   34 1   
     5    2    3 1   
     6    3    4 ar  
     7    3    8 ar  
     8    4    5 ar  
     9    4   35 1   
    10    5    6 ar  
    11    5   36 1   
    12    6    7 ar  
    13    6   11 1   
    14    7    8 ar  
    15    7   37 1   
    16    8    9 1   
    17    9   10 1   
    18   10   38 1   
    19   10   39 1   
    20   10   40 1   
    21   11   12 2   
    22   11   15 1   
    23   12   13 1   
    24   12   41 1   
    25   13   14 2   
    26   13   16 1   
    27   14   15 1   
    28   14   42 1   
    29   16   17 2   
    30   16   18 1   
    31   18   19 1   
    32   18   43 1   
    33   19   20 1   
    34   19   29 1   
    35   19   31 1   
    36   20   21 1   
    37   20   44 1   
    38   20   45 1   
    39   21   22 ar  
    40   21   26 ar  
    41   22   23 ar  
    42   22   46 1   
    43   23   24 ar  
    44   23   47 1   
    45   24   25 ar  
    46   24   48 1   
    47   25   26 ar  
    48   25   27 1   
    49   26   49 1   
    50   27   28 3   
    51   29   30 1   
    52   29   50 1   
    53   29   51 1   
    54   30   52 1   
@<TRIPOS>SUBSTRUCTURE
     1 4HV         1 TEMP              0 ****  ****    0 ROOT
