@<TRIPOS>MOLECULE
4HV
   52    47     1     0     0
SMALL
bcc


@<TRIPOS>ATOM
      1 C1         -3.4340    1.0800   -7.9690 c3        1 4HV     -0.078000
      2 O2         -2.1230    0.7100   -7.9040 os        1 4HV     -0.203000
      3 C3         -1.6030    0.7000   -6.5940 c2        1 4HV      0.068000
      4 C4         -1.3970    1.8710   -5.9390 c2        1 4HV     -0.195000
      5 C5         -0.7460    1.8760   -4.6820 c1        1 4HV     -0.080000
      6 C6         -0.3190    0.6870   -4.1210 c1        1 4HV     -0.047000
      7 C7         -0.5260   -0.4960   -4.7800 c1        1 4HV     -0.091000
      8 C8         -1.1720   -0.5010   -6.0270 c1        1 4HV      0.029000
      9 O9         -1.2030   -1.6770   -6.7910 os        1 4HV     -0.212000
     10 C10        -2.1000   -2.6320   -6.3330 c3        1 4HV     -0.075000
     11 C11         0.3200    0.6800   -2.6600 c2        1 4HV      0.009000
     12 C12        -0.3830    0.6630   -1.4450 c1        1 4HV     -0.135000
     13 C13         0.5380    0.6980   -0.4270 c1        1 4HV     -0.193000
     14 C14         1.8090    0.7360   -1.0030 c1        1 4HV     -0.046000
     15 O15         1.6600    0.7240   -2.3720 os        1 4HV     -0.095000
     16 C16         0.2300    0.6740    1.0940 c1        1 4HV      0.381000
     17 O17        -0.9430    0.6190    1.4890 o         1 4HV     -0.375000
     18 N18         1.2900    0.6190    2.0220 n3        1 4HV     -0.384000
     19 C19         1.1450   -0.1350    3.2240 c3        1 4HV     -0.014000
     20 C21         2.2630    0.2280    4.1910 c3        1 4HV     -0.127000
     21 C22         1.6820    0.3290    5.6180 c2        1 4HV     -0.079000
     22 C23         1.6790    1.5840    6.2830 c2        1 4HV     -0.111000
     23 C24         1.3140    1.6660    7.6130 c1        1 4HV     -0.133000
     24 C25         0.9530    0.5380    8.2980 c1        1 4HV     -0.093000
     25 C26         0.9530   -0.7340    7.6360 c1        1 4HV     -0.008000
     26 C27         1.3210   -0.8130    6.2980 c2        1 4HV     -0.091000
     27 C28         0.3540   -1.9370    8.3290 c1        1 4HV     -0.097000
     28 N29        -0.0960   -2.8370    8.8520 n1        1 4HV     -0.033000
     29 C30         1.2040   -1.6210    2.9060 c3        1 4HV     -0.038000
     30 O31         0.2630   -2.3280    3.7380 oh        1 4HV     -0.336000
     31 H19         0.2670    0.0760    3.6420 h1        1 4HV      0.132000
     32 H1         -3.5300    2.0060   -7.6350 h1        1 4HV      0.087000
     33 H1A        -3.9510    0.4990   -7.4350 h1        1 4HV      0.087000
     34 H1B        -3.7730    1.0270   -8.9890 h1        1 4HV      0.087000
     35 H4         -1.6970    2.7050   -6.3320 ha        1 4HV      0.143000
     36 H5         -0.6050    2.6750   -4.2360 ha        1 4HV      0.148000
     37 H7         -0.2200   -1.3450   -4.3780 ha        1 4HV      0.156000
     38 H10        -1.9150   -2.8320   -5.4370 h1        1 4HV      0.084333
     39 H10A       -3.0480   -2.2720   -6.4110 h1        1 4HV      0.084333
     40 H10B       -2.0100   -3.4720   -6.8910 h1        1 4HV      0.084333
     41 H12        -1.3810    0.6310   -1.3390 DU        1 4HV      0.189000
     42 H14         2.6360    0.7640   -0.5320 DU        1 4HV      0.189000
     43 HN18        2.0920    0.9780    1.8100 hn        1 4HV      0.220000
     44 H21         2.6600    1.1150    3.9280 hc        1 4HV      0.095500
     45 H21A        2.9540   -0.4560    4.1640 hc        1 4HV      0.095500
     46 H23         1.9260    2.3670    5.8120 ha        1 4HV      0.134000
     47 H24         1.3130    2.5620    8.0800 ha        1 4HV      0.140000
     48 H25         0.6900    0.6020    9.2620 ha        1 4HV      0.146000
     49 H27         1.3220   -1.7100    5.8220 ha        1 4HV      0.171000
     50 H30         2.1530   -1.9760    3.0860 h1        1 4HV      0.089000
     51 H30A        0.9830   -1.7570    1.9990 h1        1 4HV      0.089000
     52 HO31        0.2000   -3.1560    3.4650 ho        1 4HV      0.231000
@<TRIPOS>BOND
     1    1    2 1   
     2    1   32 1   
     3    1   33 1   
     4    1   34 1   
     5    2    3 1   
     6    3    4 1   
     7    3    8 1   
     8    4    5 1   
     9    4   35 1   
    10    5   36 1   
    11    6    7 1   
    12    6   11 1   
    13    7   37 1   
    14    8    9 1   
    15    9   10 1   
    16   10   38 1   
    17   10   39 1   
    18   10   40 1   
    19   11   12 1   
    20   11   15 1   
    21   12   13 1   
    22   13   14 1   
    23   14   15 1   
    24   16   17 1   
    25   16   18 1   
    26   18   19 1   
    27   18   43 1   
    28   19   20 1   
    29   19   29 1   
    30   19   31 1   
    31   20   21 1   
    32   20   44 1   
    33   20   45 1   
    34   21   22 1   
    35   21   26 1   
    36   22   23 1   
    37   22   46 1   
    38   23   47 1   
    39   24   25 1   
    40   24   48 1   
    41   25   26 1   
    42   26   49 1   
    43   27   28 1   
    44   29   30 1   
    45   29   50 1   
    46   29   51 1   
    47   30   52 1   
@<TRIPOS>SUBSTRUCTURE
     1 4HV         1 TEMP              0 ****  ****    0 ROOT
