@<TRIPOS>MOLECULE
4HV
   53    55     1     0     0
SMALL
bcc


@<TRIPOS>ATOM
      1 C1          0.0500    0.0180   -0.4920 c3        1 4HV      0.104700
      2 O2          1.2850   -0.6240   -0.1770 os        1 4HV     -0.288900
      3 C3          1.7960   -0.3830    1.0720 ca        1 4HV      0.153100
      4 C4          1.2050    0.4290    2.0410 ca        1 4HV     -0.194000
      5 C5          1.8190    0.6010    3.2810 ca        1 4HV     -0.078000
      6 C6          3.0310   -0.0380    3.5670 ca        1 4HV     -0.184500
      7 C7          3.6390   -0.8610    2.5980 ca        1 4HV     -0.148000
      8 C8          3.0330   -1.0370    1.3600 ca        1 4HV      0.105100
      9 O9          3.5300   -1.8140    0.3380 os        1 4HV     -0.292900
     10 C10         4.7660   -2.4740    0.5930 c3        1 4HV      0.106700
     11 C11         3.6450    0.1550    4.8530 cc        1 4HV      0.379200
     12 C12         3.3050    0.8890    5.9760 cd        1 4HV     -0.224300
     13 C13         4.3580    0.6650    6.9510 cd        1 4HV     -0.354900
     14 C14         5.2780   -0.2020    6.3600 cc        1 4HV      0.335600
     15 O15         4.8650   -0.5240    5.0930 os        1 4HV     -0.316800
     16 C16         4.3490    1.2600    8.2560 c         1 4HV      0.613700
     17 O17         3.4340    1.8130    8.8530 o         1 4HV     -0.432100
     18 N18         5.6750    1.2400    9.0070 ny        1 4HV     -0.679800
     19 C19         5.6730    0.2550   10.1430 c3        1 4HV      0.092500
     20 C21         6.7340    0.6120   11.1950 c3        1 4HV     -0.055100
     21 C22         6.6000    2.0090   11.6860 ca        1 4HV     -0.152300
     22 C23         5.6820    2.3180   12.6980 ca        1 4HV     -0.093000
     23 C24         5.5760    3.6230   13.1750 ca        1 4HV     -0.114000
     24 C25         6.3820    4.6340   12.6490 ca        1 4HV     -0.065000
     25 C26         7.3050    4.3290   11.6390 ca        1 4HV      0.009000
     26 C27         7.4170    3.0160   11.1620 ca        1 4HV     -0.120000
     27 C28         8.1340    5.3470   11.0950 cg        1 4HV      0.201800
     28 N29         8.8120    6.1800   10.6480 n1        1 4HV     -0.305800
     29 C30         5.9090   -1.1830    9.6280 c3        1 4HV      0.107400
     30 O31         7.0300   -1.2100    8.7710 oh        1 4HV     -0.623800
     31 H19         4.6490    0.3100   10.6220 hx        1 4HV      0.123700
     32 H1          0.1640    1.1280   -0.4550 h1        1 4HV      0.054700
     33 H1A        -0.7570   -0.3220    0.2000 h1        1 4HV      0.054700
     34 H1B        -0.1520   -0.3260   -1.5380 h1        1 4HV      0.054700
     35 H4          0.2530    0.9400    1.8360 ha        1 4HV      0.156000
     36 H5          1.3410    1.2450    4.0350 ha        1 4HV      0.138000
     37 H7          4.5910   -1.3590    2.8330 ha        1 4HV      0.152000
     38 H10         4.6650   -3.1860    1.4480 h1        1 4HV      0.050367
     39 H10A        5.5770   -1.7320    0.7920 h1        1 4HV      0.050367
     40 H10B        4.9600   -3.0270   -0.3620 h1        1 4HV      0.050367
     41 H12         2.4300    1.5180    6.1290 ha        1 4HV      0.195000
     42 H14         6.2020   -0.6890    6.6840 h4        1 4HV      0.087100
     43 HN18        5.8470    2.1790    9.3980 hn        1 4HV      0.464800
     44 H21         7.7590    0.4410   10.7670 hc        1 4HV      0.086200
     45 H21A        6.6030   -0.1060   12.0510 hc        1 4HV      0.086200
     46 H23         5.0500    1.5250   13.1280 ha        1 4HV      0.147000
     47 H24         4.8570    3.8590   13.9770 ha        1 4HV      0.164000
     48 H25         6.3000    5.6650   13.0300 ha        1 4HV      0.169000
     49 H27         8.1770    2.7780   10.4000 ha        1 4HV      0.141000
     50 H30         5.0370   -1.5190    9.0010 h1        1 4HV      0.089700
     51 H30A        6.0210   -1.8660   10.5090 h1        1 4HV      0.089700
     52 HO31        7.7880   -1.5520    9.2630 ho        1 4HV      0.441000
     53 H182        6.4390    0.9980    8.3660 hn        1 4HV      0.464800
@<TRIPOS>BOND
     1    1    2 1   
     2    1   32 1   
     3    1   33 1   
     4    1   34 1   
     5    2    3 1   
     6    3    4 ar  
     7    3    8 ar  
     8    4    5 ar  
     9    4   35 1   
    10    5    6 ar  
    11    5   36 1   
    12    6    7 ar  
    13    6   11 1   
    14    7    8 ar  
    15    7   37 1   
    16    8    9 1   
    17    9   10 1   
    18   10   38 1   
    19   10   39 1   
    20   10   40 1   
    21   11   12 2   
    22   11   15 1   
    23   12   13 1   
    24   12   41 1   
    25   13   14 2   
    26   13   16 1   
    27   14   15 1   
    28   14   42 1   
    29   16   17 2   
    30   16   18 1   
    31   18   19 1   
    32   18   43 1   
    33   18   53 1   
    34   19   20 1   
    35   19   29 1   
    36   19   31 1   
    37   20   21 1   
    38   20   44 1   
    39   20   45 1   
    40   21   22 ar  
    41   21   26 ar  
    42   22   23 ar  
    43   22   46 1   
    44   23   24 ar  
    45   23   47 1   
    46   24   25 ar  
    47   24   48 1   
    48   25   26 ar  
    49   25   27 1   
    50   26   49 1   
    51   27   28 3   
    52   29   30 1   
    53   29   50 1   
    54   29   51 1   
    55   30   52 1   
@<TRIPOS>SUBSTRUCTURE
     1 4HV         1 TEMP              0 ****  ****    0 ROOT
