@<TRIPOS>MOLECULE
4HW
   42    45     1     0     0
SMALL
bcc


@<TRIPOS>ATOM
      1 C1         -0.2790   -0.2280    0.4940 ca        1 4HW     -0.115000
      2 C2          1.0660   -0.2990    0.1410 ca        1 4HW     -0.138500
      3 C3          2.0620   -0.1190    1.1230 ca        1 4HW      0.131600
      4 N1          5.4410    1.7810   -2.2570 nb        1 4HW     -0.796000
      5 C7          5.5080    0.3980   -0.2560 ca        1 4HW     -0.415600
      6 C6          4.0780    0.4650   -0.1940 ca        1 4HW      0.693200
      7 N2          3.3650    1.1750   -1.1320 nb        1 4HW     -0.753000
      8 C5          0.3200    0.1770    2.7930 ca        1 4HW     -0.115000
      9 C4          1.6690    0.1200    2.4600 ca        1 4HW     -0.138500
     10 C8          6.1560    1.0740   -1.3190 ca        1 4HW      0.592800
     11 C9          4.0990    1.7740   -2.0960 ca        1 4HW      0.690900
     12 C10         8.3730    1.5320   -2.5310 cc        1 4HW      0.709400
     13 N4          9.6740    1.6410   -2.1130 nd        1 4HW     -0.763000
     14 C11         9.6300    1.2060   -0.7510 cd        1 4HW      0.780900
     15 N6         10.7380    1.2200    0.1150 nh        1 4HW     -0.675300
     16 C12        12.0500    1.1760   -0.4240 ca        1 4HW      0.118600
     17 C17        12.5250    2.2040   -1.2640 ca        1 4HW     -0.136000
     18 C16        13.8460    2.1850   -1.7060 ca        1 4HW     -0.118500
     19 C15        14.7140    1.1650   -1.3190 ca        1 4HW     -0.140000
     20 C14        14.2540    0.1500   -0.4820 ca        1 4HW     -0.118500
     21 C13        12.9360    0.1440   -0.0380 ca        1 4HW     -0.136000
     22 N5          8.3620    0.8390   -0.3430 nc        1 4HW     -0.596800
     23 N3          7.5710    1.0030   -1.4410 na        1 4HW     -0.124200
     24 N           3.4350   -0.2520    0.8170 nh        1 4HW     -0.724300
     25 C          -0.6590    0.0090    1.8140 ca        1 4HW     -0.140000
     26 H1         -1.0470   -0.3640   -0.2820 ha        1 4HW      0.134500
     27 H2          1.3390   -0.4950   -0.9070 ha        1 4HW      0.142000
     28 H3          6.0790   -0.1650    0.4940 ha        1 4HW      0.176000
     29 H4          0.0270    0.3630    3.8370 ha        1 4HW      0.134500
     30 H5          2.4250    0.2600    3.2480 ha        1 4HW      0.142000
     31 H6          3.5200    2.3460   -2.8530 h5        1 4HW      0.056100
     32 H7          8.5780    2.1390   -4.4400 hn        1 4HW      0.440300
     33 H8          6.9720    1.9550   -3.9570 hn        1 4HW      0.440300
     34 H9         10.6170    0.6140    0.9050 hn        1 4HW      0.422800
     35 H10        11.8600    3.0240   -1.5760 ha        1 4HW      0.142500
     36 H11        14.2040    2.9900   -2.3650 ha        1 4HW      0.132500
     37 H12        15.7550    1.1610   -1.6720 ha        1 4HW      0.132000
     38 H13        14.9340   -0.6570   -0.1730 ha        1 4HW      0.132500
     39 H14        12.5920   -0.6690    0.6190 ha        1 4HW      0.142500
     40 H15         4.0190   -0.4760    1.5960 hn        1 4HW      0.434800
     41 H16        -1.7230    0.0620    2.0830 ha        1 4HW      0.134000
     42 N7          7.9260    1.7020   -3.8270 nh        1 4HW     -0.914500
@<TRIPOS>BOND
     1    1    2 ar  
     2    1   25 ar  
     3    1   26 1   
     4    2    3 ar  
     5    2   27 1   
     6    3    9 ar  
     7    3   24 1   
     8    4   10 ar  
     9    4   11 ar  
    10    5    6 ar  
    11    5   10 ar  
    12    5   28 1   
    13    6    7 ar  
    14    6   24 1   
    15    7   11 ar  
    16    8    9 ar  
    17    8   25 ar  
    18    8   29 1   
    19    9   30 1   
    20   10   23 1   
    21   11   31 1   
    22   12   13 2   
    23   12   23 1   
    24   12   42 1   
    25   13   14 1   
    26   14   15 1   
    27   14   22 2   
    28   15   16 1   
    29   15   34 1   
    30   16   17 ar  
    31   16   21 ar  
    32   17   18 ar  
    33   17   35 1   
    34   18   19 ar  
    35   18   36 1   
    36   19   20 ar  
    37   19   37 1   
    38   20   21 ar  
    39   20   38 1   
    40   21   39 1   
    41   22   23 1   
    42   24   40 1   
    43   25   41 1   
    44   32   42 1   
    45   33   42 1   
@<TRIPOS>SUBSTRUCTURE
     1 4HW         1 TEMP              0 ****  ****    0 ROOT
