@<TRIPOS>MOLECULE
4HW
   42    45     1     0     0
SMALL
bcc


@<TRIPOS>ATOM
      1 C1         -0.5750   -0.0660    0.3650 ce        1 4HW     -0.055000
      2 C2          0.7720    0.0620   -0.1910 ce        1 4HW     -0.210000
      3 C3          1.7050    0.0680    0.8430 c2        1 4HW      0.009700
      4 N1          5.4590    2.0280   -2.0850 ne        1 4HW     -0.754700
      5 C7          5.2690    0.5610   -0.1450 ce        1 4HW     -0.414600
      6 C6          3.8610    0.7240   -0.1730 c2        1 4HW      0.135800
      7 N2          3.3190    1.5420   -1.1590 nu        1 4HW     -0.244600
      8 C5         -0.0100   -0.7190    2.8600 cx        1 4HW      0.038800
      9 C4          0.9790    0.2290    2.1500 cx        1 4HW     -0.181300
     10 C8          6.0490    1.2400   -1.1380 ce        1 4HW      0.615600
     11 C9          4.1270    2.1700   -2.0920 c1        1 4HW      0.211400
     12 C10         8.3970    1.6730   -2.0830 cc        1 4HW      0.557300
     13 N4          9.6720    1.4720   -1.6110 nd        1 4HW     -0.742000
     14 C11         9.4660    0.7650   -0.3880 cd        1 4HW      0.719200
     15 N6         10.5140    0.4210    0.4980 nu        1 4HW     -0.514800
     16 C12        11.7680    0.3000    0.0120 c1        1 4HW     -0.024200
     17 C17        13.2550    2.4490   -2.4980 c2        1 4HW     -0.184000
     18 C16        14.5180    2.0640   -2.2990 ce        1 4HW     -0.157000
     19 C15        14.9570    0.9040   -1.5600 ce        1 4HW     -0.104000
     20 C14        14.2540    0.1240   -0.7190 cf        1 4HW     -0.020700
     21 C13        12.9110    0.2520   -0.3580 ch        1 4HW     -0.145300
     22 N5          8.1370    0.5250   -0.1070 nc        1 4HW     -0.626100
     23 N3          7.4520    1.0780   -1.1490 na        1 4HW     -0.072100
     24 N           3.0870    0.0580    0.7770 nu        1 4HW     -0.257500
     25 C          -0.4590    0.0420    1.7150 cu        1 4HW     -0.190400
     26 H1          0.9660    0.0260   -1.2620 ha        1 4HW      0.157000
     27 H2         -1.4590   -0.2790   -0.2340 ha        1 4HW      0.165000
     28 H3          5.7370   -0.0740    0.6170 ha        1 4HW      0.175000
     29 H4          1.3560    1.0580    2.7730 hc        1 4HW      0.122700
     30 H5         -0.2590   -0.4090    3.8940 hc        1 4HW      0.084200
     31 H6          2.3350    1.7050   -1.2020 hn        1 4HW      0.312700
     32 H7          7.1300    2.5180   -3.4560 hn        1 4HW      0.303200
     33 H8          8.7930    2.7120   -3.7670 hn        1 4HW      0.303200
     34 H9         10.2670   -0.3010    1.1540 hn        1 4HW      0.439800
     35 H10        12.3870    1.9040   -2.1030 ha        1 4HW      0.125000
     36 H11        13.0140    3.3490   -3.0800 ha        1 4HW      0.125000
     37 H12        15.3450    2.6570   -2.7340 ha        1 4HW      0.115000
     38 H13        16.0220    0.6470   -1.7180 ha        1 4HW      0.121000
     39 H14        14.7640   -0.7290   -0.2270 ha        1 4HW      0.133000
     40 H15         3.5720   -0.3040    1.5690 hn        1 4HW      0.307700
     41 H16         0.0420   -1.8210    2.7580 hc        1 4HW      0.084200
     42 N7          8.0680    2.2190   -3.2990 nv        1 4HW     -0.460200
@<TRIPOS>BOND
     1    1    2 1   
     2    1   25 2   
     3    1   27 1   
     4    2    3 2   
     5    2   26 1   
     6    3    9 1   
     7    3   24 1   
     8    4   10 1   
     9    4   11 2   
    10    5    6 2   
    11    5   10 1   
    12    5   28 1   
    13    6    7 1   
    14    6   24 1   
    15    7   11 2   
    16    7   31 1   
    17    8    9 1   
    18    8   25 1   
    19    8   30 1   
    20    8   41 1   
    21    9   25 1   
    22    9   29 1   
    23   10   23 2   
    24   12   13 2   
    25   12   23 1   
    26   12   42 1   
    27   13   14 1   
    28   14   15 1   
    29   14   22 2   
    30   15   16 1   
    31   15   34 1   
    32   16   21 3   
    33   17   18 2   
    34   17   35 1   
    35   17   36 1   
    36   18   19 1   
    37   18   37 1   
    38   19   20 2   
    39   19   38 1   
    40   20   21 1   
    41   20   39 1   
    42   22   23 1   
    43   24   40 1   
    44   32   42 1   
    45   33   42 1   
@<TRIPOS>SUBSTRUCTURE
     1 4HW         1 TEMP              0 ****  ****    0 ROOT
