@<TRIPOS>MOLECULE
4HX
   46    46     1     0     0
SMALL
bcc


@<TRIPOS>ATOM
      1 NO         11.6350   -4.2780   -1.7880 no        1 4HX      0.444500
      2 O2         11.9550   -3.2960   -2.4060 o         1 4HX     -0.201500
      3 O3         12.4180   -5.1050   -1.4000 o         1 4HX     -0.201500
      4 N           5.6700   -4.4230    5.5650 n3        1 4HX     -0.893800
      5 CA          5.7850   -4.0080    4.1850 c3        1 4HX      0.116500
      6 C           4.4170   -3.9720    3.4640 c         1 4HX      0.584100
      7 O           3.5670   -4.8540    3.6620 o         1 4HX     -0.566100
      8 CB          6.7200   -4.9350    3.3890 c3        1 4HX     -0.078400
      9 CG          7.1080   -4.3290    2.0580 c3        1 4HX     -0.090400
     10 CD          8.2590   -5.1360    1.4520 c3        1 4HX      0.176800
     11 NE          8.6260   -4.6430    0.1350 nh        1 4HX     -0.797200
     12 CZ          9.7700   -5.2740   -0.4770 c2        1 4HX      0.751100
     13 NH1        10.2760   -4.4820   -1.6140 nh        1 4HX     -0.811500
     14 NH2        10.2570   -6.4030   -0.0780 n2        1 4HX     -0.789100
     15 N2'         4.1790   -2.9640    2.4730 n         1 4HX     -0.285300
     16 O2'         4.9330   -1.8720    2.6350 oh        1 4HX     -0.432100
     17 N'          1.1740   -0.8060    2.5410 n3        1 4HX     -0.783200
     18 CA'         1.5060   -0.8300    1.1150 c3        1 4HX      0.095500
     19 C'          0.2910   -1.0660    0.2000 c         1 4HX      0.641100
     20 O'         -0.7730   -1.5590    0.6250 o         1 4HX     -0.610100
     21 CB'         2.5700   -1.9170    0.8470 c3        1 4HX     -0.090400
     22 CG'         2.7710   -2.6440    2.1930 c3        1 4HX      0.039700
     23 CD'         2.0580   -1.7310    3.2350 c3        1 4HX      0.127800
     24 HN2         5.3190   -5.3590    5.6310 hn        1 4HX      0.364800
     25 HA          6.2250   -2.9660    4.1920 h1        1 4HX      0.091700
     26 HB1         6.2180   -5.9250    3.2280 hc        1 4HX      0.067200
     27 HB2         7.6460   -5.1190    3.9990 hc        1 4HX      0.067200
     28 HG1         6.2260   -4.3350    1.3640 hc        1 4HX      0.049700
     29 HG2         7.4220   -3.2610    2.1970 hc        1 4HX      0.049700
     30 HD1         9.1630   -5.0460    2.1190 h1        1 4HX      0.060700
     31 HD2         7.9610   -6.2250    1.4290 h1        1 4HX      0.060700
     32 HNE         7.8410   -4.6460   -0.4910 hn        1 4HX      0.391800
     33 HNH1        9.7560   -3.6420   -1.8280 hn        1 4HX      0.450800
     34 HNH2       11.1090   -6.7290   -0.4830 hn        1 4HX      0.446400
     35 H1'1       -0.3490   -0.8450   -1.7330 hn        1 4HX      0.313500
     36 H1'2        1.2320   -0.2810   -1.4580 hn        1 4HX      0.313500
     37 HO2'        5.5510   -1.8780    1.8770 ho        1 4HX      0.418000
     38 HN'         0.2080   -1.0560    2.6810 hn        1 4HX      0.383800
     39 HA'         1.9370    0.1880    0.8820 h1        1 4HX      0.078700
     40 HB'1        2.2320   -2.6430    0.0680 hc        1 4HX      0.060200
     41 HB'2        3.5130   -1.4360    0.4880 hc        1 4HX      0.060200
     42 HG'         2.2450   -3.6430    2.1570 h1        1 4HX      0.101700
     43 HD'1        1.5010   -2.3610    3.9780 h1        1 4HX      0.063700
     44 HD'2        2.8130   -1.1100    3.7920 h1        1 4HX      0.063700
     45 HN1         5.0640   -3.8050    6.0690 hn        1 4HX      0.364800
     46 N1'         0.4230   -0.7360   -1.1240 n         1 4HX     -0.671000
@<TRIPOS>BOND
     1    1    2 1   
     2    1    3 1   
     3    1   13 1   
     4    4    5 1   
     5    4   24 1   
     6    4   45 1   
     7    5    6 1   
     8    5    8 1   
     9    5   25 1   
    10    6    7 2   
    11    6   15 1   
    12    8    9 1   
    13    8   26 1   
    14    8   27 1   
    15    9   10 1   
    16    9   28 1   
    17    9   29 1   
    18   10   11 1   
    19   10   30 1   
    20   10   31 1   
    21   11   12 1   
    22   11   32 1   
    23   12   13 1   
    24   12   14 2   
    25   13   33 1   
    26   14   34 1   
    27   15   16 1   
    28   15   22 1   
    29   16   37 1   
    30   17   18 1   
    31   17   23 1   
    32   17   38 1   
    33   18   19 1   
    34   18   21 1   
    35   18   39 1   
    36   19   20 2   
    37   19   46 1   
    38   21   22 1   
    39   21   40 1   
    40   21   41 1   
    41   22   23 1   
    42   22   42 1   
    43   23   43 1   
    44   23   44 1   
    45   35   46 1   
    46   36   46 1   
@<TRIPOS>SUBSTRUCTURE
     1 4HX         1 TEMP              0 ****  ****    0 ROOT
