@<TRIPOS>MOLECULE
4HX
   46    44     1     0     0
SMALL
bcc


@<TRIPOS>ATOM
      1 NO          6.1740   -5.7370    2.1360 n2        1 4HX      0.518400
      2 O2          5.7390   -6.7990    2.8900 o         1 4HX     -0.283700
      3 O3          7.2140   -5.8230    1.5080 o         1 4HX     -0.283700
      4 N           1.3810    0.3980   -2.0250 n3        1 4HX     -0.341000
      5 CA          0.5930   -0.0580   -0.9300 c3        1 4HX     -0.022000
      6 C          -0.2490    1.0820   -0.4110 c2        1 4HX      0.227000
      7 O           0.2260    1.8780    0.3320 o         1 4HX     -0.315000
      8 CB          1.5070   -0.5590    0.1840 c3        1 4HX     -0.146000
      9 CG          2.4490   -1.6040   -0.3620 c3        1 4HX     -0.195000
     10 CD          3.0870   -2.3980    0.8250 c3        1 4HX     -0.071000
     11 NE          4.2870   -3.0500    0.3760 n3        1 4HX     -0.324000
     12 CZ          4.5890   -4.3950    0.8270 c2        1 4HX      0.128000
     13 NH1         5.3770   -4.5970    2.0130 n2        1 4HX     -0.275000
     14 NH2         4.1390   -5.4370    0.1460 n1        1 4HX     -0.208000
     15 N1'        -6.2400    4.3510    1.4340 n         1 4HX     -0.411000
     16 N2'        -1.6200    1.2580   -0.8860 n         1 4HX     -0.184000
     17 O2'        -2.1880    0.3180   -1.7070 oh        1 4HX     -0.253000
     18 N'         -3.8410    4.0440   -1.2210 n3        1 4HX     -0.279000
     19 CA'        -4.7150    3.1380   -0.2490 c3        1 4HX     -0.058000
     20 C'         -4.9120    3.8510    1.0680 c2        1 4HX      0.303000
     21 O'         -3.9510    4.1240    1.7570 o         1 4HX     -0.386000
     22 CB'        -3.9720    2.0280   -0.1720 c3        1 4HX     -0.172000
     23 CG'        -2.4400    2.4660   -0.4250 c3        1 4HX     -0.044000
     24 CD'        -2.4570    3.3520   -1.3350 c3        1 4HX     -0.105000
     25 HN1         1.3660    1.3090   -2.0520 hn        1 4HX      0.163000
     26 HN2         1.0440    0.0670   -2.8010 hn        1 4HX      0.163000
     27 HA          0.0050   -0.7940   -1.2300 h1        1 4HX      0.119000
     28 HB1         0.9680   -0.9490    0.8960 hc        1 4HX      0.100500
     29 HB2         2.0300    0.1980    0.5430 hc        1 4HX      0.100500
     30 HG1         1.9460   -2.2280   -0.9480 hc        1 4HX      0.094500
     31 HG2         3.1670   -1.1610   -0.8880 hc        1 4HX      0.094500
     32 HD1         2.4440   -3.0760    1.1510 h1        1 4HX      0.101500
     33 HD2         3.3090   -1.7680    1.5650 h1        1 4HX      0.101500
     34 HNE         4.8010   -2.6620   -0.2700 hn        1 4HX      0.189000
     35 HNH1        5.3950   -3.9570    2.6640 hn        1 4HX      0.246000
     36 HNH2        3.6400   -5.3100   -0.6050 DU        1 4HX      0.164000
     37 H1'1       -6.3730    4.7720    2.2680 hn        1 4HX      0.228000
     38 H1'2       -6.9420    4.2340    0.8690 hn        1 4HX      0.228000
     39 HO2'       -2.6050   -0.2890   -1.2150 ho        1 4HX      0.226000
     40 HN'        -4.2330    4.0760   -2.0410 hn        1 4HX      0.158000
     41 HA'        -5.6480    2.9340   -0.5060 h1        1 4HX      0.112000
     42 HB'1       -4.2580    1.3830   -0.8670 hc        1 4HX      0.119500
     43 HB'2       -4.0620    1.6280    0.7120 hc        1 4HX      0.119500
     44 HG'        -2.0600    2.8350    0.3890 h1        1 4HX      0.149000
     45 HD'1       -2.3600    2.9340   -2.2180 h1        1 4HX      0.102500
     46 HD'2       -1.7510    3.9920   -1.1890 h1        1 4HX      0.102500
@<TRIPOS>BOND
     1    1    2 2   
     2    1    3 2   
     3    4    5 1   
     4    4   25 1   
     5    4   26 1   
     6    5    6 1   
     7    5    8 1   
     8    5   27 1   
     9    6    7 1   
    10    6   16 1   
    11    8    9 1   
    12    8   28 1   
    13    8   29 1   
    14    9   10 1   
    15    9   30 1   
    16    9   31 1   
    17   10   11 1   
    18   10   32 1   
    19   10   33 1   
    20   11   12 1   
    21   11   34 1   
    22   12   13 1   
    23   12   14 1   
    24   13   35 1   
    25   15   20 1   
    26   15   37 1   
    27   15   38 1   
    28   16   17 1   
    29   16   23 1   
    30   17   39 1   
    31   18   19 1   
    32   18   24 1   
    33   18   40 1   
    34   19   20 1   
    35   19   22 1   
    36   19   41 1   
    37   20   21 1   
    38   22   23 1   
    39   22   42 1   
    40   22   43 1   
    41   23   24 1   
    42   23   44 1   
    43   24   45 1   
    44   24   46 1   
@<TRIPOS>SUBSTRUCTURE
     1 4HX         1 TEMP              0 ****  ****    0 ROOT
