@<TRIPOS>MOLECULE
4HX
   46    45     1     0     0
SMALL
bcc


@<TRIPOS>ATOM
      1 NO         -2.0360    2.1780   -3.5120 no        1 4HX      0.444500
      2 O2         -3.1980    2.5050   -3.5980 o         1 4HX     -0.246500
      3 O3         -1.3400    2.0500   -4.4920 o         1 4HX     -0.246500
      4 N          -3.5100    1.1910   -6.2610 n4        1 4HX     -0.622400
      5 CA         -3.9420   -0.1750   -6.1240 c2        1 4HX     -0.517200
      6 C          -3.4140   -1.1990   -6.9600 c2        1 4HX      0.639300
      7 O          -3.7850   -2.3930   -6.9140 o         1 4HX     -0.663300
      8 CB         -5.1580   -0.4650   -5.3220 c3        1 4HX      0.044800
      9 CG         -4.8970   -1.3730   -4.1340 c3        1 4HX     -0.110400
     10 CD         -4.0250   -0.7220   -3.0670 c3        1 4HX      0.167800
     11 NE         -2.6030   -0.6290   -3.3920 n3        1 4HX     -0.660800
     12 CZ         -1.7990   -1.5620   -2.7880 c1        1 4HX      0.288600
     13 NH1        -1.4820    2.0170   -2.2790 n3        1 4HX     -0.841100
     14 NH2        -1.0630   -2.2720   -2.2210 n1        1 4HX     -0.390800
     15 N2'        -2.3990   -0.8060   -7.9650 n         1 4HX     -0.281300
     16 O2'        -1.3360   -0.2160   -7.4250 oh        1 4HX     -0.449100
     17 N'          0.1870   -1.6200   -9.8640 n3        1 4HX     -0.806200
     18 CA'         0.2470   -2.7600   -8.9390 c3        1 4HX      0.085500
     19 C'          0.7960   -4.0460   -9.5800 c         1 4HX      0.659100
     20 O'          0.4990   -5.1600   -9.1000 o         1 4HX     -0.624100
     21 CB'        -1.1700   -3.0170   -8.3750 c3        1 4HX     -0.112400
     22 CG'        -2.0550   -1.8750   -8.9170 c3        1 4HX      0.005700
     23 CD'        -1.2180   -1.3200  -10.1100 c3        1 4HX      0.148800
     24 HN2        -2.4860    1.2410   -6.1940 hn        1 4HX      0.427133
     25 HA         -3.9250    1.7580   -5.5170 hn        1 4HX      0.427133
     26 HB1        -2.4660   -0.6450   -4.3980 hn        1 4HX      0.429800
     27 HB2        -5.9020   -0.9890   -5.9870 hc        1 4HX      0.033700
     28 HG1        -5.6470    0.4800   -4.9590 hc        1 4HX      0.033700
     29 HG2        -4.4310   -2.3250   -4.5050 hc        1 4HX      0.065700
     30 HD1        -5.8790   -1.6360   -3.6590 hc        1 4HX      0.065700
     31 HD2        -4.1640   -1.2690   -2.0920 h1        1 4HX      0.055700
     32 HNE        -4.3570    0.3480   -2.9180 h1        1 4HX      0.055700
     33 HNH1       -2.1620    1.7910   -1.5710 hn        1 4HX      0.450300
     34 HNH2       -0.6590    1.4360   -2.2910 hn        1 4HX      0.450300
     35 H1'1        1.8170   -3.1120  -11.1070 hn        1 4HX      0.312500
     36 H1'2        1.9910   -4.8000  -11.0500 hn        1 4HX      0.312500
     37 HO2'       -0.8050   -0.8680   -6.9200 ho        1 4HX      0.378000
     38 HN'        -1.3740   -0.2210  -10.2690 h1        1 4HX      0.064200
     39 HA'         0.6390   -0.8280   -9.4450 hn        1 4HX      0.359800
     40 HB'1        0.9580   -2.5390   -8.0890 h1        1 4HX      0.063700
     41 HB'2       -1.5660   -4.0030   -8.7290 hc        1 4HX      0.081200
     42 HG'        -1.1550   -3.0550   -7.2600 hc        1 4HX      0.081200
     43 HD'1       -3.0370   -2.2830   -9.2820 h1        1 4HX      0.103700
     44 HD'2       -1.5320   -1.8650  -11.0410 h1        1 4HX      0.064200
     45 HN1        -3.7870    1.5700   -7.1700 hn        1 4HX      0.427133
     46 N1'         1.6860   -3.9610  -10.6190 n         1 4HX     -0.653000
@<TRIPOS>BOND
     1    1    2 1   
     2    1    3 1   
     3    1   13 1   
     4    4    5 1   
     5    4   24 1   
     6    4   25 1   
     7    4   45 1   
     8    5    6 2   
     9    5    8 1   
    10    6    7 1   
    11    6   15 1   
    12    8    9 1   
    13    8   27 1   
    14    8   28 1   
    15    9   10 1   
    16    9   29 1   
    17    9   30 1   
    18   10   11 1   
    19   10   31 1   
    20   10   32 1   
    21   11   12 1   
    22   11   26 1   
    23   12   14 3   
    24   13   33 1   
    25   13   34 1   
    26   15   16 1   
    27   15   22 1   
    28   16   37 1   
    29   17   18 1   
    30   17   23 1   
    31   17   39 1   
    32   18   19 1   
    33   18   21 1   
    34   18   40 1   
    35   19   20 2   
    36   19   46 1   
    37   21   22 1   
    38   21   41 1   
    39   21   42 1   
    40   22   23 1   
    41   22   43 1   
    42   23   38 1   
    43   23   44 1   
    44   35   46 1   
    45   36   46 1   
@<TRIPOS>SUBSTRUCTURE
     1 4HX         1 TEMP              0 ****  ****    0 ROOT
