@<TRIPOS>MOLECULE
4HY
   29    30     1     0     0
SMALL
bcc


@<TRIPOS>ATOM
      1 C1          0.0770   -0.2320   -0.2730 ca        1 4HY     -0.008300
      2 C2          2.3090    1.5770    3.8560 ca        1 4HY      0.104100
      3 C3          1.4470    0.0490   -0.2930 ca        1 4HY     -0.092000
      4 C4          1.7500    2.7300    3.3030 ca        1 4HY     -0.122000
      5 C5          2.1550    0.2710    0.8900 ca        1 4HY      0.020900
      6 C6          1.9250    3.9620    3.9400 ca        1 4HY     -0.024100
      7 C7          1.4770    0.2040    2.1140 ca        1 4HY      0.094100
      8 C8          2.6610    4.0200    5.1300 ca        1 4HY      0.119100
      9 C9          0.1060   -0.1060    2.1560 ca        1 4HY      0.020900
     10 C10         3.2220    2.8520    5.6860 ca        1 4HY     -0.138000
     11 C11        -0.5800   -0.3280    0.9660 ca        1 4HY     -0.092000
     12 C12         3.0490    1.6330    5.0540 ca        1 4HY     -0.102000
     13 C13        -0.6770   -0.4130   -1.5320 c3        1 4HY     -0.190100
     14 C14        -1.5790   -1.6770   -1.5350 c         1 4HY      0.920600
     15 I1          4.1390    0.6610    0.7300 i         1 4HY     -0.156900
     16 I2          1.0900    5.5950    3.0830 i         1 4HY     -0.152900
     17 I3         -0.9340   -0.2700    3.8890 i         1 4HY     -0.156900
     18 O3         -2.5130   -1.7360   -0.6860 o         1 4HY     -0.827800
     19 O2          2.2000    0.3060    3.3080 os        1 4HY     -0.239200
     20 O1          2.9010    5.1720    5.8460 oh        1 4HY     -0.501100
     21 O4         -1.3420   -2.5480   -2.4120 o         1 4HY     -0.827800
     22 HC31        1.9690    0.0870   -1.2630 ha        1 4HY      0.181500
     23 HC41        1.1720    2.6600    2.3660 ha        1 4HY      0.169000
     24 H101        3.7930    2.9300    6.6220 ha        1 4HY      0.149000
     25 H111       -1.6530   -0.6220    0.9490 ha        1 4HY      0.181500
     26 H121        3.4770    0.7090    5.4680 ha        1 4HY      0.155000
     27 H131        0.0200   -0.4700   -2.4060 hc        1 4HY      0.047700
     28 H132       -1.3570    0.4680   -1.6770 hc        1 4HY      0.047700
     29 HO11        2.4660    5.9090    5.3880 ho        1 4HY      0.422000
@<TRIPOS>BOND
     1    1    3 ar  
     2    1   11 ar  
     3    1   13 1   
     4    2    4 ar  
     5    2   12 ar  
     6    2   19 1   
     7    3    5 ar  
     8    3   22 1   
     9    4    6 ar  
    10    4   23 1   
    11    5    7 ar  
    12    5   15 1   
    13    6    8 ar  
    14    6   16 1   
    15    7    9 ar  
    16    7   19 1   
    17    8   10 ar  
    18    8   20 1   
    19    9   11 ar  
    20    9   17 1   
    21   10   12 ar  
    22   10   24 1   
    23   11   25 1   
    24   12   26 1   
    25   13   14 1   
    26   13   27 1   
    27   13   28 1   
    28   14   18 1   
    29   14   21 1   
    30   20   29 1   
@<TRIPOS>SUBSTRUCTURE
     1 4HY         1 TEMP              0 ****  ****    0 ROOT
