@<TRIPOS>MOLECULE
4HY
   29    24     1     0     0
SMALL
bcc


@<TRIPOS>ATOM
      1 C1         -1.3650    1.4100   -2.2940 c1        1 4HY      0.025900
      2 C2          1.0710   -0.1750    1.7370 c1        1 4HY      0.083600
      3 C3          0.0160    1.2950   -2.3060 c1        1 4HY     -0.015500
      4 C4          0.7370   -1.4980    1.4960 c1        1 4HY     -0.056500
      5 C5          0.7060    1.0910   -1.1210 c1        1 4HY      0.023600
      6 C6          1.2070   -2.4960    2.3360 c1        1 4HY      0.028100
      7 C7          0.0130    1.0040    0.0770 c1        1 4HY      0.078600
      8 C8          2.0110   -2.1700    3.4170 c1        1 4HY      0.098600
      9 C9         -1.3680    1.1190    0.0900 c1        1 4HY      0.028100
     10 C10         2.3440   -0.8460    3.6590 c1        1 4HY     -0.137500
     11 C11        -2.0570    1.3230   -1.0960 c1        1 4HY     -0.056500
     12 C12         1.8740    0.1510    2.8190 c1        1 4HY     -0.043500
     13 C13        -2.0840    1.6390   -3.6050 c3        1 4HY     -0.224300
     14 C14        -2.4330    0.3060   -4.2280 c         1 4HY      0.920600
     15 I1          2.7590    1.3560   -1.5110 i         1 4HY     -0.154600
     16 I2          0.4660   -4.2460    1.4250 i         1 4HY     -0.146100
     17 I3         -2.5130    1.1960    1.8570 i         1 4HY     -0.146100
     18 O3         -3.5250   -0.2530   -3.9480 o         1 4HY     -0.828300
     19 O2          0.6310    1.0980    1.3350 os        1 4HY     -0.212200
     20 O1          2.2210   -3.4580    3.9420 oh        1 4HY     -0.476600
     21 O4         -1.6370   -0.2370   -5.0400 o         1 4HY     -0.828300
     22 HC31        0.5040    1.3570   -3.1500 ha        1 4HY      0.158500
     23 HC41        0.1720   -1.7280    0.7340 ha        1 4HY      0.103000
     24 H101        2.9100   -0.6160    4.4200 ha        1 4HY      0.071500
     25 H111       -3.0290    1.4040   -1.0870 ha        1 4HY      0.103000
     26 H121        2.1090    1.0830    2.9890 ha        1 4HY      0.092500
     27 H131       -1.5040    2.1410   -4.2120 hc        1 4HY      0.047200
     28 H132       -2.9040    2.1470   -3.4430 hc        1 4HY      0.047200
     29 HO11        2.6710   -3.3960    4.7070 ho        1 4HY      0.413000
@<TRIPOS>BOND
     1    1    3 3   
     2    1   13 1   
     3    2   12 3   
     4    2   19 1   
     5    3   22 1   
     6    4    6 3   
     7    4   23 1   
     8    5    7 3   
     9    5   15 1   
    10    6   16 1   
    11    7   19 1   
    12    8   10 3   
    13    8   20 1   
    14    9   11 3   
    15    9   17 1   
    16   10   24 1   
    17   11   25 1   
    18   12   26 1   
    19   13   14 1   
    20   13   27 1   
    21   13   28 1   
    22   14   18 1   
    23   14   21 1   
    24   20   29 1   
@<TRIPOS>SUBSTRUCTURE
     1 4HY         1 TEMP              0 ****  ****    0 ROOT
