@<TRIPOS>MOLECULE
4HY
   29    30     1     0     0
SMALL
bcc


@<TRIPOS>ATOM
      1 C1         -0.1920   -1.5750    2.8330 ca        1 4HY     -0.008300
      2 C2         -0.0870    1.5060   -1.1430 ca        1 4HY      0.104100
      3 C3          0.9910   -0.8780    2.5290 ca        1 4HY     -0.092000
      4 C4          0.1300    0.2620   -1.7370 ca        1 4HY     -0.122000
      5 C5          0.9830    0.1830    1.6290 ca        1 4HY      0.020900
      6 C6          0.2970    0.1720   -3.1220 ca        1 4HY     -0.024100
      7 C7         -0.2290    0.5680    1.0280 ca        1 4HY      0.094100
      8 C8          0.2460    1.3390   -3.8950 ca        1 4HY      0.119100
      9 C9         -1.4230   -0.0930    1.3440 ca        1 4HY      0.020900
     10 C10         0.0280    2.5940   -3.2900 ca        1 4HY     -0.138000
     11 C11        -1.3920   -1.1570    2.2470 ca        1 4HY     -0.092000
     12 C12        -0.1380    2.6810   -1.9190 ca        1 4HY     -0.102000
     13 C13        -0.1590   -2.7360    3.7470 c3        1 4HY     -0.190100
     14 C14         0.6190   -2.4640    5.0630 c         1 4HY      0.920600
     15 I1          2.7430    1.1200    1.2600 i         1 4HY     -0.156900
     16 I2          0.6060   -1.6620   -3.9200 i         1 4HY     -0.152900
     17 I3         -3.2250    0.4210    0.5700 i         1 4HY     -0.156900
     18 O3          1.8500   -2.1950    4.9740 o         1 4HY     -0.827800
     19 O2         -0.2670    1.7090    0.2190 os        1 4HY     -0.239200
     20 O1          0.3950    1.3770   -5.2640 oh        1 4HY     -0.501100
     21 O4         -0.0240   -2.5670    6.1400 o         1 4HY     -0.827800
     22 HC31        1.9140   -1.1910    3.0660 ha        1 4HY      0.181500
     23 HC41        0.1700   -0.6430   -1.1070 ha        1 4HY      0.169000
     24 H101       -0.0060    3.4910   -3.9240 ha        1 4HY      0.149000
     25 H111       -2.3250   -1.6800    2.5150 ha        1 4HY      0.181500
     26 H121       -0.3090    3.6480   -1.4240 ha        1 4HY      0.155000
     27 H131        0.3630   -3.5860    3.2340 hc        1 4HY      0.047700
     28 H132       -1.1970   -3.0640    4.0080 hc        1 4HY      0.047700
     29 HO11        0.5490    0.4720   -5.5770 ho        1 4HY      0.422000
@<TRIPOS>BOND
     1    1    3 ar  
     2    1   11 ar  
     3    1   13 1   
     4    2    4 ar  
     5    2   12 ar  
     6    2   19 1   
     7    3    5 ar  
     8    3   22 1   
     9    4    6 ar  
    10    4   23 1   
    11    5    7 ar  
    12    5   15 1   
    13    6    8 ar  
    14    6   16 1   
    15    7    9 ar  
    16    7   19 1   
    17    8   10 ar  
    18    8   20 1   
    19    9   11 ar  
    20    9   17 1   
    21   10   12 ar  
    22   10   24 1   
    23   11   25 1   
    24   12   26 1   
    25   13   14 1   
    26   13   27 1   
    27   13   28 1   
    28   14   18 1   
    29   14   21 1   
    30   20   29 1   
@<TRIPOS>SUBSTRUCTURE
     1 4HY         1 TEMP              0 ****  ****    0 ROOT
