@<TRIPOS>MOLECULE
4HZ
   42    44     1     0     0
SMALL
bcc


@<TRIPOS>ATOM
      1 C1          1.5000   -1.7150    0.5010 c3        1 4HZ      0.171500
      2 N2          5.2900    1.3200    2.0330 nb        1 4HZ     -0.665000
      3 C3          0.2200    1.1940   -1.7870 c3        1 4HZ      0.034800
      4 C4          0.2950    2.7660   -1.7070 c3        1 4HZ      0.631900
      5 C5          2.9600   -0.1990    1.7780 ca        1 4HZ      0.596200
      6 C6          3.5010    0.0720    3.0750 ca        1 4HZ     -0.145700
      7 C8          4.7290    0.9990    0.8140 ca        1 4HZ      0.803800
      8 C9          5.4060    1.4640   -0.3860 cc        1 4HZ     -0.246000
      9 C10         5.3920    0.8230   -1.6380 cd        1 4HZ     -0.045100
     10 C15         7.9110    4.5570   -1.5810 ca        1 4HZ      0.435200
     11 F3          2.9180   -0.3910    4.1990 f         1 4HZ     -0.106900
     12 C7          4.6820    0.8630    3.1280 ca        1 4HZ      0.463200
     13 N3          3.5790    0.2700    0.6510 nb        1 4HZ     -0.834000
     14 N1          1.7230   -0.8780    1.6530 nh        1 4HZ     -0.868900
     15 C2          0.8820   -0.9530   -0.6890 c         1 4HZ      0.541100
     16 N           0.9540    0.5600   -0.6710 n4        1 4HZ     -0.669800
     17 F2          1.5770    3.2340   -1.7880 f         1 4HZ     -0.201633
     18 F1         -0.4090    3.3560   -2.7120 f         1 4HZ     -0.201633
     19 F          -0.2060    3.2530   -0.5290 f         1 4HZ     -0.201633
     20 O           0.3830   -1.4620   -1.6780 o         1 4HZ     -0.418100
     21 C           0.5850   -2.9090    0.7910 c3        1 4HZ     -0.125100
     22 C12         6.2510    2.6300   -0.5130 ca        1 4HZ     -0.150100
     23 C13         6.6780    3.6590    0.3320 ca        1 4HZ     -0.041000
     24 C14         7.5150    4.6290   -0.2110 ca        1 4HZ     -0.115900
     25 CL          8.0800    5.9080    0.7370 cl        1 4HZ     -0.047400
     26 N5          7.5330    3.5990   -2.4270 nb        1 4HZ     -0.641000
     27 C11         6.7120    2.6450   -1.8920 ca        1 4HZ      0.410800
     28 N4          6.1590    1.5260   -2.5480 na        1 4HZ     -0.260100
     29 H1          2.4790   -2.1100    0.0690 h1        1 4HZ      0.120700
     30 H2          0.6600    0.8650   -2.7720 hx        1 4HZ      0.147700
     31 H3         -0.8650    0.8880   -1.7560 hx        1 4HZ      0.147700
     32 H4          4.8970   -0.1080   -1.9260 h4        1 4HZ      0.170000
     33 H5          8.5790    5.3310   -2.0080 h4        1 4HZ      0.053100
     34 H6          5.1410    1.1160    4.1060 h4        1 4HZ      0.070100
     35 H7          1.4030   -1.2770    2.5180 hn        1 4HZ      0.457800
     36 H8          0.5730    0.9000    0.2240 hn        1 4HZ      0.489800
     37 H9          1.0850   -3.5940    1.5200 hc        1 4HZ      0.084367
     38 H10        -0.3950   -2.5850    1.2160 hc        1 4HZ      0.084367
     39 H11         0.3980   -3.4740   -0.1570 hc        1 4HZ      0.084367
     40 H12         6.3710    3.6950    1.3880 ha        1 4HZ      0.171000
     41 H13         6.3700    1.2530   -3.4750 hn        1 4HZ      0.326700
     42 HN3         1.9560    0.8320   -0.7100 hn        1 4HZ      0.489800
@<TRIPOS>BOND
     1    1   14 1   
     2    1   15 1   
     3    1   21 1   
     4    1   29 1   
     5    2    7 ar  
     6    2   12 ar  
     7    3    4 1   
     8    3   16 1   
     9    3   30 1   
    10    3   31 1   
    11    4   17 1   
    12    4   18 1   
    13    4   19 1   
    14    5    6 ar  
    15    5   13 ar  
    16    5   14 1   
    17    6   11 1   
    18    6   12 ar  
    19    7    8 1   
    20    7   13 ar  
    21    8    9 2   
    22    8   22 1   
    23    9   28 1   
    24    9   32 1   
    25   10   24 ar  
    26   10   26 ar  
    27   10   33 1   
    28   12   34 1   
    29   14   35 1   
    30   15   16 1   
    31   15   20 2   
    32   16   36 1   
    33   16   42 1   
    34   21   37 1   
    35   21   38 1   
    36   21   39 1   
    37   22   23 ar  
    38   22   27 ar  
    39   23   24 ar  
    40   23   40 1   
    41   24   25 1   
    42   26   27 ar  
    43   27   28 1   
    44   28   41 1   
@<TRIPOS>SUBSTRUCTURE
     1 4HZ         1 TEMP              0 ****  ****    0 ROOT
