@<TRIPOS>MOLECULE
4HZ
   42    44     1     0     0
SMALL
bcc


@<TRIPOS>ATOM
      1 C1          1.5460   -1.7420    0.5200 c3        1 4HZ      0.171500
      2 N2          5.3130    1.3450    2.0080 nb        1 4HZ     -0.665000
      3 C3          0.1950    1.1530   -1.7460 c3        1 4HZ      0.034800
      4 C4          0.2510    2.7250   -1.6660 c3        1 4HZ      0.631900
      5 C5          3.0010   -0.2070    1.7800 ca        1 4HZ      0.596200
      6 C6          3.5540    0.0700    3.0710 ca        1 4HZ     -0.145700
      7 C8          4.7410    1.0170    0.7960 ca        1 4HZ      0.803800
      8 C9          5.3960    1.4930   -0.4120 cc        1 4HZ     -0.246000
      9 C10         5.3750    0.8530   -1.6650 cd        1 4HZ     -0.045100
     10 C15         7.8420    4.6220   -1.6340 ca        1 4HZ      0.435200
     11 F3          2.9920   -0.4020    4.2010 f         1 4HZ     -0.106900
     12 C7          4.7250    0.8780    3.1110 ca        1 4HZ      0.463200
     13 N3          3.5990    0.2720    0.6460 nb        1 4HZ     -0.834000
     14 N1          1.7730   -0.9030    1.6710 nu        1 4HZ     -0.868900
     15 C2          0.9020   -0.9870   -0.6600 c         1 4HZ      0.541100
     16 N           0.9540    0.5270   -0.6420 ny        1 4HZ     -0.669800
     17 F2          1.5260    3.2100   -1.7660 f         1 4HZ     -0.201633
     18 F1         -0.4750    3.3070   -2.6600 f         1 4HZ     -0.201633
     19 F          -0.2390    3.2050   -0.4810 f         1 4HZ     -0.201633
     20 O           0.3970   -1.5010   -1.6440 o         1 4HZ     -0.418100
     21 C           0.6520   -2.9490    0.8200 c3        1 4HZ     -0.125100
     22 C12         6.2230    2.6710   -0.5480 ca        1 4HZ     -0.150100
     23 C13         6.6460    3.7050    0.2930 ca        1 4HZ     -0.041000
     24 C14         7.4620    4.6870   -0.2590 ca        1 4HZ     -0.115900
     25 Cl          8.0210    5.9730    0.6830 cl        1 4HZ     -0.047400
     26 N5          7.4670    3.6590   -2.4770 nb        1 4HZ     -0.641000
     27 C11         6.6670    2.6940   -1.9330 ca        1 4HZ      0.410800
     28 N4          6.1210    1.5670   -2.5830 na        1 4HZ     -0.260100
     29 H1          2.5250   -2.1210    0.0750 h1        1 4HZ      0.120700
     30 H2          0.6250    0.8300   -2.7380 hx        1 4HZ      0.147700
     31 H3         -0.8850    0.8320   -1.7000 hx        1 4HZ      0.147700
     32 H4          4.8910   -0.0850   -1.9470 h4        1 4HZ      0.170000
     33 H5          8.4950    5.4060   -2.0680 h4        1 4HZ      0.053100
     34 H6          5.1920    1.1360    4.0830 h4        1 4HZ      0.070100
     35 H7          1.4690   -1.3070    2.5380 hn        1 4HZ      0.457800
     36 H8          0.5810    0.8620    0.2590 hn        1 4HZ      0.489800
     37 H9         -0.3270   -2.6390    1.2580 hc        1 4HZ      0.084367
     38 H10         0.4610   -3.5140   -0.1260 hc        1 4HZ      0.084367
     39 H11         1.1720   -3.6280    1.5410 hc        1 4HZ      0.084367
     40 H12         6.3520    3.7360    1.3530 ha        1 4HZ      0.171000
     41 H13         6.3240    1.2990   -3.5130 hn        1 4HZ      0.326700
     42 HN3         1.9510    0.8130   -0.6950 hn        1 4HZ      0.489800
@<TRIPOS>BOND
     1    1   14 1   
     2    1   15 1   
     3    1   21 1   
     4    1   29 1   
     5    2    7 ar  
     6    2   12 ar  
     7    3    4 1   
     8    3   16 1   
     9    3   30 1   
    10    3   31 1   
    11    4   17 1   
    12    4   18 1   
    13    4   19 1   
    14    5    6 ar  
    15    5   13 ar  
    16    5   14 1   
    17    6   11 1   
    18    6   12 ar  
    19    7    8 1   
    20    7   13 ar  
    21    8    9 2   
    22    8   22 1   
    23    9   28 1   
    24    9   32 1   
    25   10   24 ar  
    26   10   26 ar  
    27   10   33 1   
    28   12   34 1   
    29   14   35 1   
    30   15   16 1   
    31   15   20 2   
    32   16   36 1   
    33   16   42 1   
    34   21   37 1   
    35   21   38 1   
    36   21   39 1   
    37   22   23 ar  
    38   22   27 ar  
    39   23   24 ar  
    40   23   40 1   
    41   24   25 1   
    42   26   27 ar  
    43   27   28 1   
    44   28   41 1   
@<TRIPOS>SUBSTRUCTURE
     1 4HZ         1 TEMP              0 ****  ****    0 ROOT
