@<TRIPOS>MOLECULE
4I4
   56    58     1     0     0
SMALL
bcc


@<TRIPOS>ATOM
      1 C14         0.0040   -0.3110   -0.0980 c3        1 4I4     -0.142400
      2 C15         1.5060   -0.5010   -0.1560 c3        1 4I4     -0.076400
      3 C16         2.1250   -0.2700    1.2100 c3        1 4I4     -0.031100
      4 C17         3.6010   -0.4530    1.1750 ca        1 4I4     -0.093300
      5 C22         4.4120    0.4950    0.5380 ca        1 4I4     -0.124500
      6 C18         4.1940   -1.5610    1.7900 ca        1 4I4     -0.124500
      7 C21         5.7960    0.3340    0.5140 ca        1 4I4     -0.123500
      8 C19         5.5790   -1.7200    1.7650 ca        1 4I4     -0.123500
      9 C20         6.3810   -0.7740    1.1280 ca        1 4I4     -0.121000
     10 C12        -0.6160   -0.4960   -1.4650 c         1 4I4      0.667100
     11 O13         0.0350   -0.7520   -2.4870 o         1 4I4     -0.551100
     12 O9         -3.5240    1.7000   -3.1730 o         1 4I4     -0.732100
     13 C8         -2.8760    0.7360   -3.6620 c         1 4I4      0.683100
     14 C10        -2.7090   -0.5600   -2.8280 c3        1 4I4      0.021700
     15 C25        -4.1220   -1.0760   -2.4580 c3        1 4I4     -0.117400
     16 C24        -4.3220   -0.7060   -0.9790 c3        1 4I4      0.110500
     17 N26        -5.1150    0.4950   -0.6520 n2        1 4I4     -0.057200
     18 N27        -5.4930    1.3550   -1.3960 n1        1 4I4      0.229000
     19 N28        -6.0750    2.1770   -2.0420 n2        1 4I4     -0.178400
     20 C23        -2.8660   -0.5360   -0.4320 c3        1 4I4      0.092000
     21 N11        -2.0100   -0.3010   -1.5740 n         1 4I4     -0.482800
     22 N7         -2.3630    0.8380   -4.9190 n         1 4I4     -0.431800
     23 C6         -2.5430    2.0540   -5.7090 c3        1 4I4      0.083000
     24 C5         -2.1280    1.7340   -7.1520 c3        1 4I4     -0.097400
     25 C4         -1.8080    0.2440   -7.1900 c3        1 4I4     -0.090400
     26 C3         -1.7890   -0.2390   -5.7210 c3        1 4I4      0.024400
     27 C1         -0.3580   -0.5820   -5.2890 c2        1 4I4      0.599600
     28 N2          0.7220    0.1030   -5.3920 n2        1 4I4     -0.805100
     29 OXT        -0.3670   -1.8430   -4.7310 oh        1 4I4     -0.616600
     30 H141       -0.2370    0.7210    0.2750 hc        1 4I4      0.069700
     31 H142       -0.4450   -1.0510    0.6180 hc        1 4I4      0.069700
     32 H151        1.9490    0.2110   -0.9020 hc        1 4I4      0.069700
     33 H152        1.7420   -1.5370   -0.5150 hc        1 4I4      0.069700
     34 H161        1.6670   -0.9770    1.9530 hc        1 4I4      0.045700
     35 H162        1.8890    0.7740    1.5560 hc        1 4I4      0.045700
     36 H22         3.9520    1.3700    0.0560 ha        1 4I4      0.128500
     37 H18         3.5670   -2.3090    2.2970 ha        1 4I4      0.128500
     38 H21         6.4270    1.0820    0.0120 ha        1 4I4      0.137000
     39 H19         6.0380   -2.5940    2.2520 ha        1 4I4      0.137000
     40 H20         7.4740   -0.9010    1.1100 ha        1 4I4      0.139000
     41 H10        -2.1370   -1.3360   -3.4250 h1        1 4I4      0.134700
     42 H251       -4.9020   -0.6650   -3.1410 hc        1 4I4      0.097200
     43 H252       -4.1480   -2.1950   -2.5470 hc        1 4I4      0.097200
     44 H24        -4.8770   -1.5100   -0.4080 h1        1 4I4      0.148700
     45 H231       -2.6050   -1.4950    0.1030 h1        1 4I4      0.086200
     46 H232       -2.7600    0.3110    0.3020 h1        1 4I4      0.086200
     47 H28        -5.5690    3.0460   -2.2620 hn        1 4I4      0.538400
     48 H61C       -1.9090    2.8730   -5.2710 h1        1 4I4      0.064700
     49 H62C       -3.6180    2.3800   -5.6540 h1        1 4I4      0.064700
     50 H3         -2.4210   -1.1690   -5.6170 h1        1 4I4      0.082700
     51 H51C       -2.9540    1.9870   -7.8610 hc        1 4I4      0.070700
     52 H52C       -1.2330    2.3420   -7.4380 hc        1 4I4      0.070700
     53 H41C       -0.8290    0.0480   -7.6930 hc        1 4I4      0.076200
     54 H42C       -2.5950   -0.3160   -7.7530 hc        1 4I4      0.076200
     55 H21N        0.6260    1.0000   -5.8140 hn        1 4I4      0.410400
     56 HXT         0.4950   -2.0320   -4.3200 ho        1 4I4      0.463000
@<TRIPOS>BOND
     1    1    2 1   
     2    1   10 1   
     3    1   30 1   
     4    1   31 1   
     5    2    3 1   
     6    2   32 1   
     7    2   33 1   
     8    3    4 1   
     9    3   34 1   
    10    3   35 1   
    11    4    5 ar  
    12    4    6 ar  
    13    5    7 ar  
    14    5   36 1   
    15    6    8 ar  
    16    6   37 1   
    17    7    9 ar  
    18    7   38 1   
    19    8    9 ar  
    20    8   39 1   
    21    9   40 1   
    22   10   11 2   
    23   10   21 1   
    24   12   13 2   
    25   13   14 1   
    26   13   22 1   
    27   14   15 1   
    28   14   21 1   
    29   14   41 1   
    30   15   16 1   
    31   15   42 1   
    32   15   43 1   
    33   16   17 1   
    34   16   20 1   
    35   16   44 1   
    36   17   18 2   
    37   18   19 2   
    38   19   47 1   
    39   20   21 1   
    40   20   45 1   
    41   20   46 1   
    42   22   23 1   
    43   22   26 1   
    44   23   24 1   
    45   23   48 1   
    46   23   49 1   
    47   24   25 1   
    48   24   51 1   
    49   24   52 1   
    50   25   26 1   
    51   25   53 1   
    52   25   54 1   
    53   26   27 1   
    54   26   50 1   
    55   27   28 2   
    56   27   29 1   
    57   28   55 1   
    58   29   56 1   
@<TRIPOS>SUBSTRUCTURE
     1 4I4         1 TEMP              0 ****  ****    0 ROOT
