@<TRIPOS>MOLECULE
4I4
   56    58     1     0     0
SMALL
bcc


@<TRIPOS>ATOM
      1 C14        -0.2500   -0.3780   -0.1420 c3        1 4I4     -0.139400
      2 C15         1.2470   -0.2580   -0.3420 c3        1 4I4     -0.076400
      3 C16         1.9760   -0.4590    0.9730 c3        1 4I4     -0.031100
      4 C17         3.4490   -0.3220    0.8020 ca        1 4I4     -0.093300
      5 C22         4.0210    0.9450    0.6300 ca        1 4I4     -0.124500
      6 C18         4.2740   -1.4510    0.8240 ca        1 4I4     -0.124500
      7 C21         5.4000    1.0790    0.4810 ca        1 4I4     -0.123500
      8 C19         5.6540   -1.3150    0.6760 ca        1 4I4     -0.123500
      9 C20         6.2180   -0.0510    0.5030 ca        1 4I4     -0.121000
     10 C12        -0.9850   -0.1210   -1.4400 c         1 4I4      0.674100
     11 O13        -0.4800    0.4710   -2.4050 o         1 4I4     -0.560100
     12 O9         -3.1470    1.9500   -2.8770 o         1 4I4     -0.738100
     13 C8         -2.8450    0.8880   -3.4870 c         1 4I4      0.689100
     14 C10        -3.0910   -0.4620   -2.7740 c3        1 4I4      0.029700
     15 C25        -4.5810   -0.5420   -2.3500 c3        1 4I4     -0.118400
     16 C24        -4.5800   -0.3880   -0.8200 c3        1 4I4      0.092500
     17 N26        -4.8060    0.9560   -0.2570 n2        1 4I4     -0.059200
     18 N27        -4.9390    1.9850   -0.8590 n1        1 4I4      0.220000
     19 N28        -5.2450    3.0390   -1.3350 n2        1 4I4     -0.174400
     20 C23        -3.1400   -0.8770   -0.4220 c3        1 4I4      0.099000
     21 N11        -2.2950   -0.6200   -1.5610 n         1 4I4     -0.489800
     22 N7         -2.3440    0.9320   -4.7500 n         1 4I4     -0.423800
     23 C6         -2.0240    2.2040   -5.3910 c3        1 4I4      0.087000
     24 C5         -1.6710    1.9100   -6.8540 c3        1 4I4     -0.095400
     25 C4         -1.7630    0.3990   -7.0330 c3        1 4I4     -0.082400
     26 C3         -2.1880   -0.1900   -5.6660 c3        1 4I4      0.030400
     27 C1         -1.1620   -1.2340   -5.2180 c2        1 4I4      0.578600
     28 N2          0.0390   -1.1200   -4.7870 n2        1 4I4     -0.813100
     29 OXT        -1.7460   -2.4830   -5.3530 oh        1 4I4     -0.620600
     30 H141       -0.5970    0.3800    0.6110 hc        1 4I4      0.068700
     31 H142       -0.4970   -1.4000    0.2520 hc        1 4I4      0.068700
     32 H151        1.5890   -1.0210   -1.0910 hc        1 4I4      0.070700
     33 H152        1.4930    0.7510   -0.7660 hc        1 4I4      0.070700
     34 H161        1.6180    0.3000    1.7200 hc        1 4I4      0.046200
     35 H162        1.7310   -1.4740    1.3860 hc        1 4I4      0.046200
     36 H22         3.3770    1.8370    0.6140 ha        1 4I4      0.128000
     37 H18         3.8360   -2.4500    0.9630 ha        1 4I4      0.128000
     38 H21         5.8430    2.0760    0.3480 ha        1 4I4      0.137000
     39 H19         6.2980   -2.2070    0.6960 ha        1 4I4      0.137000
     40 H20         7.3070    0.0560    0.3880 ha        1 4I4      0.139000
     41 H10        -2.8460   -1.3260   -3.4630 h1        1 4I4      0.119700
     42 H251       -5.2020    0.2140   -2.8870 hc        1 4I4      0.098700
     43 H252       -4.9880   -1.5570   -2.6000 hc        1 4I4      0.098700
     44 H24        -5.3750   -1.0120   -0.3150 h1        1 4I4      0.150700
     45 H231       -3.2250   -1.9890   -0.2480 h1        1 4I4      0.094200
     46 H232       -2.7500   -0.3990    0.5160 h1        1 4I4      0.094200
     47 H28        -4.4780    3.6780   -1.5930 hn        1 4I4      0.540400
     48 H61C       -2.9090    2.8930   -5.3120 h1        1 4I4      0.067700
     49 H62C       -1.1620    2.6790   -4.8470 h1        1 4I4      0.067700
     50 H3         -3.1860   -0.7130   -5.7740 h1        1 4I4      0.082700
     51 H51C       -2.3820    2.4360   -7.5380 hc        1 4I4      0.071200
     52 H52C       -0.6410    2.2780   -7.0840 hc        1 4I4      0.071200
     53 H41C       -2.5260    0.1300   -7.8050 hc        1 4I4      0.075700
     54 H42C       -0.7820   -0.0270   -7.3600 hc        1 4I4      0.075700
     55 H21N        0.3900   -0.1950   -4.6670 hn        1 4I4      0.435400
     56 HXT        -1.0820   -3.1790   -5.2140 ho        1 4I4      0.451000
@<TRIPOS>BOND
     1    1    2 1   
     2    1   10 1   
     3    1   30 1   
     4    1   31 1   
     5    2    3 1   
     6    2   32 1   
     7    2   33 1   
     8    3    4 1   
     9    3   34 1   
    10    3   35 1   
    11    4    5 ar  
    12    4    6 ar  
    13    5    7 ar  
    14    5   36 1   
    15    6    8 ar  
    16    6   37 1   
    17    7    9 ar  
    18    7   38 1   
    19    8    9 ar  
    20    8   39 1   
    21    9   40 1   
    22   10   11 2   
    23   10   21 1   
    24   12   13 2   
    25   13   14 1   
    26   13   22 1   
    27   14   15 1   
    28   14   21 1   
    29   14   41 1   
    30   15   16 1   
    31   15   42 1   
    32   15   43 1   
    33   16   17 1   
    34   16   20 1   
    35   16   44 1   
    36   17   18 2   
    37   18   19 2   
    38   19   47 1   
    39   20   21 1   
    40   20   45 1   
    41   20   46 1   
    42   22   23 1   
    43   22   26 1   
    44   23   24 1   
    45   23   48 1   
    46   23   49 1   
    47   24   25 1   
    48   24   51 1   
    49   24   52 1   
    50   25   26 1   
    51   25   53 1   
    52   25   54 1   
    53   26   27 1   
    54   26   50 1   
    55   27   28 2   
    56   27   29 1   
    57   28   55 1   
    58   29   56 1   
@<TRIPOS>SUBSTRUCTURE
     1 4I4         1 TEMP              0 ****  ****    0 ROOT
