@<TRIPOS>MOLECULE
4I4
   56    58     1     0     0
SMALL
bcc


@<TRIPOS>ATOM
      1 C14         0.0390   -0.3530    0.0610 c3        1 4I4     -0.139400
      2 C15         1.5400   -0.1690   -0.0420 c3        1 4I4     -0.076400
      3 C16         2.1720   -0.1850    1.3370 c3        1 4I4     -0.031100
      4 C17         3.6500   -0.0210    1.2570 ca        1 4I4     -0.093300
      5 C22         4.2550    1.1710    1.6710 ca        1 4I4     -0.124500
      6 C18         4.4480   -1.0680    0.7800 ca        1 4I4     -0.124500
      7 C21         5.6410    1.3130    1.6080 ca        1 4I4     -0.123500
      8 C19         5.8320   -0.9230    0.7170 ca        1 4I4     -0.123500
      9 C20         6.4310    0.2680    1.1300 ca        1 4I4     -0.121000
     10 C12        -0.5990   -0.3120   -1.3110 c         1 4I4      0.673100
     11 O13        -0.0330    0.1440   -2.3150 o         1 4I4     -0.560100
     12 O9         -2.6790    1.4550   -3.2000 o         1 4I4     -0.738100
     13 C8         -2.3110    0.3240   -3.6180 c         1 4I4      0.689100
     14 C10        -2.5890   -0.9120   -2.7300 c3        1 4I4      0.028700
     15 C25        -4.1060   -0.9690   -2.4090 c3        1 4I4     -0.118400
     16 C24        -4.2240   -0.5910   -0.9230 c3        1 4I4      0.092500
     17 N26        -4.5140    0.8160   -0.5870 n2        1 4I4     -0.059200
     18 N27        -4.6180    1.7400   -1.3440 n1        1 4I4      0.220000
     19 N28        -4.9030    2.7030   -1.9940 n2        1 4I4     -0.173400
     20 C23        -2.8120   -0.9760   -0.3530 c3        1 4I4      0.099000
     21 N11        -1.8850   -0.8650   -1.4520 n         1 4I4     -0.489800
     22 N7         -1.7130    0.1920   -4.8320 n         1 4I4     -0.423800
     23 C6         -1.3660    1.3630   -5.6330 c3        1 4I4      0.087000
     24 C5         -0.8930    0.8640   -7.0030 c3        1 4I4     -0.095400
     25 C4         -0.9450   -0.6590   -6.9580 c3        1 4I4     -0.082400
     26 C3         -1.4660   -1.0490   -5.5540 c3        1 4I4      0.030400
     27 C1         -0.4610   -1.9840   -4.8770 c2        1 4I4      0.578600
     28 N2          0.7010   -1.7720   -4.3790 n2        1 4I4     -0.814100
     29 OXT        -1.0100   -3.2550   -4.8650 oh        1 4I4     -0.620600
     30 H141       -0.4040    0.4740    0.6790 hc        1 4I4      0.068700
     31 H142       -0.1900   -1.3280    0.5670 hc        1 4I4      0.068700
     32 H151        1.9780   -0.9880   -0.6720 hc        1 4I4      0.070700
     33 H152        1.7660    0.8000   -0.5600 hc        1 4I4      0.070700
     34 H161        1.9350   -1.1580    1.8470 hc        1 4I4      0.046200
     35 H162        1.7280    0.6350    1.9620 hc        1 4I4      0.046200
     36 H22         3.6380    1.9980    2.0530 ha        1 4I4      0.128500
     37 H18         3.9780   -2.0080    0.4570 ha        1 4I4      0.128500
     38 H21         6.1100    2.2520    1.9370 ha        1 4I4      0.137500
     39 H19         6.4540   -1.7500    0.3420 ha        1 4I4      0.137500
     40 H20         7.5240    0.3810    1.0810 ha        1 4I4      0.139000
     41 H10        -2.2770   -1.8620   -3.2600 h1        1 4I4      0.119700
     42 H251       -4.6950   -0.3180   -3.0980 hc        1 4I4      0.098700
     43 H252       -4.4760   -2.0210   -2.5340 hc        1 4I4      0.098700
     44 H24        -5.0460   -1.1530   -0.3910 h1        1 4I4      0.150700
     45 H231       -2.5040   -0.3560    0.5310 h1        1 4I4      0.094700
     46 H232       -2.8910   -2.0530   -0.0220 h1        1 4I4      0.094700
     47 H28        -4.1280    3.3170   -2.2880 hn        1 4I4      0.540400
     48 H61C       -0.5580    1.9390   -5.1030 h1        1 4I4      0.067700
     49 H62C       -2.2660    2.0300   -5.7260 h1        1 4I4      0.067700
     50 H3         -2.4430   -1.6110   -5.6560 h1        1 4I4      0.082700
     51 H51C        0.1460    1.2230   -7.2070 hc        1 4I4      0.071200
     52 H52C       -1.5560    1.2620   -7.8110 hc        1 4I4      0.071200
     53 H41C        0.0660   -1.1010   -7.1430 hc        1 4I4      0.075700
     54 H42C       -1.6400   -1.0620   -7.7360 hc        1 4I4      0.075700
     55 H21N        1.0240   -0.8290   -4.3750 hn        1 4I4      0.436400
     56 HXT        -0.3470   -3.9040   -4.5720 ho        1 4I4      0.451000
@<TRIPOS>BOND
     1    1    2 1   
     2    1   10 1   
     3    1   30 1   
     4    1   31 1   
     5    2    3 1   
     6    2   32 1   
     7    2   33 1   
     8    3    4 1   
     9    3   34 1   
    10    3   35 1   
    11    4    5 ar  
    12    4    6 ar  
    13    5    7 ar  
    14    5   36 1   
    15    6    8 ar  
    16    6   37 1   
    17    7    9 ar  
    18    7   38 1   
    19    8    9 ar  
    20    8   39 1   
    21    9   40 1   
    22   10   11 2   
    23   10   21 1   
    24   12   13 2   
    25   13   14 1   
    26   13   22 1   
    27   14   15 1   
    28   14   21 1   
    29   14   41 1   
    30   15   16 1   
    31   15   42 1   
    32   15   43 1   
    33   16   17 1   
    34   16   20 1   
    35   16   44 1   
    36   17   18 2   
    37   18   19 2   
    38   19   47 1   
    39   20   21 1   
    40   20   45 1   
    41   20   46 1   
    42   22   23 1   
    43   22   26 1   
    44   23   24 1   
    45   23   48 1   
    46   23   49 1   
    47   24   25 1   
    48   24   51 1   
    49   24   52 1   
    50   25   26 1   
    51   25   53 1   
    52   25   54 1   
    53   26   27 1   
    54   26   50 1   
    55   27   28 2   
    56   27   29 1   
    57   28   55 1   
    58   29   56 1   
@<TRIPOS>SUBSTRUCTURE
     1 4I4         1 TEMP              0 ****  ****    0 ROOT
