@<TRIPOS>MOLECULE
4I4
   56    52     1     0     0
SMALL
bcc


@<TRIPOS>ATOM
      1 C14         0.9800    1.0930    1.9970 c3        1 4I4     -0.182000
      2 C15         2.4720    1.3770    1.7070 c3        1 4I4     -0.158000
      3 C16         2.9160    2.6450    2.4790 c3        1 4I4     -0.115000
      4 C17         4.1980    3.2120    1.8440 c2        1 4I4     -0.096000
      5 C22         5.3750    3.2560    2.5800 c2        1 4I4     -0.125000
      6 C18         4.1450    3.7990    0.5880 c1        1 4I4     -0.121000
      7 C21         6.4960    3.8870    2.0580 c1        1 4I4     -0.122000
      8 C19         5.2670    4.4290    0.0690 c1        1 4I4     -0.118500
      9 C20         6.4410    4.4720    0.8040 c1        1 4I4     -0.118500
     10 C12         0.4650   -0.0130    1.0310 c1        1 4I4      0.307000
     11 O13         1.2540   -0.6460    0.3580 o         1 4I4     -0.189000
     12 O9         -1.3610    0.4500   -1.5670 o         1 4I4     -0.386000
     13 C8         -1.6300   -0.7240   -1.3910 c1        1 4I4      0.304000
     14 C10        -1.6760   -1.2270   -0.1320 c3        1 4I4     -0.054000
     15 C25        -3.1490   -1.2430    0.3680 c3        1 4I4     -0.161000
     16 C24        -3.1540   -0.6590    1.5520 c3        1 4I4     -0.046000
     17 N26        -4.4450    0.0150    1.7510 n2        1 4I4     -0.257000
     18 N27        -5.2130   -0.3600    2.6670 n2        1 4I4      0.046000
     19 N28        -4.8830   -1.3020    3.4080 n1        1 4I4     -0.085000
     20 C23        -1.8930    0.3470    1.4830 c3        1 4I4      0.144000
     21 N11        -0.9830   -0.2260    0.8630 n2        1 4I4     -0.123000
     22 N7         -2.0530   -1.5600   -2.5330 n2        1 4I4     -0.281000
     23 C6         -2.2100   -1.0860   -4.0490 c3        1 4I4     -0.029000
     24 C5         -1.7820   -2.0610   -4.7960 c3        1 4I4     -0.173000
     25 C4         -2.0130   -3.3250   -3.9880 c3        1 4I4     -0.168000
     26 C3         -2.3750   -2.8440   -2.4910 c3        1 4I4      0.037000
     27 C1         -1.6530   -3.6420   -1.3770 c2        1 4I4      0.093000
     28 N2         -2.3200   -4.4500   -0.6260 n1        1 4I4     -0.288000
     29 OXT        -0.2770   -3.4840   -1.1850 oh        1 4I4     -0.301000
     30 H141        0.8790    0.7910    2.9240 hc        1 4I4      0.134000
     31 H142        0.4630    1.9070    1.8640 hc        1 4I4      0.134000
     32 H151        3.0100    0.6160    1.9960 hc        1 4I4      0.112500
     33 H152        2.5960    1.5180    0.7550 hc        1 4I4      0.112500
     34 H161        3.0900    2.4140    3.4180 hc        1 4I4      0.091000
     35 H162        2.2050    3.3210    2.4350 hc        1 4I4      0.091000
     36 H22         5.4140    2.8440    3.4620 ha        1 4I4      0.128000
     37 H18         3.3230    3.7690    0.0710 ha        1 4I4      0.130000
     38 H21         7.3210    3.9180    2.5730 ha        1 4I4      0.141000
     39 H19         5.2300    4.8410   -0.8120 ha        1 4I4      0.142000
     40 H20         7.2370    4.9200    0.4350 ha        1 4I4      0.142000
     41 H10        -1.2420   -2.0950   -0.2650 h1        1 4I4      0.191000
     42 H251       -3.4660   -2.1720    0.4500 hc        1 4I4      0.137000
     43 H252       -3.7220   -0.7460   -0.2550 hc        1 4I4      0.137000
     44 H24        -3.1100   -1.2260    2.3440 h1        1 4I4      0.150000
     45 H231       -2.1480    1.1670    1.0140 h1        1 4I4      0.204000
     46 H232       -1.5880    0.5660    2.3970 h1        1 4I4      0.204000
     47 H28        -4.0840   -1.7180    3.2860 DU        1 4I4      0.165500
     48 H61C       -3.1610   -0.9000   -4.2490 h1        1 4I4      0.116500
     49 H62C       -1.6680   -0.2790   -4.2080 h1        1 4I4      0.116500
     50 H3         -3.3210   -2.9890   -2.2670 h1        1 4I4      0.104000
     51 H51C       -0.8190   -1.9490   -4.9840 hc        1 4I4      0.115000
     52 H52C       -2.2960   -2.0960   -5.6420 hc        1 4I4      0.115000
     53 H41C       -1.1910   -3.8800   -3.9800 hc        1 4I4      0.114000
     54 H42C       -2.7690   -3.8410   -4.3730 hc        1 4I4      0.114000
     55 H21N       -3.2230   -4.5530   -0.7520 DU        1 4I4      0.165500
     56 HXT         0.1020   -4.2780   -1.1060 ho        1 4I4      0.260000
@<TRIPOS>BOND
     1    1    2 1   
     2    1   10 1   
     3    1   30 1   
     4    1   31 1   
     5    2    3 1   
     6    2   32 1   
     7    2   33 1   
     8    3    4 1   
     9    3   34 1   
    10    3   35 1   
    11    4    5 1   
    12    4    6 1   
    13    5    7 1   
    14    5   36 1   
    15    6   37 1   
    16    7   38 1   
    17    8    9 1   
    18    8   39 1   
    19    9   40 1   
    20   10   11 1   
    21   12   13 1   
    22   13   14 1   
    23   14   15 1   
    24   14   21 1   
    25   14   41 1   
    26   15   16 1   
    27   15   42 1   
    28   15   43 1   
    29   16   17 1   
    30   16   20 1   
    31   16   44 1   
    32   17   18 1   
    33   18   19 1   
    34   20   21 1   
    35   20   45 1   
    36   20   46 1   
    37   22   23 1   
    38   22   26 1   
    39   23   24 1   
    40   23   48 1   
    41   23   49 1   
    42   24   25 1   
    43   24   51 1   
    44   24   52 1   
    45   25   26 1   
    46   25   53 1   
    47   25   54 1   
    48   26   27 1   
    49   26   50 1   
    50   27   28 1   
    51   27   29 1   
    52   29   56 1   
@<TRIPOS>SUBSTRUCTURE
     1 4I4         1 TEMP              0 ****  ****    0 ROOT
