@<TRIPOS>MOLECULE
4I4
   56    58     1     0     0
SMALL
bcc


@<TRIPOS>ATOM
      1 C14        -2.1260   -1.2050    0.3330 c3        1 4I4     -0.140400
      2 C15        -3.2560   -0.2330    0.6050 c3        1 4I4     -0.075400
      3 C16        -4.5940   -0.8670    0.2740 c3        1 4I4     -0.032100
      4 C17        -5.7170    0.0790    0.5200 ca        1 4I4     -0.092300
      5 C22        -5.9350    1.1520   -0.3520 ca        1 4I4     -0.125000
      6 C18        -6.5720   -0.1030    1.6120 ca        1 4I4     -0.125000
      7 C21        -6.9930    2.0320   -0.1330 ca        1 4I4     -0.124000
      8 C19        -7.6290    0.7790    1.8300 ca        1 4I4     -0.124000
      9 C20        -7.8410    1.8470    0.9600 ca        1 4I4     -0.122000
     10 C12        -0.7870   -0.5710    0.6300 c         1 4I4      0.682100
     11 O13        -0.6310    0.6180    0.9530 o         1 4I4     -0.572100
     12 O9          2.3810   -0.5890   -1.4570 o         1 4I4     -0.701100
     13 C8          2.3240   -0.0790   -0.3120 c         1 4I4      0.683100
     14 C10         1.6740   -0.8690    0.8540 c3        1 4I4      0.042700
     15 C25         2.5480   -2.1110    1.1490 c3        1 4I4     -0.121400
     16 C24         1.8380   -3.2730    0.4290 c3        1 4I4      0.100500
     17 N26         2.3090   -3.6240   -0.9280 n2        1 4I4     -0.051200
     18 N27         3.2140   -3.1030   -1.5190 n1        1 4I4      0.215000
     19 N28         4.1590   -2.7210   -2.1440 n2        1 4I4     -0.160400
     20 C23         0.3420   -2.8020    0.3490 c3        1 4I4      0.113000
     21 N11         0.3570   -1.3690    0.5030 n         1 4I4     -0.505800
     22 N7          2.9080    1.1280   -0.0450 n         1 4I4     -0.433800
     23 C6          2.5370    1.9920    1.0680 c3        1 4I4      0.076000
     24 C5          2.9920    3.4150    0.7140 c3        1 4I4     -0.092400
     25 C4          3.7830    3.3120   -0.5850 c3        1 4I4     -0.082400
     26 C3          3.6790    1.8430   -1.0570 c3        1 4I4      0.078400
     27 C1          5.0560    1.2030   -1.3100 c2        1 4I4      0.634600
     28 N2          5.2860   -0.0650   -1.2420 n2        1 4I4     -0.912100
     29 OXT         5.9520    2.1880   -1.6770 oh        1 4I4     -0.618600
     30 H141       -2.2540   -2.1250    0.9650 hc        1 4I4      0.070200
     31 H142       -2.1420   -1.5220   -0.7450 hc        1 4I4      0.070200
     32 H151       -3.2340    0.0790    1.6820 hc        1 4I4      0.068700
     33 H152       -3.1110    0.6960   -0.0080 hc        1 4I4      0.068700
     34 H161       -4.6030   -1.1800   -0.8050 hc        1 4I4      0.046200
     35 H162       -4.7310   -1.7950    0.8910 hc        1 4I4      0.046200
     36 H22        -5.2690    1.2980   -1.2160 ha        1 4I4      0.128500
     37 H18        -6.4120   -0.9460    2.3010 ha        1 4I4      0.128500
     38 H21        -7.1590    2.8730   -0.8220 ha        1 4I4      0.137000
     39 H19        -8.2990    0.6290    2.6910 ha        1 4I4      0.137000
     40 H20        -8.6770    2.5420    1.1320 ha        1 4I4      0.139000
     41 H10         1.5920   -0.2160    1.7720 h1        1 4I4      0.111700
     42 H251        3.6090   -1.9480    0.8450 hc        1 4I4      0.101200
     43 H252        2.5420   -2.3240    2.2500 hc        1 4I4      0.101200
     44 H24         1.9220   -4.2480    0.9940 h1        1 4I4      0.143700
     45 H231       -0.1640   -3.0900   -0.6130 h1        1 4I4      0.085200
     46 H232       -0.2050   -3.3020    1.2000 h1        1 4I4      0.085200
     47 H28         4.0110   -1.8990   -2.7530 hn        1 4I4      0.547400
     48 H61C        1.4230    1.9550    1.2320 h1        1 4I4      0.069700
     49 H62C        3.0540    1.6330    2.0000 h1        1 4I4      0.069700
     50 H3          3.1410    1.7850   -2.0530 h1        1 4I4      0.097700
     51 H51C        2.1040    4.0830    0.5880 hc        1 4I4      0.071700
     52 H52C        3.6230    3.8350    1.5360 hc        1 4I4      0.071700
     53 H41C        3.3560    3.9800   -1.3730 hc        1 4I4      0.081700
     54 H42C        4.8480    3.6140   -0.4230 hc        1 4I4      0.081700
     55 H21N        6.2230   -0.3470   -1.4430 hn        1 4I4      0.394400
     56 HXT         6.8290    1.8160   -1.8570 ho        1 4I4      0.433000
@<TRIPOS>BOND
     1    1    2 1   
     2    1   10 1   
     3    1   30 1   
     4    1   31 1   
     5    2    3 1   
     6    2   32 1   
     7    2   33 1   
     8    3    4 1   
     9    3   34 1   
    10    3   35 1   
    11    4    5 ar  
    12    4    6 ar  
    13    5    7 ar  
    14    5   36 1   
    15    6    8 ar  
    16    6   37 1   
    17    7    9 ar  
    18    7   38 1   
    19    8    9 ar  
    20    8   39 1   
    21    9   40 1   
    22   10   11 2   
    23   10   21 1   
    24   12   13 2   
    25   13   14 1   
    26   13   22 1   
    27   14   15 1   
    28   14   21 1   
    29   14   41 1   
    30   15   16 1   
    31   15   42 1   
    32   15   43 1   
    33   16   17 1   
    34   16   20 1   
    35   16   44 1   
    36   17   18 2   
    37   18   19 2   
    38   19   47 1   
    39   20   21 1   
    40   20   45 1   
    41   20   46 1   
    42   22   23 1   
    43   22   26 1   
    44   23   24 1   
    45   23   48 1   
    46   23   49 1   
    47   24   25 1   
    48   24   51 1   
    49   24   52 1   
    50   25   26 1   
    51   25   53 1   
    52   25   54 1   
    53   26   27 1   
    54   26   50 1   
    55   27   28 2   
    56   27   29 1   
    57   28   55 1   
    58   29   56 1   
@<TRIPOS>SUBSTRUCTURE
     1 4I4         1 TEMP              0 ****  ****    0 ROOT
