@<TRIPOS>MOLECULE
4I5
   33    35     1     0     0
SMALL
bcc


@<TRIPOS>ATOM
      1 C1         -3.4080   -0.0820    0.0880 ca        1 4I5     -0.011600
      2 N1          2.7890    1.1360    1.7040 n         1 4I5     -0.665000
      3 O1          4.4300    1.8710    0.3140 o         1 4I5     -0.619100
      4 CL1        -4.8870   -0.9040    0.2840 cl        1 4I5     -0.102400
      5 C2         -3.4130    1.3290    0.0990 ca        1 4I5     -0.104000
      6 N2          0.2680    1.7710   -0.3810 na        1 4I5     -0.186400
      7 C3         -2.2400    2.0480   -0.0540 ca        1 4I5     -0.138000
      8 C4         -1.0440    1.3300   -0.2240 ca        1 4I5     -0.039200
      9 C5         -1.0390   -0.1160   -0.2380 ca        1 4I5     -0.092800
     10 C6         -2.2370   -0.8130   -0.0780 ca        1 4I5     -0.074000
     11 C7          0.3380   -0.5220   -0.4290 cc        1 4I5     -0.113400
     12 C8          1.1020    0.6470   -0.5280 cd        1 4I5     -0.071300
     13 C9          2.5610    0.7960   -0.7660 c3        1 4I5     -0.071500
     14 C10         3.1950   -0.4800   -1.3040 c3        1 4I5     -0.063400
     15 C11         3.3490   -1.6170   -0.3200 c3        1 4I5     -0.081400
     16 C12         2.0770   -2.1230    0.3290 c3        1 4I5     -0.074400
     17 C13         0.8180   -1.9100   -0.4890 c3        1 4I5     -0.009200
     18 C14         3.3290    1.2980    0.4570 c         1 4I5      0.656100
     19 HN1         3.2990    1.4330    2.4990 hn        1 4I5      0.317000
     20 HN1A        1.9470    0.6340    1.8320 hn        1 4I5      0.317000
     21 H2         -4.3660    1.8640    0.2320 ha        1 4I5      0.147000
     22 HN2         0.5530    2.7080   -0.4800 hn        1 4I5      0.303700
     23 H3         -2.2450    3.1460   -0.0440 ha        1 4I5      0.140000
     24 H6         -2.2450   -1.9130   -0.0860 ha        1 4I5      0.149000
     25 H9          2.7140    1.5930   -1.5580 hc        1 4I5      0.087700
     26 H10         2.5910   -0.8230   -2.1860 hc        1 4I5      0.059700
     27 H10A        4.2200   -0.2080   -1.6790 hc        1 4I5      0.059700
     28 H11         3.8360   -2.4670   -0.8720 hc        1 4I5      0.046200
     29 H11A        4.0640   -1.3040    0.4900 hc        1 4I5      0.046200
     30 H12         2.1940   -3.2230    0.5250 hc        1 4I5      0.040200
     31 H12A        1.9450   -1.6300    1.3290 hc        1 4I5      0.040200
     32 H13         0.0120   -2.5900   -0.0970 hc        1 4I5      0.052200
     33 H13A        1.0030   -2.2050   -1.5580 hc        1 4I5      0.052200
@<TRIPOS>BOND
     1    1    4 1   
     2    1    5 ar  
     3    1   10 ar  
     4    2   18 1   
     5    2   19 1   
     6    2   20 1   
     7    3   18 2   
     8    5    7 ar  
     9    5   21 1   
    10    6    8 1   
    11    6   12 1   
    12    6   22 1   
    13    7    8 ar  
    14    7   23 1   
    15    8    9 ar  
    16    9   10 ar  
    17    9   11 1   
    18   10   24 1   
    19   11   12 2   
    20   11   17 1   
    21   12   13 1   
    22   13   14 1   
    23   13   18 1   
    24   13   25 1   
    25   14   15 1   
    26   14   26 1   
    27   14   27 1   
    28   15   16 1   
    29   15   28 1   
    30   15   29 1   
    31   16   17 1   
    32   16   30 1   
    33   16   31 1   
    34   17   32 1   
    35   17   33 1   
@<TRIPOS>SUBSTRUCTURE
     1 4I5         1 TEMP              0 ****  ****    0 ROOT
