@<TRIPOS>MOLECULE
4I5
   34    36     1     0     0
SMALL
bcc


@<TRIPOS>ATOM
      1 C1          0.0260    0.0690    0.0290 ca        1 4I5      0.004400
      2 N1          0.9390    2.4370    5.7530 nz        1 4I5     -0.756400
      3 O1          0.9900    1.5470    7.8840 o         1 4I5     -0.406100
      4 Cl1        -0.7660    0.0200   -1.4680 cl        1 4I5     -0.047400
      5 C2          1.4200    0.2630    0.0600 ca        1 4I5     -0.077000
      6 N2          1.8230    0.2510    3.7970 na        1 4I5     -0.194400
      7 C3          2.1140    0.3150    1.2630 ca        1 4I5     -0.125000
      8 C4          1.3850    0.1650    2.4470 ca        1 4I5     -0.059200
      9 C5         -0.0380   -0.0430    2.4160 ca        1 4I5     -0.116800
     10 C6         -0.7160   -0.0860    1.2020 ca        1 4I5     -0.066000
     11 C7         -0.4680   -0.1740    3.8020 cc        1 4I5     -0.002400
     12 C8          0.6660   -0.0460    4.5960 cd        1 4I5     -0.230300
     13 C9          0.7710   -0.1150    6.0710 c3        1 4I5     -0.031500
     14 C10        -0.3870   -0.8770    6.7100 c3        1 4I5     -0.078400
     15 C11        -1.7100   -0.1490    6.7720 c3        1 4I5     -0.101400
     16 C12        -2.2160    0.4280    5.4680 c3        1 4I5     -0.072400
     17 C13        -1.8570   -0.3830    4.2390 c3        1 4I5     -0.044200
     18 C14         0.8990    1.2570    6.7040 c         1 4I5      0.550100
     19 HN1         0.1830    2.3390    5.0630 hn        1 4I5      0.472133
     20 HN1A        1.8330    2.4410    5.2490 hn        1 4I5      0.472133
     21 H2          1.9730    0.3710   -0.8890 ha        1 4I5      0.169000
     22 HN2         2.6630   -0.2400    4.0230 hn        1 4I5      0.274700
     23 H3          3.2040    0.4630    1.2750 ha        1 4I5      0.157000
     24 H6         -1.8060   -0.2400    1.1690 ha        1 4I5      0.164000
     25 H9          1.7300   -0.6540    6.3620 hc        1 4I5      0.120700
     26 H10        -0.5070   -1.8350    6.1340 hc        1 4I5      0.086700
     27 H10A       -0.0860   -1.1490    7.7600 hc        1 4I5      0.086700
     28 H11        -1.6440    0.6770    7.5310 hc        1 4I5      0.065200
     29 H11A       -2.4700   -0.8830    7.1620 hc        1 4I5      0.065200
     30 H12        -3.3360    0.5080    5.5290 hc        1 4I5      0.041700
     31 H12A       -1.8290    1.4750    5.3420 hc        1 4I5      0.041700
     32 H13        -2.0200   -1.4790    4.4440 hc        1 4I5      0.082200
     33 H13A       -2.5530   -0.1030    3.3990 hc        1 4I5      0.082200
     34 H131        0.8360    3.3200    6.2640 hn        1 4I5      0.472133
@<TRIPOS>BOND
     1    1    4 1   
     2    1    5 ar  
     3    1   10 ar  
     4    2   18 1   
     5    2   19 1   
     6    2   20 1   
     7    2   34 1   
     8    3   18 2   
     9    5    7 ar  
    10    5   21 1   
    11    6    8 1   
    12    6   12 1   
    13    6   22 1   
    14    7    8 ar  
    15    7   23 1   
    16    8    9 ar  
    17    9   10 ar  
    18    9   11 1   
    19   10   24 1   
    20   11   12 2   
    21   11   17 1   
    22   12   13 1   
    23   13   14 1   
    24   13   18 1   
    25   13   25 1   
    26   14   15 1   
    27   14   26 1   
    28   14   27 1   
    29   15   16 1   
    30   15   28 1   
    31   15   29 1   
    32   16   17 1   
    33   16   30 1   
    34   16   31 1   
    35   17   32 1   
    36   17   33 1   
@<TRIPOS>SUBSTRUCTURE
     1 4I5         1 TEMP              0 ****  ****    0 ROOT
