@<TRIPOS>MOLECULE
4I5
   34    36     1     0     0
SMALL
bcc


@<TRIPOS>ATOM
      1 C1          0.0270    0.0830    0.0290 ca        1 4I5      0.004400
      2 N1          0.9370    2.4370    5.7590 n4        1 4I5     -0.756400
      3 O1          0.9860    1.5410    7.8880 o         1 4I5     -0.406100
      4 CL1        -0.7640    0.0370   -1.4690 cl        1 4I5     -0.047400
      5 C2          1.4220    0.2780    0.0600 ca        1 4I5     -0.077000
      6 N2          1.8230    0.2560    3.7980 na        1 4I5     -0.194400
      7 C3          2.1150    0.3280    1.2640 ca        1 4I5     -0.125000
      8 C4          1.3860    0.1740    2.4470 ca        1 4I5     -0.059200
      9 C5         -0.0370   -0.0360    2.4150 ca        1 4I5     -0.116800
     10 C6         -0.7150   -0.0750    1.2000 ca        1 4I5     -0.066000
     11 C7         -0.4680   -0.1710    3.8010 cc        1 4I5     -0.002400
     12 C8          0.6660   -0.0440    4.5950 cd        1 4I5     -0.230300
     13 C9          0.7710   -0.1170    6.0700 c3        1 4I5     -0.031500
     14 C10        -0.3860   -0.8820    6.7070 c3        1 4I5     -0.078400
     15 C11        -1.7100   -0.1560    6.7700 c3        1 4I5     -0.101400
     16 C12        -2.2170    0.4250    5.4680 c3        1 4I5     -0.072400
     17 C13        -1.8570   -0.3820    4.2360 c3        1 4I5     -0.044200
     18 C14         0.8970    1.2540    6.7070 c         1 4I5      0.550100
     19 HN1         0.1820    2.3400    5.0690 hn        1 4I5      0.472133
     20 HN1A        1.8310    2.4420    5.2560 hn        1 4I5      0.472133
     21 H2          1.9750    0.3900   -0.8880 ha        1 4I5      0.169000
     22 HN2         2.6640   -0.2340    4.0220 hn        1 4I5      0.274700
     23 H3          3.2050    0.4770    1.2770 ha        1 4I5      0.157000
     24 H6         -1.8040   -0.2310    1.1670 ha        1 4I5      0.164000
     25 H9          1.7300   -0.6550    6.3600 hc        1 4I5      0.120700
     26 H10        -0.0860   -1.1560    7.7560 hc        1 4I5      0.086700
     27 H10A       -0.5050   -1.8380    6.1280 hc        1 4I5      0.086700
     28 H11        -2.4700   -0.8910    7.1580 hc        1 4I5      0.065200
     29 H11A       -1.6460    0.6680    7.5320 hc        1 4I5      0.065200
     30 H12        -1.8310    1.4730    5.3450 hc        1 4I5      0.041700
     31 H12A       -3.3370    0.5040    5.5280 hc        1 4I5      0.041700
     32 H13        -2.5520   -0.1000    3.3970 hc        1 4I5      0.082200
     33 H13A       -2.0180   -1.4790    4.4380 hc        1 4I5      0.082200
     34 H131        0.8320    3.3180    6.2720 hn        1 4I5      0.472133
@<TRIPOS>BOND
     1    1    4 1   
     2    1    5 ar  
     3    1   10 ar  
     4    2   18 1   
     5    2   19 1   
     6    2   20 1   
     7    2   34 1   
     8    3   18 2   
     9    5    7 ar  
    10    5   21 1   
    11    6    8 1   
    12    6   12 1   
    13    6   22 1   
    14    7    8 ar  
    15    7   23 1   
    16    8    9 ar  
    17    9   10 ar  
    18    9   11 1   
    19   10   24 1   
    20   11   12 2   
    21   11   17 1   
    22   12   13 1   
    23   13   14 1   
    24   13   18 1   
    25   13   25 1   
    26   14   15 1   
    27   14   26 1   
    28   14   27 1   
    29   15   16 1   
    30   15   28 1   
    31   15   29 1   
    32   16   17 1   
    33   16   30 1   
    34   16   31 1   
    35   17   32 1   
    36   17   33 1   
@<TRIPOS>SUBSTRUCTURE
     1 4I5         1 TEMP              0 ****  ****    0 ROOT
