@<TRIPOS>MOLECULE
4I5
   33    28     1     0     0
SMALL
bcc


@<TRIPOS>ATOM
      1 C1          0.2270   -0.2990   -4.2170 c1        1 4I5     -0.088000
      2 N1         -0.5210    2.4350    2.7370 n         1 4I5     -0.423000
      3 O1         -0.6490    2.0240    0.5060 o         1 4I5     -0.397000
      4 CL1        -0.4610   -0.4970   -5.8120 cl        1 4I5     -0.029000
      5 C2          1.6150   -0.2190   -4.2410 c1        1 4I5     -0.108000
      6 N2          2.0940   -0.1310   -0.5030 n2        1 4I5     -0.186000
      7 C3          2.3260   -0.1420   -3.0520 c1        1 4I5     -0.131000
      8 C4          1.6400   -0.1450   -1.8160 c1        1 4I5      0.003000
      9 C5          0.2700   -0.2230   -1.7910 c1        1 4I5     -0.078000
     10 C6         -0.4510   -0.3010   -2.9980 c2        1 4I5     -0.078000
     11 C7         -0.1350   -0.2590   -0.4510 c1        1 4I5     -0.122000
     12 C8          0.9930   -0.2010    0.3330 c1        1 4I5     -0.027000
     13 C9          0.6840    0.4400    1.6960 c2        1 4I5     -0.055000
     14 C10         0.1110   -0.6720    2.5830 c3        1 4I5     -0.152000
     15 C11        -1.4030   -0.5790    2.6550 c3        1 4I5     -0.154000
     16 C12        -2.0060   -0.3690    1.2600 c3        1 4I5     -0.155000
     17 C13        -1.2190   -1.1500    0.2020 c2        1 4I5     -0.090000
     18 C14        -0.2430    1.6640    1.5900 c2        1 4I5      0.306000
     19 HN1        -0.0310    2.3110    3.5020 hn        1 4I5      0.228000
     20 HN1A       -1.1460    3.1020    2.6980 hn        1 4I5      0.228000
     21 H2          2.0950   -0.2640   -5.0990 ha        1 4I5      0.145000
     22 HN2         2.9700   -0.0490   -0.2360 DU        1 4I5      0.265000
     23 H3          3.3010   -0.0870   -3.0690 ha        1 4I5      0.141000
     24 H6         -1.4230   -0.3860   -2.9810 ha        1 4I5      0.147000
     25 H9          1.4880    0.8390    2.0960 ha        1 4I5      0.126000
     26 H10         0.4820   -0.5860    3.4870 hc        1 4I5      0.090500
     27 H10A        0.3610   -1.5350    2.2150 hc        1 4I5      0.090500
     28 H11        -1.7580   -1.4080    3.0370 hc        1 4I5      0.076000
     29 H11A       -1.6530    0.1740    3.2310 hc        1 4I5      0.076000
     30 H12        -2.9430   -0.6820    1.2620 hc        1 4I5      0.086500
     31 H12A       -1.9850    0.5760    1.0420 hc        1 4I5      0.086500
     32 H13        -1.8380   -1.4670   -0.4930 ha        1 4I5      0.089000
     33 H13A       -0.7900   -1.9160    0.6250 ha        1 4I5      0.089000
@<TRIPOS>BOND
     1    1    5 1   
     2    1   10 1   
     3    2   18 1   
     4    2   19 1   
     5    2   20 1   
     6    3   18 1   
     7    5   21 1   
     8    6    8 1   
     9    6   12 1   
    10    7    8 1   
    11    7   23 1   
    12    9   10 1   
    13   10   24 1   
    14   11   12 1   
    15   13   14 1   
    16   13   18 1   
    17   13   25 1   
    18   14   15 1   
    19   14   26 1   
    20   14   27 1   
    21   15   16 1   
    22   15   28 1   
    23   15   29 1   
    24   16   17 1   
    25   16   30 1   
    26   16   31 1   
    27   17   32 1   
    28   17   33 1   
@<TRIPOS>SUBSTRUCTURE
     1 4I5         1 TEMP              0 ****  ****    0 ROOT
