@<TRIPOS>MOLECULE
4I5
   34    36     1     0     0
SMALL
bcc


@<TRIPOS>ATOM
      1 C1          0.0170    0.0710    0.0310 ca        1 4I5      0.004400
      2 N1          0.9330    2.4460    5.7520 n4        1 4I5     -0.756400
      3 O1          0.9930    1.5570    7.8830 o         1 4I5     -0.406100
      4 CL1        -0.7780    0.0180   -1.4640 cl        1 4I5     -0.047400
      5 C2          1.4100    0.2720    0.0580 ca        1 4I5     -0.077000
      6 N2          1.8220    0.2630    3.7950 na        1 4I5     -0.194400
      7 C3          2.1070    0.3280    1.2600 ca        1 4I5     -0.125000
      8 C4          1.3820    0.1740    2.4460 ca        1 4I5     -0.059200
      9 C5         -0.0410   -0.0410    2.4180 ca        1 4I5     -0.116800
     10 C6         -0.7210   -0.0870    1.2050 ca        1 4I5     -0.066000
     11 C7         -0.4670   -0.1730    3.8050 cc        1 4I5     -0.002400
     12 C8          0.6680   -0.0390    4.5960 cd        1 4I5     -0.230300
     13 C9          0.7770   -0.1070    6.0710 c3        1 4I5     -0.031500
     14 C10        -0.3760   -0.8740    6.7140 c3        1 4I5     -0.078400
     15 C11        -1.7020   -0.1520    6.7780 c3        1 4I5     -0.101400
     16 C12        -2.2140    0.4220    5.4740 c3        1 4I5     -0.072400
     17 C13        -1.8540   -0.3880    4.2450 c3        1 4I5     -0.044200
     18 C14         0.9010    1.2650    6.7030 c         1 4I5      0.550100
     19 HN1         0.8270    3.3280    6.2630 hn        1 4I5      0.472133
     20 HN1A        1.8250    2.4530    5.2450 hn        1 4I5      0.472133
     21 H2          1.9610    0.3820   -0.8920 ha        1 4I5      0.169000
     22 HN2         2.6650   -0.2250    4.0190 hn        1 4I5      0.274700
     23 H3          3.1960    0.4800    1.2690 ha        1 4I5      0.157000
     24 H6         -1.8110   -0.2460    1.1750 ha        1 4I5      0.164000
     25 H9          1.7390   -0.6420    6.3600 hc        1 4I5      0.120700
     26 H10        -0.0710   -1.1440    7.7630 hc        1 4I5      0.086700
     27 H10A       -0.4930   -1.8330    6.1380 hc        1 4I5      0.086700
     28 H11        -1.6380    0.6750    7.5370 hc        1 4I5      0.065200
     29 H11A       -2.4580   -0.8890    7.1700 hc        1 4I5      0.065200
     30 H12        -3.3340    0.4970    5.5380 hc        1 4I5      0.041700
     31 H12A       -1.8320    1.4710    5.3470 hc        1 4I5      0.041700
     32 H13        -2.5530   -0.1120    3.4070 hc        1 4I5      0.082200
     33 H13A       -2.0110   -1.4840    4.4510 hc        1 4I5      0.082200
     34 H131        0.1760    2.3440    5.0640 hn        1 4I5      0.472133
@<TRIPOS>BOND
     1    1    4 1   
     2    1    5 ar  
     3    1   10 ar  
     4    2   18 1   
     5    2   19 1   
     6    2   20 1   
     7    2   34 1   
     8    3   18 2   
     9    5    7 ar  
    10    5   21 1   
    11    6    8 1   
    12    6   12 1   
    13    6   22 1   
    14    7    8 ar  
    15    7   23 1   
    16    8    9 ar  
    17    9   10 ar  
    18    9   11 1   
    19   10   24 1   
    20   11   12 2   
    21   11   17 1   
    22   12   13 1   
    23   13   14 1   
    24   13   18 1   
    25   13   25 1   
    26   14   15 1   
    27   14   26 1   
    28   14   27 1   
    29   15   16 1   
    30   15   28 1   
    31   15   29 1   
    32   16   17 1   
    33   16   30 1   
    34   16   31 1   
    35   17   32 1   
    36   17   33 1   
@<TRIPOS>SUBSTRUCTURE
     1 4I5         1 TEMP              0 ****  ****    0 ROOT
