@<TRIPOS>MOLECULE
4IC
   18    18     1     0     0
SMALL
bcc


@<TRIPOS>ATOM
      1 O01        -3.8750    0.4940   -0.9710 o         1 4IC     -0.839800
      2 C02        -3.1440   -0.1160   -0.1410 c         1 4IC      0.918600
      3 O03        -3.2340   -1.3460    0.1280 o         1 4IC     -0.839800
      4 C04        -2.0920    0.7240    0.6270 c3        1 4IC     -0.200200
      5 C06        -0.7440    0.1400    0.5240 c2        1 4IC     -0.029200
      6 C07         0.3440    0.8510    0.1800 ce        1 4IC     -0.324800
      7 C08         1.6810    0.3250    0.0660 cc        1 4IC      0.418100
      8 C09         2.7530    0.9840   -0.5830 cd        1 4IC     -0.299600
      9 N10         3.8650    0.1480   -0.4620 na        1 4IC     -0.336900
     10 C11         3.4400   -0.9840    0.2430 cd        1 4IC      0.367400
     11 N12         2.1360   -0.9030    0.5780 nc        1 4IC     -0.661000
     12 H2         -2.1210    1.7780    0.2520 hc        1 4IC      0.037200
     13 H3         -2.4040    0.7250    1.7050 hc        1 4IC      0.037200
     14 H4         -0.6920   -0.9430    0.7370 ha        1 4IC      0.149000
     15 H5          0.2610    1.9220   -0.0660 ha        1 4IC      0.111000
     16 H6          2.7890    1.9380   -1.0980 h4        1 4IC      0.167000
     17 H7          4.7570    0.3100   -0.8370 hn        1 4IC      0.282700
     18 H8          4.1070   -1.8160    0.4820 h5        1 4IC      0.043100
@<TRIPOS>BOND
     1    1    2 1   
     2    2    3 1   
     3    2    4 1   
     4    4    5 1   
     5    4   12 1   
     6    4   13 1   
     7    5    6 2   
     8    5   14 1   
     9    6    7 1   
    10    6   15 1   
    11    7    8 2   
    12    7   11 1   
    13    8    9 1   
    14    8   16 1   
    15    9   10 1   
    16    9   17 1   
    17   10   11 2   
    18   10   18 1   
@<TRIPOS>SUBSTRUCTURE
     1 4IC         1 TEMP              0 ****  ****    0 ROOT
