@<TRIPOS>MOLECULE
4IC
   18    13     1     0     0
SMALL
bcc


@<TRIPOS>ATOM
      1 O01        -0.9990    3.7520    0.0620 o         1 4IC     -0.579000
      2 C02        -0.9920    2.8720    0.9620 c1        1 4IC      0.341000
      3 O03        -1.3980    3.1540    2.1200 o         1 4IC     -0.579000
      4 C04        -0.5270    1.4680    0.6430 c2        1 4IC     -0.218000
      5 C06        -1.4960    0.8240   -0.3240 c2        1 4IC     -0.095000
      6 C07        -1.2310   -0.3970   -0.8290 c1        1 4IC     -0.144000
      7 C08         0.0350   -1.1230   -0.4290 c1        1 4IC     -0.116500
      8 C09         1.1570   -1.2660   -1.1980 c1        1 4IC     -0.116500
      9 N10         2.0280   -2.0200   -0.5220 n2        1 4IC     -0.184500
     10 C11         1.4620   -2.3520    0.6630 c1        1 4IC     -0.156000
     11 N12         0.2290   -1.7920    0.7110 n2        1 4IC     -0.184500
     12 H2          0.3630    1.5040    0.2380 ha        1 4IC      0.074000
     13 H3         -0.4900    0.9420    1.4670 ha        1 4IC      0.074000
     14 H4         -2.3120    1.2920   -0.5820 ha        1 4IC      0.107000
     15 H5         -1.8560   -0.8130   -1.4520 ha        1 4IC      0.109000
     16 H6          1.3010   -0.8740   -2.0810 DU        1 4IC      0.223000
     17 H7          2.8560   -2.2710   -0.8100 DU        1 4IC      0.223000
     18 H8          1.8710   -2.8990    1.3610 DU        1 4IC      0.223000
@<TRIPOS>BOND
     1    1    2 1   
     2    2    3 1   
     3    4    5 1   
     4    4   12 1   
     5    4   13 1   
     6    5    6 1   
     7    5   14 1   
     8    6   15 1   
     9    7    8 1   
    10    7   11 1   
    11    8    9 1   
    12    9   10 1   
    13   10   11 1   
@<TRIPOS>SUBSTRUCTURE
     1 4IC         1 TEMP              0 ****  ****    0 ROOT
