@<TRIPOS>MOLECULE
4IC
   18    18     1     0     0
SMALL
bcc


@<TRIPOS>ATOM
      1 O01         0.5730   -0.4140   -0.0760 o         1 4IC     -0.850800
      2 C02         1.3950    0.4940   -0.3990 c         1 4IC      0.908600
      3 O03         1.0560    1.6760   -0.6920 o         1 4IC     -0.850800
      4 C04         2.9020    0.1650   -0.4250 c3        1 4IC     -0.191200
      5 C06         3.1650   -1.2800   -0.5160 c2        1 4IC     -0.033200
      6 C07         4.3240   -1.8900   -0.8080 ce        1 4IC     -0.332800
      7 C08         5.5980   -1.2760   -1.0900 cc        1 4IC      0.420100
      8 C09         6.6430   -1.8990   -1.8160 cd        1 4IC     -0.303600
      9 N10         7.6990   -0.9870   -1.8550 na        1 4IC     -0.336900
     10 C11         7.2690    0.1510   -1.1640 cd        1 4IC      0.366400
     11 N12         6.0160    0.0040   -0.6890 nc        1 4IC     -0.646000
     12 H2          3.3510    0.5690    0.5200 hc        1 4IC      0.056200
     13 H3          3.3760    0.7160   -1.2780 hc        1 4IC      0.056200
     14 H4          2.2650   -1.9030   -0.3220 ha        1 4IC      0.150000
     15 H5          4.3570   -2.9920   -0.8680 ha        1 4IC      0.099000
     16 H6          6.6950   -2.8770   -2.2830 h4        1 4IC      0.164000
     17 H7          8.5570   -1.1120   -2.3140 hn        1 4IC      0.282700
     18 H8          7.8960    1.0380   -1.0380 h5        1 4IC      0.044100
@<TRIPOS>BOND
     1    1    2 1   
     2    2    3 1   
     3    2    4 1   
     4    4    5 1   
     5    4   12 1   
     6    4   13 1   
     7    5    6 2   
     8    5   14 1   
     9    6    7 1   
    10    6   15 1   
    11    7    8 2   
    12    7   11 1   
    13    8    9 1   
    14    8   16 1   
    15    9   10 1   
    16    9   17 1   
    17   10   11 2   
    18   10   18 1   
@<TRIPOS>SUBSTRUCTURE
     1 4IC         1 TEMP              0 ****  ****    0 ROOT
