@<TRIPOS>MOLECULE
4ID
   51    53     1     0     0
SMALL
bcc


@<TRIPOS>ATOM
      1 C1          3.1230    0.8010    1.5090 c         1 4ID      0.753700
      2 F1         -7.2020   -2.4070   -1.2950 f         1 4ID     -0.238633
      3 N1          1.8450    1.4330    1.5580 n         1 4ID     -0.449400
      4 O1          4.0740    1.4380    1.9900 o         1 4ID     -0.606500
      5 S1         -0.7500    1.6790    1.1460 ss        1 4ID     -0.025300
      6 C2          0.7350    0.8170    1.0280 cc        1 4ID      0.511800
      7 F2         -5.5460   -2.2010    0.0850 f         1 4ID     -0.238633
      8 N2         -4.3140    0.5090   -0.1460 n         1 4ID     -0.467100
      9 O2         -3.4630    2.3780    0.9350 o         1 4ID     -0.567100
     10 S2          4.5790   -1.4310    0.8230 sy        1 4ID      1.458200
     11 C3         -1.9290    0.5920    0.3940 c3        1 4ID     -0.133300
     12 F3         -5.2950   -1.6490   -1.9870 f         1 4ID     -0.238633
     13 N3          0.7760   -0.3980    0.4380 nd        1 4ID     -0.703300
     14 O3          5.1880   -1.4920    2.0810 o         1 4ID     -0.660800
     15 C4         -3.2940    1.2560    0.4300 c         1 4ID      0.688100
     16 O4          4.2290   -2.6730    0.2530 o         1 4ID     -0.660800
     17 C5         -5.6710    0.8530   -0.2250 ca        1 4ID      0.122600
     18 C6         -6.6200   -0.1270   -0.6200 ca        1 4ID     -0.222300
     19 C7         -6.1900   -1.5520   -0.9440 c3        1 4ID      0.686200
     20 C8         -7.9740    0.1970   -0.7200 ca        1 4ID     -0.058000
     21 C9         -8.4180    1.4830   -0.4330 ca        1 4ID     -0.158000
     22 C10        -7.4970    2.4550   -0.0450 ca        1 4ID     -0.073000
     23 C11        -6.1430    2.1560    0.0580 ca        1 4ID     -0.162000
     24 C12         1.9780   -1.0320    0.3890 cd        1 4ID      0.279600
     25 C13         3.1660   -0.5180    0.8920 cc        1 4ID     -0.542300
     26 C14         5.5180   -0.5320   -0.2340 ca        1 4ID     -0.392500
     27 C15         6.3960    0.4120    0.3270 ca        1 4ID     -0.003000
     28 C16         7.2490    1.1730   -0.4590 ca        1 4ID     -0.167000
     29 C17         7.2450    1.0140   -1.8510 ca        1 4ID     -0.005300
     30 C18         8.1640    1.8080   -2.6980 c3        1 4ID     -0.066800
     31 C19         6.3690    0.0890   -2.4250 ca        1 4ID     -0.173000
     32 C20         5.5090   -0.6800   -1.6330 ca        1 4ID      0.057700
     33 C21         4.6080   -1.6530   -2.2990 c3        1 4ID     -0.080800
     34 HN1         1.7740    2.3310    1.9910 hn        1 4ID      0.350500
     35 HN2        -4.0640   -0.3960   -0.4890 hn        1 4ID      0.333500
     36 H3         -1.6370    0.3730   -0.6660 h1        1 4ID      0.117200
     37 H3A        -1.9630   -0.3850    0.9420 h1        1 4ID      0.117200
     38 H8         -8.6950   -0.5790   -1.0290 ha        1 4ID      0.156000
     39 H9         -9.4870    1.7280   -0.5120 ha        1 4ID      0.147000
     40 H10        -7.8390    3.4770    0.1830 ha        1 4ID      0.145000
     41 H11        -5.4430    2.9500    0.3670 ha        1 4ID      0.180000
     42 H12         1.9550   -2.0360   -0.0930 h4        1 4ID      0.201000
     43 H15         6.3930    0.5510    1.4260 ha        1 4ID      0.172000
     44 H16         7.9260    1.9030    0.0090 ha        1 4ID      0.142000
     45 H18         9.1620    1.3020   -2.7470 hc        1 4ID      0.051700
     46 H18A        7.7700    1.9070   -3.7390 hc        1 4ID      0.051700
     47 H18B        8.3120    2.8310   -2.2730 hc        1 4ID      0.051700
     48 H19         6.3570   -0.0390   -3.5190 ha        1 4ID      0.137000
     49 H21         3.5570   -1.5320   -1.9320 hc        1 4ID      0.060367
     50 H21A        4.6140   -1.5210   -3.4080 hc        1 4ID      0.060367
     51 H21B        4.9310   -2.7000   -2.0590 hc        1 4ID      0.060367
@<TRIPOS>BOND
     1    1    3 1   
     2    1    4 2   
     3    1   25 1   
     4    2   19 1   
     5    3    6 1   
     6    3   34 1   
     7    5    6 1   
     8    5   11 1   
     9    6   13 2   
    10    7   19 1   
    11    8   15 1   
    12    8   17 1   
    13    8   35 1   
    14    9   15 2   
    15   10   14 2   
    16   10   16 2   
    17   10   25 1   
    18   10   26 1   
    19   11   15 1   
    20   11   36 1   
    21   11   37 1   
    22   12   19 1   
    23   13   24 1   
    24   17   18 ar  
    25   17   23 ar  
    26   18   19 1   
    27   18   20 ar  
    28   20   21 ar  
    29   20   38 1   
    30   21   22 ar  
    31   21   39 1   
    32   22   23 ar  
    33   22   40 1   
    34   23   41 1   
    35   24   25 2   
    36   24   42 1   
    37   26   27 ar  
    38   26   32 ar  
    39   27   28 ar  
    40   27   43 1   
    41   28   29 ar  
    42   28   44 1   
    43   29   30 1   
    44   29   31 ar  
    45   30   45 1   
    46   30   46 1   
    47   30   47 1   
    48   31   32 ar  
    49   31   48 1   
    50   32   33 1   
    51   33   49 1   
    52   33   50 1   
    53   33   51 1   
@<TRIPOS>SUBSTRUCTURE
     1 4ID         1 TEMP              0 ****  ****    0 ROOT
