@<TRIPOS>MOLECULE
4ID
   51    53     1     0     0
SMALL
bcc


@<TRIPOS>ATOM
      1 C1         -0.0810    0.1130   -0.1540 c         1 4ID      0.753700
      2 F1          7.3530   -1.2230    8.0730 f         1 4ID     -0.238633
      3 N1          1.3450    0.0940   -0.1030 n         1 4ID     -0.449400
      4 O1         -0.5940    0.1930   -1.2810 o         1 4ID     -0.606500
      5 S1          3.7260    0.0170    1.0340 ss        1 4ID     -0.025300
      6 C2          2.0060    0.0320    1.1030 cc        1 4ID      0.511800
      7 F2          6.0520   -1.9390    6.4960 f         1 4ID     -0.238633
      8 N2          6.2470   -0.1810    4.0910 n         1 4ID     -0.467100
      9 O2          6.4330   -0.0420    1.7810 o         1 4ID     -0.567100
     10 S2         -2.4500   -0.0230    1.2400 sy        1 4ID      1.458200
     11 C3          4.2130   -0.0890    2.7340 c3        1 4ID     -0.133300
     12 F3          6.0080    0.1440    7.0650 f         1 4ID     -0.238633
     13 N3          1.3670   -0.0130    2.2920 nd        1 4ID     -0.703300
     14 O3         -2.9620   -1.0090    0.3890 o         1 4ID     -0.660800
     15 C4          5.7290   -0.1030    2.8040 c         1 4ID      0.688100
     16 O4         -2.7560   -0.1790    2.6080 o         1 4ID     -0.660800
     17 C5          7.6000   -0.2460    4.4530 ca        1 4ID      0.122600
     18 C6          7.9520   -0.5840    5.7870 ca        1 4ID     -0.222300
     19 C7          6.8840   -0.8930    6.8280 c3        1 4ID      0.686200
     20 C8          9.2920   -0.6380    6.1750 ca        1 4ID     -0.059000
     21 C9         10.3050   -0.3650    5.2620 ca        1 4ID     -0.158000
     22 C10         9.9730   -0.0320    3.9500 ca        1 4ID     -0.073000
     23 C11         8.6460    0.0320    3.5420 ca        1 4ID     -0.162000
     24 C12         0.0070   -0.0110    2.2760 cd        1 4ID      0.279600
     25 C13        -0.7710    0.0430    1.1280 cc        1 4ID     -0.542300
     26 C14        -2.8910    1.5000    0.6980 ca        1 4ID     -0.392500
     27 C15        -3.1920    1.6350   -0.6680 ca        1 4ID     -0.003000
     28 C16        -3.6120    2.8430   -1.2060 ca        1 4ID     -0.167000
     29 C17        -3.7390    3.9690   -0.3830 ca        1 4ID     -0.005300
     30 C18        -4.1780    5.2630   -0.9520 c3        1 4ID     -0.066800
     31 C19        -3.4340    3.8530    0.9760 ca        1 4ID     -0.173000
     32 C20        -3.0110    2.6350    1.5200 ca        1 4ID      0.057700
     33 C21        -2.7090    2.5710    2.9710 c3        1 4ID     -0.080800
     34 HN1         1.8530    0.1210   -0.9630 hn        1 4ID      0.350500
     35 HN2         5.5840   -0.2620    4.8340 hn        1 4ID      0.333500
     36 H3          3.7980   -1.0200    3.2010 h1        1 4ID      0.117200
     37 H3A         3.8120    0.7840    3.3110 h1        1 4ID      0.117200
     38 H8          9.5440   -0.9020    7.2160 ha        1 4ID      0.156000
     39 H9         11.3580   -0.4130    5.5760 ha        1 4ID      0.147000
     40 H10        10.7690    0.1870    3.2200 ha        1 4ID      0.145000
     41 H11         8.4200    0.3000    2.4960 ha        1 4ID      0.180000
     42 H12        -0.4700   -0.0660    3.2820 h4        1 4ID      0.201000
     43 H15        -3.0790    0.7510   -1.3270 ha        1 4ID      0.172000
     44 H16        -3.8460    2.9170   -2.2790 ha        1 4ID      0.142000
     45 H18        -4.5380    5.9570   -0.1540 hc        1 4ID      0.051700
     46 H18A       -5.0050    5.1090   -1.6890 hc        1 4ID      0.051700
     47 H18B       -3.3230    5.7520   -1.4840 hc        1 4ID      0.051700
     48 H19        -3.5300    4.7340    1.6300 ha        1 4ID      0.137000
     49 H21        -1.7130    2.0900    3.1460 hc        1 4ID      0.060367
     50 H21A       -2.6970    3.5900    3.4300 hc        1 4ID      0.060367
     51 H21B       -3.4810    1.9490    3.4950 hc        1 4ID      0.060367
@<TRIPOS>BOND
     1    1    3 1   
     2    1    4 2   
     3    1   25 1   
     4    2   19 1   
     5    3    6 1   
     6    3   34 1   
     7    5    6 1   
     8    5   11 1   
     9    6   13 2   
    10    7   19 1   
    11    8   15 1   
    12    8   17 1   
    13    8   35 1   
    14    9   15 2   
    15   10   14 2   
    16   10   16 2   
    17   10   25 1   
    18   10   26 1   
    19   11   15 1   
    20   11   36 1   
    21   11   37 1   
    22   12   19 1   
    23   13   24 1   
    24   17   18 ar  
    25   17   23 ar  
    26   18   19 1   
    27   18   20 ar  
    28   20   21 ar  
    29   20   38 1   
    30   21   22 ar  
    31   21   39 1   
    32   22   23 ar  
    33   22   40 1   
    34   23   41 1   
    35   24   25 2   
    36   24   42 1   
    37   26   27 ar  
    38   26   32 ar  
    39   27   28 ar  
    40   27   43 1   
    41   28   29 ar  
    42   28   44 1   
    43   29   30 1   
    44   29   31 ar  
    45   30   45 1   
    46   30   46 1   
    47   30   47 1   
    48   31   32 ar  
    49   31   48 1   
    50   32   33 1   
    51   33   49 1   
    52   33   50 1   
    53   33   51 1   
@<TRIPOS>SUBSTRUCTURE
     1 4ID         1 TEMP              0 ****  ****    0 ROOT
