@<TRIPOS>MOLECULE
4ID
   51    45     1     0     0
SMALL
bcc


@<TRIPOS>ATOM
      1 C1         -1.7580   -0.7320    0.3000 c1        1 4ID      0.393000
      2 F1          4.9820   -1.2890   -3.0140 f         1 4ID     -0.167667
      3 N1         -0.3400   -0.6580    0.3050 n2        1 4ID     -0.289000
      4 O1         -2.3580   -0.8190   -0.7510 o         1 4ID     -0.331000
      5 S1          2.1330   -0.9470    1.5940 ss        1 4ID      0.305000
      6 C2          0.3850   -0.6410    1.5730 c2        1 4ID      0.011000
      7 F2          4.7430   -2.5240   -1.2260 f         1 4ID     -0.167667
      8 N2          4.9250   -0.0250   -0.2380 n         1 4ID     -0.326000
      9 O2          5.2550    0.3030    2.0000 o         1 4ID     -0.314000
     10 S2         -4.2570   -0.9010    1.5880 ss        1 4ID      2.909000
     11 C3          3.0020    0.5710    1.3190 c3        1 4ID     -0.330000
     12 F3          6.2030   -3.0840   -2.7550 f         1 4ID     -0.167667
     13 N3         -0.3470   -0.5130    2.8330 n1        1 4ID     -0.265000
     14 O3         -4.5710   -2.2230    1.1210 o         1 4ID     -0.939000
     15 C4          4.4690    0.2760    1.0750 c2        1 4ID      0.326000
     16 O4         -4.7570   -0.9560    2.9350 o         1 4ID     -0.939000
     17 C5          6.3030   -0.2930   -0.4690 c2        1 4ID      0.129000
     18 C6          6.6770   -1.2360   -1.4160 c2        1 4ID     -0.214000
     19 C7          5.6210   -2.0570   -2.1230 c3        1 4ID      0.465000
     20 C8          8.0190   -1.4640   -1.6740 c1        1 4ID     -0.059000
     21 C9          8.9880   -0.7490   -0.9880 c1        1 4ID     -0.115000
     22 C10         8.6140    0.1930   -0.0420 c1        1 4ID     -0.115000
     23 C11         7.2710    0.4210    0.2170 c1        1 4ID     -0.161000
     24 C12        -1.7670   -0.4440    2.8260 c1        1 4ID      0.137000
     25 C13        -2.5010   -0.6060    1.5610 c1        1 4ID     -0.966000
     26 C14        -5.1030    0.3350    0.6370 c1        1 4ID     -0.837000
     27 C15        -5.0810    1.6580    1.0500 c2        1 4ID     -0.021000
     28 C16        -5.8530    2.6020    0.3930 c1        1 4ID     -0.170000
     29 C17        -6.6470    2.2240   -0.6810 c1        1 4ID      0.003000
     30 C18        -7.5770    3.2320   -1.3260 c3        1 4ID     -0.192000
     31 C19        -6.6680    0.9030   -1.0940 c1        1 4ID     -0.171000
     32 C20        -5.8960   -0.0430   -0.4350 c1        1 4ID      0.090000
     33 C21        -5.8650   -1.4710   -0.9320 c3        1 4ID     -0.223000
     34 HN1         0.1180   -0.6430   -0.4830 hn        1 4ID      0.265000
     35 HN2         4.3300   -0.0610   -0.9310 hn        1 4ID      0.248000
     36 H3          2.9110    1.1450    2.1040 h1        1 4ID      0.165000
     37 H3A         2.6270    1.0240    0.5380 h1        1 4ID      0.165000
     38 H8          8.2820   -2.1270   -2.3400 ha        1 4ID      0.155000
     39 H9          9.9340   -0.9090   -1.1700 ha        1 4ID      0.146500
     40 H10         9.2970    0.6970    0.4420 ha        1 4ID      0.146500
     41 H11         7.0080    1.0840    0.8830 ha        1 4ID      0.180000
     42 H12        -2.2560   -0.3590    3.6670 ha        1 4ID      0.206000
     43 H15        -4.5230    1.9240    1.8040 ha        1 4ID      0.144000
     44 H16        -5.8370    3.5320    0.6840 ha        1 4ID      0.139000
     45 H18        -7.1730    4.1250   -1.2790 hc        1 4ID      0.091333
     46 H18A       -8.4350    3.2370   -0.8500 hc        1 4ID      0.091333
     47 H18B       -7.7230    2.9890   -2.2630 hc        1 4ID      0.091333
     48 H19        -7.2270    0.6370   -1.8490 ha        1 4ID      0.140000
     49 H21        -6.5440   -1.9960   -0.4580 hc        1 4ID      0.112667
     50 H21A       -4.9810   -1.8550   -0.7650 hc        1 4ID      0.112667
     51 H21B       -6.0530   -1.4860   -1.8940 hc        1 4ID      0.112667
@<TRIPOS>BOND
     1    1    4 1   
     2    1   25 1   
     3    2   19 1   
     4    3    6 1   
     5    3   34 1   
     6    5    6 1   
     7    5   11 1   
     8    6   13 1   
     9    7   19 1   
    10    8   15 1   
    11    8   17 1   
    12    8   35 1   
    13    9   15 1   
    14   10   14 1   
    15   10   16 1   
    16   11   15 1   
    17   11   36 1   
    18   11   37 1   
    19   12   19 1   
    20   17   18 1   
    21   17   23 1   
    22   18   19 1   
    23   18   20 1   
    24   20   38 1   
    25   21   22 1   
    26   21   39 1   
    27   22   40 1   
    28   23   41 1   
    29   24   25 1   
    30   24   42 1   
    31   26   27 1   
    32   26   32 1   
    33   27   28 1   
    34   27   43 1   
    35   28   44 1   
    36   29   30 1   
    37   29   31 1   
    38   30   45 1   
    39   30   46 1   
    40   30   47 1   
    41   31   48 1   
    42   32   33 1   
    43   33   49 1   
    44   33   50 1   
    45   33   51 1   
@<TRIPOS>SUBSTRUCTURE
     1 4ID         1 TEMP              0 ****  ****    0 ROOT
