@<TRIPOS>MOLECULE
4ID
   51    53     1     0     0
SMALL
bcc


@<TRIPOS>ATOM
      1 C1         -0.0760    0.1160   -0.1630 c         1 4ID      0.753700
      2 F1          7.3460   -1.2010    8.0800 f         1 4ID     -0.238633
      3 N1          1.3500    0.0990   -0.1100 ns        1 4ID     -0.449400
      4 O1         -0.5870    0.2010   -1.2900 o         1 4ID     -0.606500
      5 S1          3.7290    0.0190    1.0300 ss        1 4ID     -0.025300
      6 C2          2.0090    0.0320    1.0970 cc        1 4ID      0.511800
      7 F2          6.0480   -1.9270    6.5050 f         1 4ID     -0.238633
      8 N2          6.2460   -0.1810    4.0900 ns        1 4ID     -0.467100
      9 O2          6.4350   -0.0430    1.7810 o         1 4ID     -0.567100
     10 S2         -2.4470   -0.0300    1.2270 sy        1 4ID      1.458200
     11 C3          4.2140   -0.0930    2.7300 c3        1 4ID     -0.133300
     12 F3          6.0010    0.1590    7.0620 f         1 4ID     -0.238633
     13 N3          1.3690   -0.0200    2.2850 nd        1 4ID     -0.703300
     14 O3         -2.9560   -1.0120    0.3700 o         1 4ID     -0.660800
     15 C4          5.7300   -0.1040    2.8030 c         1 4ID      0.688100
     16 O4         -2.7540   -0.1930    2.5940 o         1 4ID     -0.660800
     17 C5          7.5990   -0.2430    4.4560 ca        1 4ID      0.122600
     18 C6          7.9490   -0.5740    5.7920 ca        1 4ID     -0.222300
     19 C7          6.8780   -0.8780    6.8320 c3        1 4ID      0.686200
     20 C8          9.2880   -0.6250    6.1820 ca        1 4ID     -0.058000
     21 C9         10.3020   -0.3570    5.2700 ca        1 4ID     -0.158000
     22 C10         9.9720   -0.0300    3.9550 ca        1 4ID     -0.073000
     23 C11         8.6460    0.0310    3.5450 ca        1 4ID     -0.162000
     24 C12         0.0090   -0.0200    2.2670 cd        1 4ID      0.279600
     25 C13        -0.7680    0.0390    1.1170 cc        1 4ID     -0.542300
     26 C14        -2.8890    1.4950    0.6930 ca        1 4ID     -0.392500
     27 C15        -3.1880    1.6370   -0.6730 ca        1 4ID     -0.003000
     28 C16        -3.6100    2.8470   -1.2060 ca        1 4ID     -0.167000
     29 C17        -3.7390    3.9690   -0.3760 ca        1 4ID     -0.005300
     30 C18        -4.1790    5.2650   -0.9390 c3        1 4ID     -0.066800
     31 C19        -3.4360    3.8460    0.9820 ca        1 4ID     -0.173000
     32 C20        -3.0120    2.6260    1.5200 ca        1 4ID      0.057700
     33 C21        -2.7120    2.5540    2.9710 c3        1 4ID     -0.080800
     34 HN1         1.8590    0.1310   -0.9690 hn        1 4ID      0.350500
     35 HN2         5.5820   -0.2620    4.8320 hn        1 4ID      0.333500
     36 H3          3.8010   -1.0270    3.1920 h1        1 4ID      0.117200
     37 H3A         3.8100    0.7770    3.3110 h1        1 4ID      0.117200
     38 H8          9.5380   -0.8830    7.2250 ha        1 4ID      0.156000
     39 H9         11.3550   -0.4020    5.5860 ha        1 4ID      0.147000
     40 H10        10.7700    0.1850    3.2260 ha        1 4ID      0.145000
     41 H11         8.4220    0.2930    2.4970 ha        1 4ID      0.180000
     42 H12        -0.4690   -0.0800    3.2710 h4        1 4ID      0.201000
     43 H15        -3.0730    0.7570   -1.3360 ha        1 4ID      0.172000
     44 H16        -3.8410    2.9280   -2.2780 ha        1 4ID      0.142000
     45 H18        -4.5420    5.9550   -0.1380 hc        1 4ID      0.051700
     46 H18A       -3.3240    5.7580   -1.4670 hc        1 4ID      0.051700
     47 H18B       -5.0050    5.1140   -1.6780 hc        1 4ID      0.051700
     48 H19        -3.5340    4.7230    1.6410 ha        1 4ID      0.137000
     49 H21        -2.7020    3.5700    3.4360 hc        1 4ID      0.060367
     50 H21A       -3.4840    1.9290    3.4920 hc        1 4ID      0.060367
     51 H21B       -1.7160    2.0740    3.1450 hc        1 4ID      0.060367
@<TRIPOS>BOND
     1    1    3 1   
     2    1    4 2   
     3    1   25 1   
     4    2   19 1   
     5    3    6 1   
     6    3   34 1   
     7    5    6 1   
     8    5   11 1   
     9    6   13 2   
    10    7   19 1   
    11    8   15 1   
    12    8   17 1   
    13    8   35 1   
    14    9   15 2   
    15   10   14 2   
    16   10   16 2   
    17   10   25 1   
    18   10   26 1   
    19   11   15 1   
    20   11   36 1   
    21   11   37 1   
    22   12   19 1   
    23   13   24 1   
    24   17   18 ar  
    25   17   23 ar  
    26   18   19 1   
    27   18   20 ar  
    28   20   21 ar  
    29   20   38 1   
    30   21   22 ar  
    31   21   39 1   
    32   22   23 ar  
    33   22   40 1   
    34   23   41 1   
    35   24   25 2   
    36   24   42 1   
    37   26   27 ar  
    38   26   32 ar  
    39   27   28 ar  
    40   27   43 1   
    41   28   29 ar  
    42   28   44 1   
    43   29   30 1   
    44   29   31 ar  
    45   30   45 1   
    46   30   46 1   
    47   30   47 1   
    48   31   32 ar  
    49   31   48 1   
    50   32   33 1   
    51   33   49 1   
    52   33   50 1   
    53   33   51 1   
@<TRIPOS>SUBSTRUCTURE
     1 4ID         1 TEMP              0 ****  ****    0 ROOT
