@<TRIPOS>MOLECULE
4ID
   52    54     1     0     0
SMALL
bcc


@<TRIPOS>ATOM
      1 C1          0.0840   -0.4380    0.4210 c         1 4ID      0.746700
      2 F1          5.5140   -2.7760    6.3720 f         1 4ID     -0.220300
      3 N1          1.3600   -0.8340   -0.1050 n         1 4ID     -0.435400
      4 O1         -0.8910   -0.6150   -0.3160 o         1 4ID     -0.558500
      5 S1          4.0000   -1.1560   -0.0900 ss        1 4ID     -0.011300
      6 C2          2.5000   -0.6660    0.6340 cc        1 4ID      0.517800
      7 F2          5.1530   -2.6360    4.2270 f         1 4ID     -0.220300
      8 N2          5.0100    0.2530    3.3300 n4        1 4ID     -0.540200
      9 O2          5.9950    1.0540    1.3790 o         1 4ID     -0.402100
     10 S2         -1.3400    0.5570    2.6050 sy        1 4ID      1.451200
     11 C3          5.1430   -1.2310    1.2400 c3        1 4ID     -0.136300
     12 F3          3.9850   -1.4310    5.5860 f         1 4ID     -0.220300
     13 N3          2.5210   -0.1270    1.8670 nd        1 4ID     -0.793300
     14 O3         -2.1850   -0.5520    2.6240 o         1 4ID     -0.649800
     15 C4          5.4450    0.0870    1.8790 c         1 4ID      0.580100
     16 O4         -0.8880    1.0280    3.8530 o         1 4ID     -0.649800
     17 C5          6.1480    0.2560    4.2550 ca        1 4ID     -0.015400
     18 C6          6.2890   -0.7470    5.2410 ca        1 4ID     -0.150300
     19 C7          5.2690   -1.8800    5.3740 c3        1 4ID      0.680200
     20 C8          7.3680   -0.6990    6.1190 ca        1 4ID     -0.059000
     21 C9          8.3080    0.3330    6.0300 ca        1 4ID     -0.074000
     22 C10         8.1680    1.3210    5.0610 ca        1 4ID     -0.079000
     23 C11         7.0920    1.2920    4.1700 ca        1 4ID     -0.096000
     24 C12         1.3160    0.2520    2.4040 cd        1 4ID      0.244600
     25 C13         0.1010    0.1250    1.7680 cc        1 4ID     -0.450300
     26 C14        -1.9400    1.7720    1.6560 ca        1 4ID     -0.430500
     27 C15        -2.8870    1.4200    0.6740 ca        1 4ID      0.004000
     28 C16        -3.4990    2.3710   -0.1270 ca        1 4ID     -0.163000
     29 C17        -3.1760    3.7270    0.0270 ca        1 4ID      0.016700
     30 C18        -3.8410    4.7530   -0.8080 c3        1 4ID     -0.075800
     31 C19        -2.2290    4.0940    0.9870 ca        1 4ID     -0.172000
     32 C20        -1.6130    3.1350    1.7960 ca        1 4ID      0.061700
     33 C21        -0.6300    3.5880    2.8120 c3        1 4ID     -0.079800
     34 HN1         1.3910   -1.2450   -1.0170 hn        1 4ID      0.361500
     35 HN2         4.5220    1.1590    3.4150 hn        1 4ID      0.480800
     36 H3          6.0960   -1.5960    0.7490 h1        1 4ID      0.151200
     37 H3A         4.8430   -2.0100    1.9930 h1        1 4ID      0.151200
     38 H8          7.4780   -1.4820    6.8930 ha        1 4ID      0.190000
     39 H9          9.1590    0.3590    6.7350 ha        1 4ID      0.182000
     40 H10         8.9060    2.1390    4.9870 ha        1 4ID      0.181000
     41 H11         7.0010    2.0820    3.4030 ha        1 4ID      0.179000
     42 H12         1.3720    0.6790    3.4320 h4        1 4ID      0.198000
     43 H15        -3.1420    0.3500    0.5410 ha        1 4ID      0.171000
     44 H16        -4.2390    2.0640   -0.8820 ha        1 4ID      0.153000
     45 H18        -4.0360    4.3640   -1.8380 hc        1 4ID      0.060033
     46 H18A       -3.2180    5.6780   -0.8870 hc        1 4ID      0.060033
     47 H18B       -4.8240    5.0310   -0.3480 hc        1 4ID      0.060033
     48 H19        -1.9700    5.1570    1.1120 ha        1 4ID      0.145000
     49 H21        -1.0600    3.4660    3.8410 hc        1 4ID      0.058700
     50 H21A       -0.3580    4.6610    2.6640 hc        1 4ID      0.058700
     51 H21B        0.3040    2.9730    2.7590 hc        1 4ID      0.058700
     52 H22         4.3400   -0.4910    3.5770 hn        1 4ID      0.480800
@<TRIPOS>BOND
     1    1    3 1   
     2    1    4 2   
     3    1   25 1   
     4    2   19 1   
     5    3    6 1   
     6    3   34 1   
     7    5    6 1   
     8    5   11 1   
     9    6   13 2   
    10    7   19 1   
    11    8   15 1   
    12    8   17 1   
    13    8   35 1   
    14    8   52 1   
    15    9   15 2   
    16   10   14 2   
    17   10   16 2   
    18   10   25 1   
    19   10   26 1   
    20   11   15 1   
    21   11   36 1   
    22   11   37 1   
    23   12   19 1   
    24   13   24 1   
    25   17   18 ar  
    26   17   23 ar  
    27   18   19 1   
    28   18   20 ar  
    29   20   21 ar  
    30   20   38 1   
    31   21   22 ar  
    32   21   39 1   
    33   22   23 ar  
    34   22   40 1   
    35   23   41 1   
    36   24   25 2   
    37   24   42 1   
    38   26   27 ar  
    39   26   32 ar  
    40   27   28 ar  
    41   27   43 1   
    42   28   29 ar  
    43   28   44 1   
    44   29   30 1   
    45   29   31 ar  
    46   30   45 1   
    47   30   46 1   
    48   30   47 1   
    49   31   32 ar  
    50   31   48 1   
    51   32   33 1   
    52   33   49 1   
    53   33   50 1   
    54   33   51 1   
@<TRIPOS>SUBSTRUCTURE
     1 4ID         1 TEMP              0 ****  ****    0 ROOT
