@<TRIPOS>MOLECULE
4IG
   59    53     1     0     0
SMALL
bcc


@<TRIPOS>ATOM
      1 C1          3.3560    1.8780   -0.8570 c1        1 4IG      0.202000
      2 N1          4.6930    1.8890   -0.7560 n1        1 4IG     -0.296000
      3 C2          5.2890    2.3620    0.3740 c1        1 4IG      0.190000
      4 N2          4.5190    2.8300    1.4160 n1        1 4IG     -0.256000
      5 C3          3.1830    2.8210    1.3200 c1        1 4IG      0.109000
      6 C4          2.5820    2.3470    0.1850 c1        1 4IG     -0.283000
      7 N3          2.7520    1.5100   -2.0690 n3        1 4IG     -0.341000
      8 N4          6.6870    2.3840    0.4710 n3        1 4IG     -0.327000
      9 C5          2.3010    3.3850    2.5050 c3        1 4IG     -0.122000
     10 C6          3.0440    4.4610    3.2110 c3        1 4IG     -0.201000
     11 C7          0.3110    3.1260   -0.2990 c1        1 4IG     -0.126000
     12 C8         -1.0490    2.8280   -0.5180 c1        1 4IG     -0.120000
     13 C9         -1.5300    1.5430   -0.2690 c1        1 4IG      0.012000
     14 C10        -0.6360    0.5190    0.2140 c1        1 4IG      0.033000
     15 C11         0.7120    0.8170    0.4310 c1        1 4IG     -0.138000
     16 C12         1.1980    2.1130    0.1790 c1        1 4IG     -0.003000
     17 O3         -2.8940    1.1160   -0.7340 os        1 4IG     -0.190000
     18 C14        -3.2550   -0.1740   -0.5240 c3        1 4IG      0.056000
     19 C15        -2.1570   -1.1060   -0.6440 c2        1 4IG      0.292000
     20 N5         -1.0580   -0.8710    0.0690 n         1 4IG     -0.262000
     21 C16        -0.1170   -1.9490    0.3310 c3        1 4IG     -0.027000
     22 C17        -0.8810   -3.1730    0.9020 c3        1 4IG     -0.186000
     23 C18         0.0850   -4.0600    1.6690 c3        1 4IG     -0.020000
     24 O1         -0.5300   -5.3460    1.9170 os        1 4IG     -0.276000
     25 C19         0.4070   -6.3810    2.3000 c3        1 4IG     -0.074000
     26 O4         -2.3460   -2.2000   -1.1180 o         1 4IG     -0.340000
     27 C20        -4.4190   -0.4450   -4.1460 c1        1 4IG      0.115000
     28 C21        -3.6710   -0.0930   -3.0170 c1        1 4IG     -0.160000
     29 C22        -4.1020   -0.4880   -1.7410 c2        1 4IG     -0.064000
     30 C23        -5.2810   -1.2330   -1.6000 c2        1 4IG     -0.170000
     31 C24        -6.0300   -1.5840   -2.7340 c1        1 4IG      0.119000
     32 C25        -5.6030   -1.1930   -3.9990 c1        1 4IG     -0.200000
     33 F2         -4.0320   -0.0220   -5.3760 f         1 4IG     -0.098000
     34 F1         -7.1580   -2.3380   -2.5980 f         1 4IG     -0.096000
     35 HN31        3.1810    1.6740   -2.8600 hn        1 4IG      0.219000
     36 HN32        1.9920    1.0360   -2.0640 hn        1 4IG      0.219000
     37 HN41        7.1310    3.1820    0.4820 hn        1 4IG      0.224000
     38 HN42        7.1500    1.6050    0.5530 hn        1 4IG      0.224000
     39 H51         1.4770    3.7430    2.1500 hc        1 4IG      0.101000
     40 H52         2.0990    2.6640    3.1340 hc        1 4IG      0.101000
     41 H61         3.8430    4.0750    3.6510 hc        1 4IG      0.080333
     42 H62         2.4640    4.8690    3.8890 hc        1 4IG      0.080333
     43 H63         3.3250    5.1470    2.5610 hc        1 4IG      0.080333
     44 H7          0.6560    3.9970   -0.5270 ha        1 4IG      0.147000
     45 H8         -1.6590    3.5270   -0.8480 ha        1 4IG      0.155000
     46 H11         1.3100    0.1360    0.7830 ha        1 4IG      0.155000
     47 H14        -3.8820   -0.3350    0.2260 h1        1 4IG      0.166000
     48 H161        0.3270   -2.2010   -0.5030 h1        1 4IG      0.108500
     49 H162        0.5560   -1.6470    0.9840 h1        1 4IG      0.108500
     50 H171       -1.5680   -2.8730    1.4860 hc        1 4IG      0.107500
     51 H172       -1.2740   -3.6760    0.1720 hc        1 4IG      0.107500
     52 H181        0.8950   -4.1830    1.1470 h1        1 4IG      0.067500
     53 H182        0.3110   -3.6310    2.5320 h1        1 4IG      0.067500
     54 H191        1.1840   -6.3550    1.7040 h1        1 4IG      0.073333
     55 H192       -0.0330   -7.2680    2.2310 h1        1 4IG      0.073333
     56 H193        0.7020   -6.2310    3.2340 h1        1 4IG      0.073333
     57 H21        -2.8510    0.4230   -3.1180 ha        1 4IG      0.166000
     58 H23        -5.5840   -1.5080   -0.7110 ha        1 4IG      0.178000
     59 H25        -6.1240   -1.4380   -4.7830 ha        1 4IG      0.167000
@<TRIPOS>BOND
     1    1    6 1   
     2    1    7 1   
     3    2    3 1   
     4    3    8 1   
     5    4    5 1   
     6    5    9 1   
     7    7   35 1   
     8    7   36 1   
     9    8   37 1   
    10    8   38 1   
    11    9   10 1   
    12    9   39 1   
    13    9   40 1   
    14   10   41 1   
    15   10   42 1   
    16   10   43 1   
    17   11   16 1   
    18   11   44 1   
    19   12   13 1   
    20   12   45 1   
    21   13   17 1   
    22   14   15 1   
    23   14   20 1   
    24   15   46 1   
    25   17   18 1   
    26   18   19 1   
    27   18   29 1   
    28   18   47 1   
    29   19   20 1   
    30   19   26 1   
    31   20   21 1   
    32   21   22 1   
    33   21   48 1   
    34   21   49 1   
    35   22   23 1   
    36   22   50 1   
    37   22   51 1   
    38   23   24 1   
    39   23   52 1   
    40   23   53 1   
    41   24   25 1   
    42   25   54 1   
    43   25   55 1   
    44   25   56 1   
    45   27   32 1   
    46   27   33 1   
    47   28   29 1   
    48   28   57 1   
    49   29   30 1   
    50   30   31 1   
    51   30   58 1   
    52   31   34 1   
    53   32   59 1   
@<TRIPOS>SUBSTRUCTURE
     1 4IG         1 TEMP              0 ****  ****    0 ROOT
