@<TRIPOS>MOLECULE
4IG
   59    62     1     0     0
SMALL
bcc


@<TRIPOS>ATOM
      1 C1          0.0050   -1.2020    0.0670 ca        1 4IG      0.726200
      2 N1          1.3590   -1.2620   -0.1240 nb        1 4IG     -0.823000
      3 C2          2.1300   -0.4350    0.6710 ca        1 4IG      0.906900
      4 N2          1.6450    0.4130    1.6570 nb        1 4IG     -0.787000
      5 C3          0.3050    0.4710    1.8060 ca        1 4IG      0.529600
      6 C4         -0.5840   -0.3030    1.0260 cp        1 4IG     -0.403600
      7 N3         -0.7960   -2.0770   -0.6530 nh        1 4IG     -0.948500
      8 N4          3.5060   -0.4090    0.4190 nh        1 4IG     -0.928500
      9 C5         -0.2280    1.3910    2.8750 c3        1 4IG     -0.141700
     10 C6          0.0200    2.8420    2.5420 c3        1 4IG     -0.088100
     11 C7         -2.7590   -1.3360    1.6210 ca        1 4IG     -0.129000
     12 C8         -4.1420   -1.2670    1.7550 ca        1 4IG     -0.120000
     13 C9         -4.8060   -0.0870    1.4140 ca        1 4IG      0.056100
     14 C10        -4.1010    1.0520    0.9430 ca        1 4IG      0.026600
     15 C11        -2.7010    0.9610    0.8380 ca        1 4IG     -0.140000
     16 C12        -2.0340   -0.2260    1.1670 cp        1 4IG     -0.001000
     17 O3         -6.1930   -0.1000    1.4900 os        1 4IG     -0.307900
     18 C14        -6.7880    1.1650    1.7750 c3        1 4IG      0.125400
     19 C15        -6.1610    2.3170    0.9780 c         1 4IG      0.684500
     20 N5         -4.8270    2.2090    0.5940 n         1 4IG     -0.360000
     21 C16        -4.1840    3.3070   -0.0980 c3        1 4IG      0.092000
     22 C17        -3.4580    4.3000    0.8090 c3        1 4IG     -0.109400
     23 C18        -2.8920    5.4240   -0.0400 c3        1 4IG      0.130400
     24 O1         -2.1310    6.2490    0.8400 os        1 4IG     -0.420600
     25 C19        -1.5830    7.3800    0.1850 c3        1 4IG      0.115700
     26 O4         -6.8460    3.3100    0.6740 o         1 4IG     -0.614500
     27 C20        -7.4390    3.0030    5.0230 ca        1 4IG      0.152900
     28 C21        -7.3720    2.6990    3.6520 ca        1 4IG     -0.164000
     29 C22        -6.8020    1.4900    3.2420 ca        1 4IG     -0.073300
     30 C23        -6.3070    0.5850    4.1790 ca        1 4IG     -0.164000
     31 C24        -6.3770    0.8980    5.5500 ca        1 4IG      0.152900
     32 C25        -6.9420    2.1070    5.9850 ca        1 4IG     -0.199000
     33 F1         -5.8950    0.0200    6.4610 f         1 4IG     -0.131900
     34 HN31       -1.7590   -1.8440   -0.7110 hn        1 4IG      0.427300
     35 HN32       -0.4000   -2.5450   -1.4340 hn        1 4IG      0.427300
     36 HN41        3.8830   -1.1780   -0.0840 hn        1 4IG      0.427800
     37 HN42        4.0800   -0.0220    1.1310 hn        1 4IG      0.427800
     38 H51        -1.3280    1.2140    3.0040 hc        1 4IG      0.062700
     39 H52         0.2670    1.1410    3.8530 hc        1 4IG      0.062700
     40 H61        -0.4440    3.1080    1.5600 hc        1 4IG      0.042033
     41 H62        -0.4300    3.4930    3.3300 hc        1 4IG      0.042033
     42 H63         1.1140    3.0580    2.4850 hc        1 4IG      0.042033
     43 H7         -2.2290   -2.2640    1.8840 ha        1 4IG      0.152000
     44 H8         -4.7230   -2.1280    2.1170 ha        1 4IG      0.155000
     45 H11        -2.1060    1.8250    0.5030 ha        1 4IG      0.152000
     46 H14        -7.8530    1.0290    1.4140 h1        1 4IG      0.125700
     47 H161       -4.9840    3.8610   -0.6720 h1        1 4IG      0.068700
     48 H162       -3.4540    2.8770   -0.8430 h1        1 4IG      0.068700
     49 H171       -4.1640    4.7280    1.5670 hc        1 4IG      0.067700
     50 H172       -2.6260    3.8000    1.3710 hc        1 4IG      0.067700
     51 H181       -2.2220    5.0240   -0.8490 h1        1 4IG      0.028200
     52 H182       -3.7130    6.0270   -0.5120 h1        1 4IG      0.028200
     53 H191       -1.0220    7.9210    0.9870 h1        1 4IG      0.034367
     54 H192       -0.8910    7.0650   -0.6350 h1        1 4IG      0.034367
     55 H193       -2.3950    8.0280   -0.2310 h1        1 4IG      0.034367
     56 H21        -7.7600    3.4160    2.9090 ha        1 4IG      0.171500
     57 H23        -5.8630   -0.3710    3.8570 ha        1 4IG      0.171500
     58 H25        -6.9960    2.3480    7.0560 ha        1 4IG      0.167000
     59 F2         -7.9890    4.1730    5.4250 f         1 4IG     -0.131900
@<TRIPOS>BOND
     1    1    2 ar  
     2    1    6 ar  
     3    1    7 1   
     4    2    3 ar  
     5    3    4 ar  
     6    3    8 1   
     7    4    5 ar  
     8    5    6 ar  
     9    5    9 1   
    10    6   16 1   
    11    7   34 1   
    12    7   35 1   
    13    8   36 1   
    14    8   37 1   
    15    9   10 1   
    16    9   38 1   
    17    9   39 1   
    18   10   40 1   
    19   10   41 1   
    20   10   42 1   
    21   11   12 ar  
    22   11   16 ar  
    23   11   43 1   
    24   12   13 ar  
    25   12   44 1   
    26   13   14 ar  
    27   13   17 1   
    28   14   15 ar  
    29   14   20 1   
    30   15   16 ar  
    31   15   45 1   
    32   17   18 1   
    33   18   19 1   
    34   18   29 1   
    35   18   46 1   
    36   19   20 1   
    37   19   26 2   
    38   20   21 1   
    39   21   22 1   
    40   21   47 1   
    41   21   48 1   
    42   22   23 1   
    43   22   49 1   
    44   22   50 1   
    45   23   24 1   
    46   23   51 1   
    47   23   52 1   
    48   24   25 1   
    49   25   53 1   
    50   25   54 1   
    51   25   55 1   
    52   27   28 ar  
    53   27   32 ar  
    54   27   59 1   
    55   28   29 ar  
    56   28   56 1   
    57   29   30 ar  
    58   30   31 ar  
    59   30   57 1   
    60   31   32 ar  
    61   31   33 1   
    62   32   58 1   
@<TRIPOS>SUBSTRUCTURE
     1 4IG         1 TEMP              0 ****  ****    0 ROOT
