@<TRIPOS>MOLECULE
4IG
   59    62     1     0     0
SMALL
bcc


@<TRIPOS>ATOM
      1 C1         -4.1490   -0.0770   -1.2750 ca        1 4IG      0.720200
      2 N1         -5.4650   -0.1600   -0.9130 nb        1 4IG     -0.821000
      3 C2         -5.8340    0.5320    0.2260 ca        1 4IG      0.906900
      4 N2         -4.9760    1.2630    1.0370 nb        1 4IG     -0.786000
      5 C3         -3.6870    1.3430    0.6440 ca        1 4IG      0.530600
      6 C4         -3.2060    0.7100   -0.5240 cp        1 4IG     -0.401600
      7 N3         -3.7170   -0.8300   -2.3610 nh        1 4IG     -0.943500
      8 N4         -7.1940    0.5450    0.5520 nh        1 4IG     -0.929500
      9 C5         -2.7520    2.1390    1.5190 c3        1 4IG     -0.139700
     10 C6         -2.5210    1.4620    2.8470 c3        1 4IG     -0.087100
     11 C7         -1.3380    2.0320   -1.4840 ca        1 4IG     -0.127000
     12 C8         -0.0210    2.1360   -1.9200 ca        1 4IG     -0.120000
     13 C9          0.8100    1.0160   -1.8630 ca        1 4IG      0.057100
     14 C10         0.3470   -0.2290   -1.3600 ca        1 4IG      0.025600
     15 C11        -0.9830   -0.3000   -0.9070 ca        1 4IG     -0.139000
     16 C12        -1.8220    0.8190   -0.9730 cp        1 4IG     -0.003000
     17 O3          2.0890    1.1540   -2.3880 os        1 4IG     -0.307900
     18 C14         3.0760    0.3180   -1.7850 c3        1 4IG      0.125400
     19 C15         2.5870   -1.1180   -1.5520 c         1 4IG      0.684500
     20 N5          1.2260   -1.3310   -1.3480 n         1 4IG     -0.359000
     21 C16         0.7420   -2.6600   -1.0360 c3        1 4IG      0.091000
     22 C17         0.6430   -2.9720    0.4570 c3        1 4IG     -0.109400
     23 C18         0.1310   -4.3900    0.6350 c3        1 4IG      0.130400
     24 O1         -0.0150   -4.5930    2.0390 os        1 4IG     -0.419600
     25 C19        -0.4510   -5.9030    2.3560 c3        1 4IG      0.115700
     26 O4          3.3970   -2.0620   -1.5670 o         1 4IG     -0.614500
     27 C20         5.1960    0.7140    1.3290 ca        1 4IG      0.152900
     28 C21         4.6240    0.1730    0.1650 ca        1 4IG     -0.164000
     29 C22         3.6370    0.8920   -0.5150 ca        1 4IG     -0.072300
     30 C23         3.2200    2.1390   -0.0500 ca        1 4IG     -0.164000
     31 C24         3.7970    2.6720    1.1170 ca        1 4IG      0.152900
     32 C25         4.7890    1.9670    1.8180 ca        1 4IG     -0.199000
     33 F1          3.3920    3.8820    1.5710 f         1 4IG     -0.131900
     34 HN31       -4.4070   -1.1910   -2.9780 hn        1 4IG      0.422800
     35 HN32       -2.8680   -0.5290   -2.7810 hn        1 4IG      0.422800
     36 HN41       -7.4280    0.8210    1.4770 hn        1 4IG      0.427800
     37 HN42       -7.7600   -0.1620    0.1440 hn        1 4IG      0.427800
     38 H51        -3.1860    3.1620    1.6880 hc        1 4IG      0.061700
     39 H52        -1.7730    2.2760    0.9880 hc        1 4IG      0.061700
     40 H61        -1.7900    2.0560    3.4480 hc        1 4IG      0.041367
     41 H62        -3.4730    1.3820    3.4250 hc        1 4IG      0.041367
     42 H63        -2.1070    0.4350    2.7020 hc        1 4IG      0.041367
     43 H7         -2.0020    2.9080   -1.5330 ha        1 4IG      0.147000
     44 H8          0.3740    3.0820   -2.3200 ha        1 4IG      0.155000
     45 H11        -1.3860   -1.2380   -0.4910 ha        1 4IG      0.156000
     46 H14         3.8920    0.2870   -2.5710 h1        1 4IG      0.125700
     47 H161       -0.2710   -2.7880   -1.5140 h1        1 4IG      0.069200
     48 H162        1.4500   -3.4000   -1.5120 h1        1 4IG      0.069200
     49 H171        1.6480   -2.8760    0.9440 hc        1 4IG      0.068200
     50 H172       -0.0490   -2.2570    0.9730 hc        1 4IG      0.068200
     51 H181       -0.8640   -4.5280    0.1320 h1        1 4IG      0.028700
     52 H182        0.8580   -5.1370    0.2170 h1        1 4IG      0.028700
     53 H191        0.2910   -6.6620    2.0020 h1        1 4IG      0.034033
     54 H192       -0.5190   -5.9120    3.4720 h1        1 4IG      0.034033
     55 H193       -1.4510   -6.1080    1.9000 h1        1 4IG      0.034033
     56 H21         4.9500   -0.8150   -0.2020 ha        1 4IG      0.171500
     57 H23         2.4470    2.7090   -0.5890 ha        1 4IG      0.171500
     58 H25         5.2380    2.3860    2.7290 ha        1 4IG      0.167000
     59 F2          6.1520    0.0210    1.9910 f         1 4IG     -0.131900
@<TRIPOS>BOND
     1    1    2 ar  
     2    1    6 ar  
     3    1    7 1   
     4    2    3 ar  
     5    3    4 ar  
     6    3    8 1   
     7    4    5 ar  
     8    5    6 ar  
     9    5    9 1   
    10    6   16 1   
    11    7   34 1   
    12    7   35 1   
    13    8   36 1   
    14    8   37 1   
    15    9   10 1   
    16    9   38 1   
    17    9   39 1   
    18   10   40 1   
    19   10   41 1   
    20   10   42 1   
    21   11   12 ar  
    22   11   16 ar  
    23   11   43 1   
    24   12   13 ar  
    25   12   44 1   
    26   13   14 ar  
    27   13   17 1   
    28   14   15 ar  
    29   14   20 1   
    30   15   16 ar  
    31   15   45 1   
    32   17   18 1   
    33   18   19 1   
    34   18   29 1   
    35   18   46 1   
    36   19   20 1   
    37   19   26 2   
    38   20   21 1   
    39   21   22 1   
    40   21   47 1   
    41   21   48 1   
    42   22   23 1   
    43   22   49 1   
    44   22   50 1   
    45   23   24 1   
    46   23   51 1   
    47   23   52 1   
    48   24   25 1   
    49   25   53 1   
    50   25   54 1   
    51   25   55 1   
    52   27   28 ar  
    53   27   32 ar  
    54   27   59 1   
    55   28   29 ar  
    56   28   56 1   
    57   29   30 ar  
    58   30   31 ar  
    59   30   57 1   
    60   31   32 ar  
    61   31   33 1   
    62   32   58 1   
@<TRIPOS>SUBSTRUCTURE
     1 4IG         1 TEMP              0 ****  ****    0 ROOT
