@<TRIPOS>MOLECULE
4IK
   52    46     1     0     0
SMALL
bcc


@<TRIPOS>ATOM
      1 C          -3.1820    1.4060   -4.1990 c1        1 4IK      0.319000
      2 N          -2.0970    3.5420   -4.1040 n3        1 4IK     -0.319000
      3 O          -4.3730    1.8160   -4.1630 o         1 4IK     -0.592500
      4 N1          4.9140   -3.5270   -0.4670 n1        1 4IK     -0.272000
      5 C2          3.7230   -3.7360   -1.1040 c1        1 4IK      0.007000
      6 N3          2.5940   -3.1310   -0.6510 n1        1 4IK     -0.185000
      7 C4          2.6480   -2.3140    0.4430 c1        1 4IK     -0.082000
      8 C5          3.8200   -2.1070    1.0720 c1        1 4IK     -0.082000
      9 C6          4.9700   -2.7240    0.6080 c1        1 4IK      0.209000
     10 N6          6.3490   -2.5270    0.9120 n3        1 4IK     -0.341000
     11 N7          3.5990   -1.2430    2.1010 n1        1 4IK     -0.158500
     12 C8          2.2860   -0.9200    2.1020 c1        1 4IK     -0.036000
     13 N9          1.6930   -1.5780    1.0810 n1        1 4IK     -0.158500
     14 CA         -2.0820    2.2240   -3.5640 c2        1 4IK     -0.123000
     15 CB         -2.3030    2.2900   -2.0690 c3        1 4IK     -0.149000
     16 NZ         -2.2330    3.5330    1.3610 n3        1 4IK     -0.341000
     17 O3'        -2.7740   -1.8510    2.0170 oh        1 4IK     -0.335000
     18 O2'        -0.8190   -3.1440    2.9360 oh        1 4IK     -0.321000
     19 CE         -1.0240    2.9790    0.8240 c3        1 4IK     -0.089000
     20 CG         -1.0430    1.8000   -1.3440 c3        1 4IK     -0.145000
     21 C5'        -0.4570    0.5700    0.7410 c3        1 4IK     -0.148000
     22 O4'        -0.3130   -1.8780    0.1150 os        1 4IK     -0.274000
     23 CD         -1.3290    1.6750    0.1440 c3        1 4IK     -0.148000
     24 C3'        -1.5020   -1.0990    1.9880 c3        1 4IK     -0.001000
     25 C2'        -0.3490   -1.9970    2.4040 c3        1 4IK     -0.015000
     26 C4'        -1.2130   -0.7220    0.7310 c3        1 4IK     -0.047000
     27 C1'         0.4530   -2.2960    1.0830 c2        1 4IK      0.113000
     28 OXT        -2.9020    0.3480   -4.8160 o         1 4IK     -0.592500
     29 H          -1.2460    3.8670   -4.1370 hn        1 4IK      0.129000
     30 H2         -2.4510    3.5210   -4.9530 hn        1 4IK      0.129000
     31 H2A         3.6830   -4.3180   -1.8840 ha        1 4IK      0.182000
     32 H62         6.9940   -2.9450    0.4090 hn        1 4IK      0.221500
     33 H61         6.5910   -2.0010    1.6200 hn        1 4IK      0.221500
     34 H8          1.8380   -0.3490    2.7500 DU        1 4IK      0.204000
     35 HA         -1.2210    1.8070   -3.7470 h4        1 4IK      0.089000
     36 HB2        -3.0570    1.7230   -1.8270 hc        1 4IK      0.087000
     37 HB3        -2.4920    3.2140   -1.8080 hc        1 4IK      0.087000
     38 HZ2        -2.3330    4.3990    1.0630 hn        1 4IK      0.134500
     39 HZ3        -2.1910    3.5280    2.2730 hn        1 4IK      0.134500
     40 HO3'       -3.2610   -1.5870    2.7170 ho        1 4IK      0.268000
     41 HO2'       -0.9130   -3.0460    3.8180 ho        1 4IK      0.265000
     42 HE3        -0.6380    3.6030    0.1750 h1        1 4IK      0.087000
     43 HE2        -0.3860    2.8260    1.5480 h1        1 4IK      0.087000
     44 HG2        -0.7810    0.9300   -1.6990 hc        1 4IK      0.077000
     45 HG3        -0.3140    2.4430   -1.4830 hc        1 4IK      0.077000
     46 H5''       -0.2200    0.8030    1.6640 hc        1 4IK      0.074500
     47 H5'         0.3570    0.4750    0.2100 hc        1 4IK      0.074500
     48 HD         -2.2660    1.4540    0.2750 hc        1 4IK      0.106000
     49 H3'        -1.5540   -0.3150    2.5770 h1        1 4IK      0.095000
     50 H2'         0.2220   -1.5350    3.0480 h1        1 4IK      0.126000
     51 H4'        -2.0330   -0.6260    0.2140 h1        1 4IK      0.187000
     52 H1'         0.6170   -3.2620    0.9950 h4        1 4IK      0.165000
@<TRIPOS>BOND
     1    1    3 1   
     2    1   28 1   
     3    2   14 1   
     4    2   29 1   
     5    2   30 1   
     6    4    9 1   
     7    5    6 1   
     8    5   31 1   
     9    7    8 1   
    10    9   10 1   
    11   10   32 1   
    12   10   33 1   
    13   11   12 1   
    14   12   13 1   
    15   14   15 1   
    16   14   35 1   
    17   15   20 1   
    18   15   36 1   
    19   15   37 1   
    20   16   19 1   
    21   16   38 1   
    22   16   39 1   
    23   17   24 1   
    24   17   40 1   
    25   18   25 1   
    26   18   41 1   
    27   19   23 1   
    28   19   42 1   
    29   19   43 1   
    30   20   23 1   
    31   20   44 1   
    32   20   45 1   
    33   21   23 1   
    34   21   26 1   
    35   21   46 1   
    36   21   47 1   
    37   22   26 1   
    38   22   27 1   
    39   23   48 1   
    40   24   25 1   
    41   24   26 1   
    42   24   49 1   
    43   25   27 1   
    44   25   50 1   
    45   26   51 1   
    46   27   52 1   
@<TRIPOS>SUBSTRUCTURE
     1 4IK         1 TEMP              0 ****  ****    0 ROOT
