@<TRIPOS>MOLECULE
4IK
   52    54     1     0     0
SMALL
bcc


@<TRIPOS>ATOM
      1 C           3.2810    3.0620   -0.5680 c         1 4IK      0.888600
      2 N           4.7760    2.1800    1.2920 n3        1 4IK     -0.892800
      3 O           3.5560    4.2180   -0.1400 o         1 4IK     -0.841800
      4 N1         -4.9700    2.2500   -0.2400 nb        1 4IK     -0.800000
      5 C2         -5.0800    0.9280   -0.5390 ca        1 4IK      0.674900
      6 N3         -4.1700   -0.0690   -0.4520 nb        1 4IK     -0.759000
      7 C4         -2.9640    0.3680    0.0260 ca        1 4IK      0.436800
      8 C5         -2.6950    1.7480    0.4060 ca        1 4IK     -0.208200
      9 C6         -3.7620    2.6920    0.2500 ca        1 4IK      0.745200
     10 N6         -3.5830    4.0020    0.6350 nh        1 4IK     -0.937500
     11 N7         -1.3670    1.8750    0.8430 nc        1 4IK     -0.525100
     12 C8         -0.8370    0.6500    0.7280 cd        1 4IK      0.449700
     13 N9         -1.7560   -0.3150    0.2380 na        1 4IK     -0.293000
     14 CA          3.9740    1.8390    0.1230 c3        1 4IK      0.016500
     15 CB          2.9140    0.7730    0.4130 c3        1 4IK     -0.068400
     16 O3'        -0.4850   -4.3690   -1.8870 oh        1 4IK     -0.580800
     17 O2'        -2.7110   -3.1670   -1.5250 oh        1 4IK     -0.601800
     18 CE          3.1880   -2.9720    1.3100 c3        1 4IK      0.151800
     19 CG          3.5300   -0.6020    0.5540 c3        1 4IK     -0.079400
     20 C5'         1.7280   -1.9860   -0.4790 c3        1 4IK     -0.092400
     21 O4'        -0.3920   -2.1880    0.7040 os        1 4IK     -0.410600
     22 CD          2.4970   -1.6940    0.8010 c3        1 4IK     -0.103700
     23 C3'        -0.3170   -3.0060   -1.5760 c3        1 4IK      0.125100
     24 C2'        -1.6460   -2.2510   -1.3710 c3        1 4IK      0.077100
     25 C4'         0.4720   -2.8140   -0.2620 c3        1 4IK      0.100100
     26 C1'        -1.6110   -1.7450    0.1090 c3        1 4IK      0.229800
     27 OXT         2.5060    2.8200   -1.5350 o         1 4IK     -0.841800
     28 H           5.3190    2.9930    1.0500 hn        1 4IK      0.332300
     29 H2          4.1560    2.4700    2.0280 hn        1 4IK      0.332300
     30 H62        -2.6450    4.3030    0.7740 hn        1 4IK      0.438300
     31 H61        -4.2440    4.6810    0.3420 hn        1 4IK      0.438300
     32 H8          0.2080    0.3750    0.9480 h5        1 4IK      0.103800
     33 HA          4.6910    1.4220   -0.6440 h1        1 4IK      0.040700
     34 HB2         2.3430    1.0300    1.3430 hc        1 4IK      0.044700
     35 HB3         2.1910    0.7950   -0.4470 hc        1 4IK      0.044700
     36 HZ2         4.4580   -2.2770    2.7270 hn        1 4IK      0.344300
     37 HZ3         2.9930   -2.6730    3.3010 hn        1 4IK      0.344300
     38 HO3'       -1.1610   -4.7280   -1.2980 ho        1 4IK      0.416000
     39 HO2'       -3.5260   -2.6480   -1.5010 ho        1 4IK      0.431000
     40 HE3         4.0380   -3.2170    0.6130 h1        1 4IK      0.042200
     41 HE2         2.4520   -3.8240    1.2660 h1        1 4IK      0.042200
     42 HG2         4.1080   -0.8490   -0.3760 hc        1 4IK      0.040700
     43 HG3         4.2660   -0.5790    1.4010 hc        1 4IK      0.040700
     44 H5''        1.4430   -1.0120   -0.9610 hc        1 4IK      0.063200
     45 H5'         2.3880   -2.5420   -1.1960 hc        1 4IK      0.063200
     46 HD          1.7620   -1.3380    1.5770 hc        1 4IK      0.053700
     47 H3'         0.2480   -2.5840   -2.4530 h1        1 4IK      0.101700
     48 H2'        -1.7430   -1.4090   -2.1060 h1        1 4IK      0.083700
     49 H4'         0.7220   -3.8150    0.1900 h1        1 4IK      0.077700
     50 H1'        -2.4430   -2.2350    0.7040 h2        1 4IK      0.088700
     51 NZ          3.7100   -2.9400    2.6540 n3        1 4IK     -0.906800
     52 H2A        -6.0780    0.6260   -0.9240 h5        1 4IK      0.039100
@<TRIPOS>BOND
     1    1    3 1   
     2    1   14 1   
     3    1   27 1   
     4    2   14 1   
     5    2   28 1   
     6    2   29 1   
     7    4    5 ar  
     8    4    9 ar  
     9    5    6 ar  
    10    5   52 1   
    11    6    7 ar  
    12    7    8 ar  
    13    7   13 1   
    14    8    9 ar  
    15    8   11 1   
    16    9   10 1   
    17   10   30 1   
    18   10   31 1   
    19   11   12 2   
    20   12   13 1   
    21   12   32 1   
    22   13   26 1   
    23   14   15 1   
    24   14   33 1   
    25   15   19 1   
    26   15   34 1   
    27   15   35 1   
    28   16   23 1   
    29   16   38 1   
    30   17   24 1   
    31   17   39 1   
    32   18   22 1   
    33   18   40 1   
    34   18   41 1   
    35   18   51 1   
    36   19   22 1   
    37   19   42 1   
    38   19   43 1   
    39   20   22 1   
    40   20   25 1   
    41   20   44 1   
    42   20   45 1   
    43   21   25 1   
    44   21   26 1   
    45   22   46 1   
    46   23   24 1   
    47   23   25 1   
    48   23   47 1   
    49   24   26 1   
    50   24   48 1   
    51   25   49 1   
    52   26   50 1   
    53   36   51 1   
    54   37   51 1   
@<TRIPOS>SUBSTRUCTURE
     1 4IK         1 TEMP              0 ****  ****    0 ROOT
