@<TRIPOS>MOLECULE
4IN
   28    29     1     0     0
SMALL
bcc


@<TRIPOS>ATOM
      1 N          -2.4750   -1.5730    1.1250 n3        1 4IN     -0.882800
      2 CA         -1.9480   -0.3770    0.4810 c3        1 4IN      0.020500
      3 CB         -1.1840   -0.6900   -0.8170 c3        1 4IN     -0.010200
      4 CG          0.2390   -0.9770   -0.5700 cc        1 4IN     -0.057400
      5 CD1         0.8100   -2.2430   -0.5740 cd        1 4IN     -0.172100
      6 NE1         2.2050   -2.1610   -0.3640 na        1 4IN     -0.192400
      7 CE2         2.5030   -0.8150   -0.0900 ca        1 4IN     -0.010200
      8 CZ2         3.7320   -0.2320    0.2520 ca        1 4IN     -0.239000
      9 CH2         3.7540    1.1460    0.4160 ca        1 4IN     -0.064000
     10 CZ3         2.6190    1.9350    0.2440 ca        1 4IN     -0.282000
     11 CE3         1.3640    1.3770   -0.1210 ca        1 4IN      0.248600
     12 N16         0.2860    2.1830   -0.3970 nh        1 4IN     -0.840200
     13 CD2         1.3070   -0.0330   -0.2660 ca        1 4IN     -0.162800
     14 C          -3.0260    0.7110    0.1730 c         1 4IN      0.884600
     15 OXT        -2.6080    1.8560   -0.1750 o         1 4IN     -0.842300
     16 O          -4.2440    0.4130    0.3060 o         1 4IN     -0.842300
     17 H          -3.0130   -1.2720    1.9200 hn        1 4IN      0.330800
     18 H2         -3.1280   -2.0080    0.4940 hn        1 4IN      0.330800
     19 HA         -1.2250    0.0920    1.2120 h1        1 4IN      0.049700
     20 HB2        -1.6530   -1.5650   -1.3430 hc        1 4IN      0.052700
     21 HB3        -1.2850    0.1900   -1.5100 hc        1 4IN      0.052700
     22 HD1         0.3370   -3.2100   -0.7460 h4        1 4IN      0.156000
     23 HE1         2.7070   -2.8930    0.0690 hn        1 4IN      0.263700
     24 HZ2         4.6330   -0.8390    0.3860 ha        1 4IN      0.114000
     25 HH2         4.6990    1.6370    0.6960 ha        1 4IN      0.105000
     26 HZ3         2.7010    3.0210    0.3900 ha        1 4IN      0.115000
     27 H161        0.3260    3.1090   -0.0430 hn        1 4IN      0.437300
     28 H162       -0.6350    1.7760   -0.4120 hn        1 4IN      0.437300
@<TRIPOS>BOND
     1    1    2 1   
     2    1   17 1   
     3    1   18 1   
     4    2    3 1   
     5    2   14 1   
     6    2   19 1   
     7    3    4 1   
     8    3   20 1   
     9    3   21 1   
    10    4    5 2   
    11    4   13 1   
    12    5    6 1   
    13    5   22 1   
    14    6    7 1   
    15    6   23 1   
    16    7    8 ar  
    17    7   13 ar  
    18    8    9 ar  
    19    8   24 1   
    20    9   10 ar  
    21    9   25 1   
    22   10   11 ar  
    23   10   26 1   
    24   11   12 1   
    25   11   13 ar  
    26   12   27 1   
    27   12   28 1   
    28   14   15 1   
    29   14   16 1   
@<TRIPOS>SUBSTRUCTURE
     1 4IN         1 TEMP              0 ****  ****    0 ROOT
