@<TRIPOS>MOLECULE
4IP
   36    36     1     0     0
SMALL
bcc


@<TRIPOS>ATOM
      1 C1         -0.2380   -0.3410    1.9310 c3        1 4IP      0.215100
      2 O1         -0.3790   -1.2720    2.9700 os        1 4IP     -0.615200
      3 C2         -1.4360   -0.4500    0.9210 c3        1 4IP      0.111100
      4 O2         -1.7610   -1.8060    0.6680 oh        1 4IP     -0.654800
      5 C3         -1.2400    0.3650   -0.4030 c3        1 4IP      0.188600
      6 O3         -2.3890    0.3620   -1.1940 os        1 4IP     -0.598700
      7 C4          0.0880   -0.1120   -1.1640 c3        1 4IP      0.237100
      8 O4          0.1190   -1.4610   -1.4990 os        1 4IP     -0.609200
      9 C5          1.2240    0.3310   -0.1340 c3        1 4IP      0.188600
     10 O5          2.5250    0.3170   -0.6430 os        1 4IP     -0.598700
     11 C6          1.0900   -0.5710    1.1390 c3        1 4IP      0.111100
     12 O6          2.1900   -0.4000    2.0270 oh        1 4IP     -0.654800
     13 P1         -0.6310   -1.0270    4.6300 p5        1 4IP      1.380900
     14 O1P        -0.5550    0.4370    5.0150 o         1 4IP     -0.986833
     15 O2P        -2.0010   -1.6080    4.9680 o         1 4IP     -0.986833
     16 O3P         0.4180   -1.8610    5.3610 o         1 4IP     -0.986833
     17 P3         -3.5390    1.6150   -1.3070 p5        1 4IP      1.362400
     18 O4P        -3.6100    2.0840   -2.7550 o         1 4IP     -0.978667
     19 O5P        -4.8890    1.0070   -0.9330 o         1 4IP     -0.978667
     20 O6P        -3.1700    2.7620   -0.3870 o         1 4IP     -0.978667
     21 P4          0.3690   -2.2270   -3.0250 p5        1 4IP      1.387900
     22 O7P         1.5590   -3.1640   -2.8630 o         1 4IP     -0.978167
     23 O8P        -0.8530   -3.1020   -3.2720 o         1 4IP     -0.978167
     24 O9P         0.5790   -1.2360   -4.1500 o         1 4IP     -0.978167
     25 P5          3.6690    1.5710   -0.5330 p5        1 4IP      1.362400
     26 OPF         4.9630    1.0160   -1.1230 o         1 4IP     -0.978667
     27 OPG         3.8610    1.8560    0.9470 o         1 4IP     -0.978667
     28 OPH         3.2400    2.8110   -1.2940 o         1 4IP     -0.978667
     29 H1         -0.2310    0.6970    2.3690 h1        1 4IP      0.005700
     30 H2         -2.3470   -0.0550    1.4550 h1        1 4IP      0.037700
     31 HO2        -1.1450   -2.1060   -0.0140 ho        1 4IP      0.429500
     32 H3         -1.0580    1.4380   -0.0890 h1        1 4IP     -0.004300
     33 H4          0.1970    0.5030   -2.0970 h1        1 4IP      0.020700
     34 H5          1.0030    1.3980    0.1710 h1        1 4IP     -0.004300
     35 H6          1.1150   -1.6460    0.8090 h1        1 4IP      0.037700
     36 HO6         2.7170    0.3460    1.6870 ho        1 4IP      0.429500
@<TRIPOS>BOND
     1    1    2 1   
     2    1    3 1   
     3    1   11 1   
     4    1   29 1   
     5    2   13 1   
     6    3    4 1   
     7    3    5 1   
     8    3   30 1   
     9    4   31 1   
    10    5    6 1   
    11    5    7 1   
    12    5   32 1   
    13    6   17 1   
    14    7    8 1   
    15    7    9 1   
    16    7   33 1   
    17    8   21 1   
    18    9   10 1   
    19    9   11 1   
    20    9   34 1   
    21   10   25 1   
    22   11   12 1   
    23   11   35 1   
    24   12   36 1   
    25   13   14 1   
    26   13   15 1   
    27   13   16 1   
    28   17   18 1   
    29   17   19 1   
    30   17   20 1   
    31   21   22 1   
    32   21   23 1   
    33   21   24 1   
    34   25   26 1   
    35   25   27 1   
    36   25   28 1   
@<TRIPOS>SUBSTRUCTURE
     1 4IP         1 TEMP              0 ****  ****    0 ROOT
