@<TRIPOS>MOLECULE
4IP
   36    36     1     0     0
SMALL
bcc


@<TRIPOS>ATOM
      1 C1         -0.9280    0.6070   -1.3660 c3        1 4IP      0.215100
      2 O1         -1.3580    0.4030   -2.6990 os        1 4IP     -0.615200
      3 C2          0.5910    0.6590   -1.3430 c3        1 4IP      0.111100
      4 O2          1.0990   -0.4850   -2.0080 oh        1 4IP     -0.654800
      5 C3          1.1500    0.6930    0.0720 c3        1 4IP      0.188600
      6 O3          2.5590    0.5650    0.0100 os        1 4IP     -0.598700
      7 C4          0.5930   -0.4240    0.9440 c3        1 4IP      0.237100
      8 O4          1.1000   -1.6620    0.4830 os        1 4IP     -0.609200
      9 C5         -0.9270   -0.4760    0.9210 c3        1 4IP      0.188600
     10 O5         -1.3560   -1.6370    1.6110 os        1 4IP     -0.598700
     11 C6         -1.4860   -0.5100   -0.4930 c3        1 4IP      0.111100
     12 O6         -2.8950   -0.3830   -0.4310 oh        1 4IP     -0.654800
     13 P1         -2.0900    1.5900   -3.4440 p5        1 4IP      1.380900
     14 O1P        -2.4720    1.1490   -4.8370 o         1 4IP     -0.986833
     15 O2P        -3.3330    1.9750   -2.6790 o         1 4IP     -0.986833
     16 O3P        -1.1620    2.7780   -3.5290 o         1 4IP     -0.986833
     17 P3          3.4460    1.7980    0.4480 p5        1 4IP      1.362400
     18 O4P         3.1810    2.9630   -0.4760 o         1 4IP     -0.978667
     19 O5P         3.1000    2.1890    1.8650 o         1 4IP     -0.978667
     20 O6P         4.9060    1.4190    0.3730 o         1 4IP     -0.978667
     21 P4          1.9990   -2.5190    1.4600 p5        1 4IP      1.387900
     22 O7P         3.2030   -3.0380    0.7110 o         1 4IP     -0.978167
     23 O8P         1.1960   -3.6830    1.9910 o         1 4IP     -0.978167
     24 O9P         2.4560   -1.6560    2.6120 o         1 4IP     -0.978167
     25 P5         -2.2720   -1.4610    2.8860 p5        1 4IP      1.362400
     26 OPF        -3.4150   -0.5290    2.5600 o         1 4IP     -0.978667
     27 OPG        -1.4560   -0.8800    4.0160 o         1 4IP     -0.978667
     28 OPH        -2.8210   -2.8050    3.3010 o         1 4IP     -0.978667
     29 H1         -1.2790    1.4620   -1.0480 h1        1 4IP      0.005700
     30 H2          0.8870    1.4600   -1.8190 h1        1 4IP      0.037700
     31 HO2         1.6150   -0.2290   -2.6860 ho        1 4IP      0.429500
     32 H3          0.9280    1.5530    0.4790 h1        1 4IP     -0.004300
     33 H4          0.8900   -0.2840    1.8650 h1        1 4IP      0.020700
     34 H5         -1.2780    0.3120    1.3810 h1        1 4IP     -0.004300
     35 H6         -1.2630   -1.3710   -0.9000 h1        1 4IP      0.037700
     36 HO6        -3.1080    0.4570   -0.2320 ho        1 4IP      0.429500
@<TRIPOS>BOND
     1    1    2 1   
     2    1    3 1   
     3    1   11 1   
     4    1   29 1   
     5    2   13 1   
     6    3    4 1   
     7    3    5 1   
     8    3   30 1   
     9    4   31 1   
    10    5    6 1   
    11    5    7 1   
    12    5   32 1   
    13    6   17 1   
    14    7    8 1   
    15    7    9 1   
    16    7   33 1   
    17    8   21 1   
    18    9   10 1   
    19    9   11 1   
    20    9   34 1   
    21   10   25 1   
    22   11   12 1   
    23   11   35 1   
    24   12   36 1   
    25   13   14 1   
    26   13   15 1   
    27   13   16 1   
    28   17   18 1   
    29   17   19 1   
    30   17   20 1   
    31   21   22 1   
    32   21   23 1   
    33   21   24 1   
    34   25   26 1   
    35   25   27 1   
    36   25   28 1   
@<TRIPOS>SUBSTRUCTURE
     1 4IP         1 TEMP              0 ****  ****    0 ROOT
