@<TRIPOS>MOLECULE
4IP
   36    36     1     0     0
SMALL
bcc


@<TRIPOS>ATOM
      1 C1         -0.0180    0.1190    0.0720 c3        1 4IP      0.215100
      2 O1         -0.3620    0.0560   -1.2850 os        1 4IP     -0.615200
      3 C2          1.5340    0.2880    0.2450 c3        1 4IP      0.111100
      4 O2          2.2360   -0.5410   -0.6650 oh        1 4IP     -0.654800
      5 C3          2.0420    0.1100    1.7170 c3        1 4IP      0.188600
      6 O3          3.3960    0.4210    1.8430 os        1 4IP     -0.598700
      7 C4          1.6410   -1.3370    2.2770 c3        1 4IP      0.237100
      8 O4          2.1300   -2.4080    1.5380 os        1 4IP     -0.609200
      9 C5          0.0490   -1.2380    2.3100 c3        1 4IP      0.188600
     10 O5         -0.5930   -2.2450    3.0340 os        1 4IP     -0.598700
     11 C6         -0.4540   -1.1790    0.8290 c3        1 4IP      0.111100
     12 O6         -1.8700   -1.3050    0.7450 oh        1 4IP     -0.654800
     13 P1         -1.2760    1.1270   -2.2320 p5        1 4IP      1.380900
     14 O1P        -0.3420    1.7000   -3.2940 o         1 4IP     -0.986833
     15 O2P        -2.3330    0.2880   -2.9480 o         1 4IP     -0.986833
     16 O3P        -1.9010    2.2350   -1.4070 o         1 4IP     -0.986833
     17 P3          4.0440    1.8830    2.4380 p5        1 4IP      1.362400
     18 O4P         4.9070    1.5740    3.6560 o         1 4IP     -0.978667
     19 O5P         4.9460    2.4410    1.3410 o         1 4IP     -0.978667
     20 O6P         2.9340    2.8510    2.7950 o         1 4IP     -0.978667
     21 P4          3.0770   -3.7640    2.0290 p5        1 4IP      1.387900
     22 O7P         2.3000   -5.0150    1.6410 o         1 4IP     -0.978167
     23 O8P         4.3360   -3.7420    1.1710 o         1 4IP     -0.978167
     24 O9P         3.4110   -3.7420    3.5050 o         1 4IP     -0.978167
     25 P5         -1.7920   -2.0310    4.2230 p5        1 4IP      1.362400
     26 OPF        -2.2570   -3.4320    4.6110 o         1 4IP     -0.978667
     27 OPG        -2.9320   -1.2780    3.5590 o         1 4IP     -0.978667
     28 OPH        -1.2690   -1.3000    5.4440 o         1 4IP     -0.978667
     29 H1         -0.5300    1.0070    0.5380 h1        1 4IP      0.005700
     30 H2          1.7860    1.3310   -0.1000 h1        1 4IP      0.037700
     31 HO2         2.2760   -1.4150   -0.2540 ho        1 4IP      0.429500
     32 H3          1.4710    0.8630    2.3410 h1        1 4IP     -0.004300
     33 H4          2.0130   -1.4180    3.3340 h1        1 4IP      0.020700
     34 H5         -0.2160   -0.2570    2.8070 h1        1 4IP     -0.004300
     35 H6         -0.0250   -2.0610    0.2790 h1        1 4IP      0.037700
     36 HO6        -2.2130   -1.2730    1.6570 ho        1 4IP      0.429500
@<TRIPOS>BOND
     1    1    2 1   
     2    1    3 1   
     3    1   11 1   
     4    1   29 1   
     5    2   13 1   
     6    3    4 1   
     7    3    5 1   
     8    3   30 1   
     9    4   31 1   
    10    5    6 1   
    11    5    7 1   
    12    5   32 1   
    13    6   17 1   
    14    7    8 1   
    15    7    9 1   
    16    7   33 1   
    17    8   21 1   
    18    9   10 1   
    19    9   11 1   
    20    9   34 1   
    21   10   25 1   
    22   11   12 1   
    23   11   35 1   
    24   12   36 1   
    25   13   14 1   
    26   13   15 1   
    27   13   16 1   
    28   17   18 1   
    29   17   19 1   
    30   17   20 1   
    31   21   22 1   
    32   21   23 1   
    33   21   24 1   
    34   25   26 1   
    35   25   27 1   
    36   25   28 1   
@<TRIPOS>SUBSTRUCTURE
     1 4IP         1 TEMP              0 ****  ****    0 ROOT
