@<TRIPOS>MOLECULE
4IP
   36    36     1     0     0
SMALL
bcc


@<TRIPOS>ATOM
      1 C1         -0.0070   -0.0090    0.0770 c3        1 4IP      0.238100
      2 O1         -0.3430   -0.2920   -1.2550 os        1 4IP     -0.614200
      3 C2          1.5360    0.1510    0.2590 c3        1 4IP      0.095600
      4 O2          2.2410   -0.7620   -0.5760 oh        1 4IP     -0.656800
      5 C3          2.0640    0.0560    1.7450 c3        1 4IP      0.195100
      6 O3          3.4250    0.3550    1.7650 os        1 4IP     -0.596200
      7 C4          1.6280   -1.4110    2.2380 c3        1 4IP      0.222100
      8 O4          2.3480   -1.9590    3.2830 os        1 4IP     -0.565200
      9 C5          0.0600   -1.2060    2.4830 c3        1 4IP      0.195100
     10 O5         -0.6040   -2.1990    3.2050 os        1 4IP     -0.596200
     11 C6         -0.5630   -1.1170    1.0300 c3        1 4IP      0.095600
     12 O6         -1.9750   -0.9230    1.0820 oh        1 4IP     -0.656800
     13 P1         -1.2280    0.6300   -2.3710 p5        1 4IP      1.379900
     14 O1P        -1.7620    1.9150   -1.7670 o         1 4IP     -0.986500
     15 O2P        -0.2980    0.9260   -3.5450 o         1 4IP     -0.986500
     16 O3P        -2.3520   -0.2670   -2.8860 o         1 4IP     -0.986500
     17 P3          4.1060    1.8890    2.1170 p5        1 4IP      1.368900
     18 O4P         3.0050    2.8990    2.3700 o         1 4IP     -0.978000
     19 O5P         5.0410    1.8100    3.3150 o         1 4IP     -0.978000
     20 O6P         4.9390    2.2420    0.8880 o         1 4IP     -0.978000
     21 P4          3.2940   -3.3900    3.1110 p5        1 4IP      1.364900
     22 O7P         4.4690   -3.2270    4.0720 o         1 4IP     -0.977500
     23 O8P         2.5220   -4.6240    3.5550 o         1 4IP     -0.977500
     24 O9P         3.7350   -3.5520    1.6690 o         1 4IP     -0.977500
     25 P5         -1.7870   -1.9840    4.4180 p5        1 4IP      1.368900
     26 OPF        -2.5950   -3.2790    4.4030 o         1 4IP     -0.978000
     27 OPG        -1.2380   -1.7380    5.8110 o         1 4IP     -0.978000
     28 OPH        -2.6500   -0.8160    3.9680 o         1 4IP     -0.978000
     29 H1         -0.4830    0.9730    0.3650 h1        1 4IP      0.008700
     30 H2          1.7870    1.1750   -0.1450 h1        1 4IP      0.016700
     31 HO2         2.9030   -1.1920   -0.0120 ho        1 4IP      0.424500
     32 H3          1.5300    0.8360    2.3570 h1        1 4IP      0.006700
     33 H4          1.7340   -2.1130    1.3580 h1        1 4IP      0.013700
     34 H5         -0.1160   -0.2260    3.0100 h1        1 4IP      0.006700
     35 H6         -0.4000   -2.1120    0.5310 h1        1 4IP      0.016700
     36 HO6        -2.2260   -0.9000    2.0240 ho        1 4IP      0.424500
@<TRIPOS>BOND
     1    1    2 1   
     2    1    3 1   
     3    1   11 1   
     4    1   29 1   
     5    2   13 1   
     6    3    4 1   
     7    3    5 1   
     8    3   30 1   
     9    4   31 1   
    10    5    6 1   
    11    5    7 1   
    12    5   32 1   
    13    6   17 1   
    14    7    8 1   
    15    7    9 1   
    16    7   33 1   
    17    8   21 1   
    18    9   10 1   
    19    9   11 1   
    20    9   34 1   
    21   10   25 1   
    22   11   12 1   
    23   11   35 1   
    24   12   36 1   
    25   13   14 1   
    26   13   15 1   
    27   13   16 1   
    28   17   18 1   
    29   17   19 1   
    30   17   20 1   
    31   21   22 1   
    32   21   23 1   
    33   21   24 1   
    34   25   26 1   
    35   25   27 1   
    36   25   28 1   
@<TRIPOS>SUBSTRUCTURE
     1 4IP         1 TEMP              0 ****  ****    0 ROOT
