@<TRIPOS>MOLECULE
4J7
   68    72     1     0     0
SMALL
bcc


@<TRIPOS>ATOM
      1 C12        -0.5150   -0.1040   -0.1350 ca        1 4J7     -0.045000
      2 C13         0.8630    0.0490   -0.0340 ca        1 4J7     -0.084000
      3 O16        -3.3920    0.0370   -0.5610 o         1 4J7     -0.643300
      4 C11        -1.3580    0.2510    0.9260 ca        1 4J7     -0.353500
      5 C22        -7.1790   -3.0440    1.5670 ca        1 4J7     -0.040000
      6 C21        -6.4500   -2.9190    2.7610 ca        1 4J7     -0.219200
      7 C23        -6.5980   -2.6660    0.3620 ca        1 4J7     -0.147000
      8 C24        -5.3000   -2.1610    0.3310 ca        1 4J7     -0.067000
      9 C37         5.7870    4.6930   -3.0870 c3        1 4J7      0.105700
     10 C5          4.9540    2.6820   -2.1910 ca        1 4J7     -0.227500
     11 C4          5.7470    1.9550   -1.2320 ca        1 4J7      0.702200
     12 N29         7.1250    1.8520   -1.4440 nh        1 4J7     -0.698300
     13 C30         8.0130    1.4650   -0.4390 cc        1 4J7      0.081300
     14 N31         9.1730    2.2160   -0.0670 na        1 4J7     -0.035600
     15 N32         9.8890    1.5740    0.8560 nc        1 4J7     -0.512800
     16 C33         9.1870    0.4630    1.2200 cd        1 4J7      0.319600
     17 C35         9.5810   -0.4810    2.2820 c3        1 4J7     -0.123400
     18 C34         7.9860    0.3470    0.4170 cd        1 4J7     -0.253300
     19 N3          5.1540    1.3210   -0.1740 nb        1 4J7     -0.732000
     20 C2          3.7950    1.4060   -0.1060 ca        1 4J7      0.756300
     21 C8          1.4560    0.5760    1.1190 ca        1 4J7     -0.023100
     22 C9          0.6040    0.9490    2.1880 ca        1 4J7      0.141900
     23 F14         1.1050    1.4750    3.3300 f         1 4J7     -0.116900
     24 C10        -0.7880    0.7790    2.0840 ca        1 4J7     -0.063000
     25 S15        -3.0230    0.0880    0.7910 sy        1 4J7      1.380300
     26 O17        -3.6680    1.0100    1.6170 o         1 4J7     -0.643300
     27 C18        -3.1670   -1.5040    1.4520 c3        1 4J7     -0.252300
     28 C19        -4.5550   -2.0160    1.5050 ca        1 4J7     -0.112300
     29 O27        -8.2130   -3.7400    4.0160 o         1 4J7     -0.198000
     30 O28        -6.4460   -3.2620    5.0550 o         1 4J7     -0.198000
     31 C20        -5.1280   -2.4030    2.7410 ca        1 4J7      0.212900
     32 F25        -4.4200   -2.2820    3.8810 f         1 4J7     -0.096900
     33 N1          2.9620    2.0120   -0.9880 nb        1 4J7     -0.783000
     34 C6          3.5330    2.6660   -2.0530 ca        1 4J7      0.684200
     35 N38         2.7260    3.4050   -2.9580 nh        1 4J7     -0.729300
     36 C43         1.3410    3.6450   -2.5620 c3        1 4J7      0.145800
     37 C42         0.6310    4.5890   -3.5420 c3        1 4J7      0.122900
     38 O41         0.7340    4.1300   -4.8850 os        1 4J7     -0.410600
     39 C40         2.0850    3.9540   -5.2880 c3        1 4J7      0.122900
     40 C39         2.8370    2.9940   -4.3560 c3        1 4J7      0.145800
     41 H1         -0.9560   -0.5020   -1.0670 ha        1 4J7      0.162000
     42 H2          1.4990   -0.2520   -0.8840 ha        1 4J7      0.160000
     43 H3         -8.2090   -3.4430    1.5940 ha        1 4J7      0.179000
     44 H4         -7.1710   -2.7630   -0.5740 ha        1 4J7      0.158000
     45 H5         -4.8530   -1.8530   -0.6330 ha        1 4J7      0.176000
     46 H6          4.8100    5.2150   -2.9570 h1        1 4J7      0.046367
     47 H7          6.4500    4.8840   -2.2080 h1        1 4J7      0.046367
     48 H8          6.2850    5.0060   -4.0380 h1        1 4J7      0.046367
     49 H9          7.4780    2.4380   -2.1720 hn        1 4J7      0.449800
     50 H10         9.6330    2.8820   -0.6460 hn        1 4J7      0.304700
     51 H11         9.0600   -1.4580    2.1280 hc        1 4J7      0.051700
     52 H12         9.2890   -0.0730    3.2830 hc        1 4J7      0.051700
     53 H13        10.6850   -0.6580    2.2830 hc        1 4J7      0.051700
     54 H14         7.2290   -0.4260    0.4800 ha        1 4J7      0.182000
     55 H15        -1.4300    1.0960    2.9270 ha        1 4J7      0.176000
     56 H16        -2.5560   -2.2300    0.8450 h1        1 4J7      0.126700
     57 H17        -2.7180   -1.5360    2.4840 h1        1 4J7      0.126700
     58 H18         0.7560    2.6830   -2.5080 h1        1 4J7      0.062700
     59 H19         1.3380    4.1200   -1.5420 h1        1 4J7      0.062700
     60 H20        -0.4700    4.5960   -3.3310 h1        1 4J7      0.058450
     61 H21         1.0460    5.6290   -3.4670 h1        1 4J7      0.058450
     62 H22         2.5990    4.9500   -5.3310 h1        1 4J7      0.058450
     63 H23         2.0180    3.5090   -6.3160 h1        1 4J7      0.058450
     64 H24         3.9230    2.9840   -4.6490 h1        1 4J7      0.062700
     65 H25         2.4170    1.9560   -4.5000 h1        1 4J7      0.062700
     66 S7          3.1430    0.6610    1.3220 ss        1 4J7     -0.081200
     67 N26        -7.0800   -3.3360    4.0400 no        1 4J7      0.321200
     68 O36         5.5930    3.2850   -3.2590 os        1 4J7     -0.331900
@<TRIPOS>BOND
     1    1    2 ar  
     2    1    4 ar  
     3    1   41 1   
     4    2   21 ar  
     5    2   42 1   
     6    3   25 2   
     7    4   24 ar  
     8    4   25 1   
     9    5    6 ar  
    10    5    7 ar  
    11    5   43 1   
    12    6   31 ar  
    13    6   67 1   
    14    7    8 ar  
    15    7   44 1   
    16    8   28 ar  
    17    8   45 1   
    18    9   46 1   
    19    9   47 1   
    20    9   48 1   
    21    9   68 1   
    22   10   11 ar  
    23   10   34 ar  
    24   10   68 1   
    25   11   12 1   
    26   11   19 ar  
    27   12   13 1   
    28   12   49 1   
    29   13   14 1   
    30   13   18 2   
    31   14   15 1   
    32   14   50 1   
    33   15   16 2   
    34   16   17 1   
    35   16   18 1   
    36   17   51 1   
    37   17   52 1   
    38   17   53 1   
    39   18   54 1   
    40   19   20 ar  
    41   20   33 ar  
    42   20   66 1   
    43   21   22 ar  
    44   21   66 1   
    45   22   23 1   
    46   22   24 ar  
    47   24   55 1   
    48   25   26 2   
    49   25   27 1   
    50   27   28 1   
    51   27   56 1   
    52   27   57 1   
    53   28   31 ar  
    54   29   67 1   
    55   30   67 1   
    56   31   32 1   
    57   33   34 ar  
    58   34   35 1   
    59   35   36 1   
    60   35   40 1   
    61   36   37 1   
    62   36   58 1   
    63   36   59 1   
    64   37   38 1   
    65   37   60 1   
    66   37   61 1   
    67   38   39 1   
    68   39   40 1   
    69   39   62 1   
    70   39   63 1   
    71   40   64 1   
    72   40   65 1   
@<TRIPOS>SUBSTRUCTURE
     1 4J7         1 TEMP              0 ****  ****    0 ROOT
