@<TRIPOS>MOLECULE
4J7
   68    67     1     0     0
SMALL
bcc


@<TRIPOS>ATOM
      1 C12         0.2670   -1.5370    1.5690 c3        1 4J7      0.022000
      2 C13         1.5150   -0.8640    1.7200 c1        1 4J7     -0.151000
      3 O16        -0.7260   -0.5710   -1.1230 o         1 4J7     -0.941500
      4 C11        -0.8990   -0.5900    1.4300 c2        1 4J7     -0.730000
      5 C22        -5.6050    0.2020    0.9940 c2        1 4J7     -0.492000
      6 C21        -5.4110   -1.0390    1.7060 c2        1 4J7     -0.094000
      7 C23        -6.5650    1.1020    1.1400 c1        1 4J7      0.308000
      8 C24        -4.6510   -1.9080   -1.1960 c2        1 4J7     -0.128000
      9 C37         5.4810    4.6370   -2.9210 c3        1 4J7     -0.057000
     10 C5          4.5410    2.8470   -1.6650 c2        1 4J7     -0.082000
     11 C4          5.7220    2.2790   -0.9680 c2        1 4J7      0.152000
     12 N29         6.9130    2.5470   -1.4790 n2        1 4J7     -0.274000
     13 C30         8.1020    2.0860   -0.9340 c2        1 4J7      0.054000
     14 N31         9.3210    2.3060   -1.6350 na        1 4J7     -0.174000
     15 N32        10.3800    1.8350   -0.9870 n2        1 4J7     -0.105000
     16 C33         9.9200    1.2820    0.1760 c2        1 4J7     -0.128000
     17 C35        10.7700    0.6430    1.1970 c3        1 4J7     -0.136000
     18 C34         8.4850    1.4150    0.2550 c2        1 4J7     -0.251000
     19 N3          5.4650    1.4890    0.1670 n2        1 4J7     -0.253000
     20 C2          4.1990    1.3340    0.5660 c2        1 4J7     -0.097000
     21 C8          2.5830   -0.3130    1.8410 c1        1 4J7     -0.368000
     22 C9         -1.6140    0.8590    3.4920 c2        1 4J7      0.085000
     23 F14        -1.1620    2.0950    3.7700 f         1 4J7     -0.074000
     24 C10        -1.2520    0.1620    2.4350 c1        1 4J7     -0.065000
     25 S15        -1.6570   -0.5330   -0.0680 s6        1 4J7      2.829000
     26 O17        -2.5970    0.5060   -0.1440 o         1 4J7     -0.941500
     27 C18        -2.4590   -2.0700   -0.0450 c3        1 4J7     -0.807000
     28 C19        -3.9380   -1.9870   -0.0660 c2        1 4J7     -0.102000
     29 O27        -6.9970   -0.3430    3.2380 o         1 4J7     -0.472700
     30 O28        -5.8540   -2.0340    3.7650 o         1 4J7     -0.472700
     31 C20        -4.6080   -2.0530    1.2530 c2        1 4J7      0.156000
     32 F25        -4.3800   -3.1700    1.9710 f         1 4J7     -0.059000
     33 N1          3.0600    1.8570    0.0140 n2        1 4J7     -0.297000
     34 C6          3.2820    2.6170   -1.1010 c2        1 4J7      0.046000
     35 N38         2.0930    3.1700   -1.7610 nh        1 4J7      0.098000
     36 C43         1.2470    3.9140   -0.9890 c1        1 4J7     -0.138000
     37 C42         0.5380    4.5500   -0.2640 c1        1 4J7     -0.073000
     38 O41         0.8710    0.6540   -2.7910 oh        1 4J7     -0.454000
     39 C40         0.7520    3.4430   -3.8420 c3        1 4J7     -0.250000
     40 C39         1.8850    2.9300   -3.0430 c2        1 4J7      0.177000
     41 H1          0.3100   -2.1980    0.6540 hc        1 4J7      0.113500
     42 H2          0.0960   -2.2070    2.4610 hc        1 4J7      0.113500
     43 H3         -4.8060    0.4520    0.2470 ha        1 4J7      0.243000
     44 H4         -5.7490   -1.8540   -1.1950 ha        1 4J7      0.140500
     45 H5         -4.1760   -1.8890   -2.1870 ha        1 4J7      0.140500
     46 H6          5.6840    5.0510   -1.9070 h1        1 4J7      0.084667
     47 H7          4.9330    5.3820   -3.5520 h1        1 4J7      0.084667
     48 H8          2.6340    2.2730   -3.5520 h4        1 4J7      0.225000
     49 H9          6.4330    4.3250   -3.4160 h1        1 4J7      0.084667
     50 H10         9.4230    2.7460   -2.5180 hn        1 4J7      0.262000
     51 H11        11.5080    1.3740    1.6130 hc        1 4J7      0.079000
     52 H12        10.1320    0.2650    2.0330 hc        1 4J7      0.079000
     53 H13        11.3360   -0.2180    0.7620 hc        1 4J7      0.079000
     54 H14         7.8500    1.0670    1.0600 ha        1 4J7      0.173000
     55 H15        -2.3490    0.4690    4.2250 h4        1 4J7      0.183000
     56 H16        -2.1460   -2.6980    0.8350 h1        1 4J7      0.173500
     57 H17        -2.1180   -2.6630   -0.9430 h1        1 4J7      0.173500
     58 H18        -1.7050    1.3030   -2.3660 ha        1 4J7      0.001000
     59 H19        -1.6780    1.5540   -2.9950 ha        1 4J7      0.001000
     60 H20         1.1400    0.3160   -1.9290 ho        1 4J7      0.227500
     61 H21        -0.0960    5.1190    0.3720 ha        1 4J7      0.255000
     62 H22         0.0240    2.5920   -3.9680 hc        1 4J7      0.136333
     63 H23         0.1010    0.1200   -3.0110 ho        1 4J7      0.227500
     64 H24         0.2190    4.3030   -3.3660 hc        1 4J7      0.136333
     65 H25         1.1220    3.7530   -4.8530 hc        1 4J7      0.136333
     66 S7          4.0010    0.3540    2.0130 ss        1 4J7      0.612000
     67 N26        -6.1400   -1.1530    3.0030 no        1 4J7      0.820400
     68 O36         4.6120    3.4990   -2.8780 os        1 4J7     -0.244000
@<TRIPOS>BOND
     1    1    2 1   
     2    1    4 1   
     3    1   41 1   
     4    1   42 1   
     5    2   21 1   
     6    3   25 1   
     7    4   24 1   
     8    4   25 1   
     9    5    6 1   
    10    5    7 1   
    11    5   43 1   
    12    6   31 1   
    13    6   67 1   
    14    8   28 1   
    15    8   44 1   
    16    8   45 1   
    17    9   46 1   
    18    9   47 1   
    19    9   49 1   
    20    9   68 1   
    21   10   11 1   
    22   10   34 1   
    23   10   68 1   
    24   11   12 1   
    25   11   19 1   
    26   12   13 1   
    27   13   14 1   
    28   13   18 1   
    29   14   15 1   
    30   14   50 1   
    31   15   16 1   
    32   16   17 1   
    33   16   18 1   
    34   17   51 1   
    35   17   52 1   
    36   17   53 1   
    37   18   54 1   
    38   19   20 1   
    39   20   33 1   
    40   20   66 1   
    41   21   66 1   
    42   22   23 1   
    43   22   24 1   
    44   22   55 1   
    45   25   26 1   
    46   25   27 1   
    47   27   28 1   
    48   27   56 1   
    49   27   57 1   
    50   28   31 1   
    51   29   67 2   
    52   30   67 2   
    53   31   32 1   
    54   33   34 1   
    55   34   35 1   
    56   35   36 1   
    57   35   40 1   
    58   36   37 1   
    59   37   61 1   
    60   38   60 1   
    61   38   63 1   
    62   39   40 1   
    63   39   62 1   
    64   39   64 1   
    65   39   65 1   
    66   40   48 1   
    67   58   59 1   
@<TRIPOS>SUBSTRUCTURE
     1 4J7         1 TEMP              0 ****  ****    0 ROOT
