@<TRIPOS>MOLECULE
4JG
   35    37     1     0     0
SMALL
bcc


@<TRIPOS>ATOM
      1 O3          0.4870    1.3500    0.0600 o         1 4JG     -0.477100
      2 C1          1.1080    1.3910   -1.0040 c         1 4JG      0.601700
      3 C2          1.4530    2.6780   -1.6820 c3        1 4JG     -0.199100
      4 C4          1.5580    0.1650   -1.6790 cc        1 4JG     -0.318000
      5 C8          1.3620   -1.1450   -1.1740 cd        1 4JG      0.448600
      6 C9          0.6760   -1.4450    0.1040 c3        1 4JG     -0.147400
      7 N7          1.8710   -2.1310   -1.9860 nd        1 4JG     -0.613000
      8 C6          2.4380   -1.5530   -3.0820 cc        1 4JG      0.330300
      9 S5          2.3550    0.1390   -3.1290 ss        1 4JG      0.201700
     10 N10         3.0610   -2.3910   -4.1030 n4        1 4JG     -0.570100
     11 C11         3.4820   -1.6340   -5.2880 ca        1 4JG     -0.081400
     12 C16         2.6150   -1.4780   -6.3580 ca        1 4JG     -0.051000
     13 C15         3.0510   -0.7860   -7.5160 ca        1 4JG     -0.046000
     14 C20         2.1880   -0.6080   -8.6330 ca        1 4JG     -0.111000
     15 C19         2.6310    0.0600   -9.7490 ca        1 4JG     -0.096000
     16 C18         3.9480    0.5790   -9.8000 ca        1 4JG     -0.080000
     17 C17         4.8020    0.4210   -8.7330 ca        1 4JG     -0.121000
     18 C14         4.3730   -0.2660   -7.5670 ca        1 4JG     -0.011000
     19 C13         5.2350   -0.4500   -6.4510 ca        1 4JG     -0.067000
     20 C12         4.8120   -1.1170   -5.3300 ca        1 4JG     -0.141000
     21 H1          1.9220    2.5190   -2.6840 hc        1 4JG      0.077700
     22 H2          0.5260    3.2940   -1.8100 hc        1 4JG      0.077700
     23 H3          2.1630    3.2570   -1.0380 hc        1 4JG      0.077700
     24 H4          0.6440   -2.5400    0.3230 hc        1 4JG      0.085700
     25 H5          1.2060   -0.9150    0.9380 hc        1 4JG      0.085700
     26 H6         -0.3700   -1.0440    0.0610 hc        1 4JG      0.085700
     27 H7          2.3910   -3.1240   -4.3870 hn        1 4JG      0.471300
     28 H8          1.5880   -1.8800   -6.3450 ha        1 4JG      0.159000
     29 H9          1.1660   -1.0160   -8.5890 ha        1 4JG      0.150000
     30 H10         1.9670    0.1990  -10.6180 ha        1 4JG      0.162000
     31 H11         4.2790    1.1100  -10.7080 ha        1 4JG      0.162000
     32 H12         5.8280    0.8210   -8.7680 ha        1 4JG      0.157000
     33 H13         6.2610   -0.0480   -6.5020 ha        1 4JG      0.169000
     34 H14         5.4950   -1.2580   -4.4770 ha        1 4JG      0.157000
     35 H102        3.8870   -2.8530   -3.6890 hn        1 4JG      0.471300
@<TRIPOS>BOND
     1    1    2 2   
     2    2    3 1   
     3    2    4 1   
     4    3   21 1   
     5    3   22 1   
     6    3   23 1   
     7    4    5 2   
     8    4    9 1   
     9    5    6 1   
    10    5    7 1   
    11    6   24 1   
    12    6   25 1   
    13    6   26 1   
    14    7    8 2   
    15    8    9 1   
    16    8   10 1   
    17   10   11 1   
    18   10   27 1   
    19   10   35 1   
    20   11   12 ar  
    21   11   20 ar  
    22   12   13 ar  
    23   12   28 1   
    24   13   14 ar  
    25   13   18 ar  
    26   14   15 ar  
    27   14   29 1   
    28   15   16 ar  
    29   15   30 1   
    30   16   17 ar  
    31   16   31 1   
    32   17   18 ar  
    33   17   32 1   
    34   18   19 ar  
    35   19   20 ar  
    36   19   33 1   
    37   20   34 1   
@<TRIPOS>SUBSTRUCTURE
     1 4JG         1 TEMP              0 ****  ****    0 ROOT
