@<TRIPOS>MOLECULE
4JG
   34    36     1     0     0
SMALL
bcc


@<TRIPOS>ATOM
      1 O3          0.0760    0.1980    0.4900 o         1 4JG     -0.544100
      2 C1          1.2950    0.1470    0.2720 c         1 4JG      0.616700
      3 C2          2.2900    0.2120    1.3910 c3        1 4JG     -0.199100
      4 C4          1.8500    0.0350   -1.0660 cc        1 4JG     -0.331000
      5 C8          1.1150    0.0260   -2.2590 cd        1 4JG      0.471600
      6 C9         -0.3630    0.1290   -2.3050 c3        1 4JG     -0.140400
      7 N7          1.8690   -0.0770   -3.4170 nd        1 4JG     -0.702000
      8 C6          3.1820   -0.1630   -3.1030 cc        1 4JG      0.667300
      9 S5          3.5020   -0.1100   -1.3850 ss        1 4JG     -0.138300
     10 N10         4.2390   -0.3630   -3.9810 nu        1 4JG     -0.692300
     11 C11         4.0700   -0.3480   -5.3880 ca        1 4JG      0.116600
     12 C16         3.0890   -1.0980   -6.0210 ca        1 4JG     -0.103000
     13 C15         3.0030   -1.1220   -7.4380 ca        1 4JG     -0.022000
     14 C20         1.9970   -1.8800   -8.1000 ca        1 4JG     -0.116000
     15 C19         1.9270   -1.8970   -9.4710 ca        1 4JG     -0.124000
     16 C18         2.8550   -1.1600  -10.2460 ca        1 4JG     -0.128000
     17 C17         3.8360   -0.4190   -9.6330 ca        1 4JG     -0.115000
     18 C14         3.9310   -0.3840   -8.2150 ca        1 4JG     -0.048000
     19 C13         4.9320    0.3730   -7.5490 ca        1 4JG     -0.098000
     20 C12         5.0040    0.3990   -6.1820 ca        1 4JG     -0.157000
     21 H1          1.8330   -0.1720    2.3360 hc        1 4JG      0.065033
     22 H2          3.2020   -0.3890    1.1570 hc        1 4JG      0.065033
     23 H3          2.5890    1.2780    1.5500 hc        1 4JG      0.065033
     24 H4         -0.6820    1.0620   -1.7740 hc        1 4JG      0.068033
     25 H5         -0.8050   -0.7400   -1.7530 hc        1 4JG      0.068033
     26 H6         -0.7560    0.1430   -3.3490 hc        1 4JG      0.068033
     27 H7          5.0950    0.0530   -3.6720 hn        1 4JG      0.426800
     28 H8          2.3550   -1.6860   -5.4490 ha        1 4JG      0.158000
     29 H9          1.2780   -2.4480   -7.4890 ha        1 4JG      0.137000
     30 H10         1.1490   -2.4820   -9.9850 ha        1 4JG      0.134000
     31 H11         2.7780   -1.1900  -11.3430 ha        1 4JG      0.133000
     32 H12         4.5610    0.1580  -10.2250 ha        1 4JG      0.132000
     33 H13         5.6500    0.9450   -8.1560 ha        1 4JG      0.136000
     34 H14         5.7860    0.9960   -5.6870 ha        1 4JG      0.130000
@<TRIPOS>BOND
     1    1    2 2   
     2    2    3 1   
     3    2    4 1   
     4    3   21 1   
     5    3   22 1   
     6    3   23 1   
     7    4    5 2   
     8    4    9 1   
     9    5    6 1   
    10    5    7 1   
    11    6   24 1   
    12    6   25 1   
    13    6   26 1   
    14    7    8 2   
    15    8    9 1   
    16    8   10 1   
    17   10   11 1   
    18   10   27 1   
    19   11   12 ar  
    20   11   20 ar  
    21   12   13 ar  
    22   12   28 1   
    23   13   14 ar  
    24   13   18 ar  
    25   14   15 ar  
    26   14   29 1   
    27   15   16 ar  
    28   15   30 1   
    29   16   17 ar  
    30   16   31 1   
    31   17   18 ar  
    32   17   32 1   
    33   18   19 ar  
    34   19   20 ar  
    35   19   33 1   
    36   20   34 1   
@<TRIPOS>SUBSTRUCTURE
     1 4JG         1 TEMP              0 ****  ****    0 ROOT
