@<TRIPOS>MOLECULE
4JG
   34    36     1     0     0
SMALL
bcc


@<TRIPOS>ATOM
      1 O3          0.0800    0.1940    0.4930 o         1 4JG     -0.544100
      2 C1          1.2980    0.1360    0.2740 c         1 4JG      0.616700
      3 C2          2.2930    0.1920    1.3930 c3        1 4JG     -0.199100
      4 C4          1.8520    0.0260   -1.0640 cc        1 4JG     -0.331000
      5 C8          1.1170    0.0250   -2.2580 cd        1 4JG      0.471600
      6 C9         -0.3600    0.1360   -2.3020 c3        1 4JG     -0.140400
      7 N7          1.8700   -0.0790   -3.4160 nd        1 4JG     -0.702000
      8 C6          3.1820   -0.1730   -3.1020 cc        1 4JG      0.667300
      9 S5          3.5030   -0.1280   -1.3840 ss        1 4JG     -0.139300
     10 N10         4.2380   -0.3770   -3.9810 nh        1 4JG     -0.692300
     11 C11         4.0700   -0.3550   -5.3880 ca        1 4JG      0.116600
     12 C16         3.0840   -1.0950   -6.0250 ca        1 4JG     -0.103000
     13 C15         2.9980   -1.1130   -7.4420 ca        1 4JG     -0.022000
     14 C20         1.9870   -1.8620   -8.1070 ca        1 4JG     -0.116000
     15 C19         1.9170   -1.8730   -9.4780 ca        1 4JG     -0.124000
     16 C18         2.8510   -1.1390  -10.2490 ca        1 4JG     -0.128000
     17 C17         3.8360   -0.4070   -9.6330 ca        1 4JG     -0.115000
     18 C14         3.9310   -0.3790   -8.2150 ca        1 4JG     -0.048000
     19 C13         4.9370    0.3690   -7.5460 ca        1 4JG     -0.098000
     20 C12         5.0090    0.3890   -6.1790 ca        1 4JG     -0.157000
     21 H1          3.2020   -0.4130    1.1570 hc        1 4JG      0.065033
     22 H2          2.5990    1.2560    1.5560 hc        1 4JG      0.065033
     23 H3          1.8340   -0.1920    2.3370 hc        1 4JG      0.065033
     24 H4         -0.6740    1.0690   -1.7680 hc        1 4JG      0.068033
     25 H5         -0.7540    0.1570   -3.3470 hc        1 4JG      0.068033
     26 H6         -0.8070   -0.7330   -1.7540 hc        1 4JG      0.068033
     27 H7          5.0970    0.0330   -3.6700 hn        1 4JG      0.426800
     28 H8          2.3460   -1.6810   -5.4550 ha        1 4JG      0.158000
     29 H9          1.2640   -2.4260   -7.4990 ha        1 4JG      0.137000
     30 H10         1.1360   -2.4500   -9.9940 ha        1 4JG      0.134000
     31 H11         2.7740   -1.1640  -11.3460 ha        1 4JG      0.133000
     32 H12         4.5660    0.1670  -10.2230 ha        1 4JG      0.132000
     33 H13         5.6600    0.9390   -8.1500 ha        1 4JG      0.136000
     34 H14         5.7950    0.9780   -5.6810 ha        1 4JG      0.130000
@<TRIPOS>BOND
     1    1    2 2   
     2    2    3 1   
     3    2    4 1   
     4    3   21 1   
     5    3   22 1   
     6    3   23 1   
     7    4    5 2   
     8    4    9 1   
     9    5    6 1   
    10    5    7 1   
    11    6   24 1   
    12    6   25 1   
    13    6   26 1   
    14    7    8 2   
    15    8    9 1   
    16    8   10 1   
    17   10   11 1   
    18   10   27 1   
    19   11   12 ar  
    20   11   20 ar  
    21   12   13 ar  
    22   12   28 1   
    23   13   14 ar  
    24   13   18 ar  
    25   14   15 ar  
    26   14   29 1   
    27   15   16 ar  
    28   15   30 1   
    29   16   17 ar  
    30   16   31 1   
    31   17   18 ar  
    32   17   32 1   
    33   18   19 ar  
    34   19   20 ar  
    35   19   33 1   
    36   20   34 1   
@<TRIPOS>SUBSTRUCTURE
     1 4JG         1 TEMP              0 ****  ****    0 ROOT
