@<TRIPOS>MOLECULE
4JH
   18    18     1     0     0
SMALL
bcc


@<TRIPOS>ATOM
      1 C1          0.0320   -0.0190   -0.0130 ca        1 4JH     -0.200300
      2 C2          1.4300    0.0470   -0.0070 ca        1 4JH     -0.084000
      3 C3          2.1140    0.0630    1.2070 ca        1 4JH     -0.116000
      4 C4          1.4130    0.0110    2.4120 ca        1 4JH     -0.049000
      5 C5          0.0130   -0.0550    2.4090 ca        1 4JH     -0.029900
      6 C6         -0.6760   -0.0640    1.1940 ca        1 4JH     -0.082000
      7 Br         -0.9320   -0.1210    4.0170 br        1 4JH     -0.018100
      8 C          -0.7130    0.0080   -1.3000 c3        1 4JH      0.175100
      9 N          -1.1000   -1.3800   -1.7260 nz        1 4JH     -0.844600
     10 H1          1.9920    0.1030   -0.9530 ha        1 4JH      0.146000
     11 H2          3.2150    0.1230    1.2170 ha        1 4JH      0.169000
     12 H3          1.9680    0.0260    3.3670 ha        1 4JH      0.177000
     13 H4         -1.7790   -0.0880    1.1860 ha        1 4JH      0.149000
     14 H5         -1.6650    0.6070   -1.2020 hx        1 4JH      0.115700
     15 H6         -0.0840    0.4530   -2.1250 hx        1 4JH      0.115700
     16 H7         -0.2590   -1.9510   -1.8630 hn        1 4JH      0.459467
     17 H8         -1.6700   -1.8200   -0.9950 hn        1 4JH      0.459467
     18 HN3        -1.6340   -1.3490   -2.5990 hn        1 4JH      0.459467
@<TRIPOS>BOND
     1    1    2 ar  
     2    1    6 ar  
     3    1    8 1   
     4    2    3 ar  
     5    2   10 1   
     6    3    4 ar  
     7    3   11 1   
     8    4    5 ar  
     9    4   12 1   
    10    5    6 ar  
    11    5    7 1   
    12    6   13 1   
    13    8    9 1   
    14    8   14 1   
    15    8   15 1   
    16    9   16 1   
    17    9   17 1   
    18    9   18 1   
@<TRIPOS>SUBSTRUCTURE
     1 4JH         1 TEMP              0 ****  ****    0 ROOT
