@<TRIPOS>MOLECULE
4JH
   18    18     1     0     0
SMALL
bcc


@<TRIPOS>ATOM
      1 C1          0.0320   -0.0200   -0.0130 ca        1 4JH     -0.200300
      2 C2          1.4300    0.0480   -0.0060 ca        1 4JH     -0.084000
      3 C3          2.1110    0.0680    1.2090 ca        1 4JH     -0.116000
      4 C4          1.4080    0.0180    2.4130 ca        1 4JH     -0.049000
      5 C5          0.0090   -0.0500    2.4080 ca        1 4JH     -0.029900
      6 C6         -0.6790   -0.0630    1.1920 ca        1 4JH     -0.082000
      7 BR         -0.9400   -0.1140    4.0150 br        1 4JH     -0.018100
      8 C          -0.7110    0.0020   -1.3020 c3        1 4JH      0.175100
      9 N          -1.0950   -1.3870   -1.7260 n4        1 4JH     -0.844600
     10 H1          1.9930    0.1030   -0.9510 ha        1 4JH      0.146000
     11 H2          3.2120    0.1300    1.2210 ha        1 4JH      0.169000
     12 H3          1.9610    0.0370    3.3690 ha        1 4JH      0.177000
     13 H4         -1.7810   -0.0890    1.1820 ha        1 4JH      0.149000
     14 H5         -1.6650    0.6000   -1.2070 hx        1 4JH      0.115700
     15 H6         -0.0820    0.4470   -2.1270 hx        1 4JH      0.115700
     16 H7         -1.6260   -1.3600   -2.6000 hn        1 4JH      0.459467
     17 H8         -1.6650   -1.8260   -0.9950 hn        1 4JH      0.459467
     18 HN3        -0.2520   -1.9560   -1.8600 hn        1 4JH      0.459467
@<TRIPOS>BOND
     1    1    2 ar  
     2    1    6 ar  
     3    1    8 1   
     4    2    3 ar  
     5    2   10 1   
     6    3    4 ar  
     7    3   11 1   
     8    4    5 ar  
     9    4   12 1   
    10    5    6 ar  
    11    5    7 1   
    12    6   13 1   
    13    8    9 1   
    14    8   14 1   
    15    8   15 1   
    16    9   16 1   
    17    9   17 1   
    18    9   18 1   
@<TRIPOS>SUBSTRUCTURE
     1 4JH         1 TEMP              0 ****  ****    0 ROOT
