@<TRIPOS>MOLECULE
4JJ
   16    16     1     0     0
SMALL
bcc


@<TRIPOS>ATOM
      1 C1         -0.0100   -0.2300    0.0230 ca        1 4JJ     -0.157000
      2 C2          1.3750   -0.1160    0.0050 ca        1 4JJ     -0.124000
      3 C3          2.0600    0.1040    1.1990 ca        1 4JJ      0.015400
      4 C4          1.3700    0.2260    2.4040 ca        1 4JJ     -0.159000
      5 C5         -0.0340    0.1190    2.4430 ca        1 4JJ      0.091600
      6 CL          3.7570    0.2340    1.1910 cl        1 4JJ     -0.100400
      7 N1         -0.7160    0.1620    3.6740 nh        1 4JJ     -0.804200
      8 C          -0.7450   -0.1230    1.2200 ca        1 4JJ      0.087600
      9 N          -2.1510   -0.1630    1.2020 nh        1 4JJ     -0.804200
     10 H1         -0.5370   -0.4070   -0.9280 ha        1 4JJ      0.135000
     11 H2          1.9210   -0.2030   -0.9470 ha        1 4JJ      0.146000
     12 H3          1.9330    0.4040    3.3340 ha        1 4JJ      0.144000
     13 H4         -0.1250    0.4400    4.4310 hn        1 4JJ      0.381800
     14 H5         -1.5460    0.7180    3.6410 hn        1 4JJ      0.381800
     15 H6         -2.5400   -0.6940    1.9540 hn        1 4JJ      0.382300
     16 H7         -2.5150   -0.4620    0.3210 hn        1 4JJ      0.382300
@<TRIPOS>BOND
     1    1    2 ar  
     2    1    8 ar  
     3    1   10 1   
     4    2    3 ar  
     5    2   11 1   
     6    3    4 ar  
     7    3    6 1   
     8    4    5 ar  
     9    4   12 1   
    10    5    7 1   
    11    5    8 ar  
    12    7   13 1   
    13    7   14 1   
    14    8    9 1   
    15    9   15 1   
    16    9   16 1   
@<TRIPOS>SUBSTRUCTURE
     1 4JJ         1 TEMP              0 ****  ****    0 ROOT
