@<TRIPOS>MOLECULE
4JJ
   16    16     1     0     0
SMALL
bcc


@<TRIPOS>ATOM
      1 C1         -0.0040   -0.2270    0.0220 ca        1 4JJ     -0.157000
      2 C2          1.3810   -0.1160    0.0100 ca        1 4JJ     -0.124000
      3 C3          2.0620    0.1000    1.2070 ca        1 4JJ      0.015400
      4 C4          1.3670    0.2210    2.4100 ca        1 4JJ     -0.159000
      5 C5         -0.0370    0.1180    2.4430 ca        1 4JJ      0.091600
      6 Cl          3.7590    0.2250    1.2070 cl        1 4JJ     -0.100400
      7 N1         -0.7240    0.1600    3.6710 nv        1 4JJ     -0.804200
      8 C          -0.7430   -0.1200    1.2160 ca        1 4JJ      0.087600
      9 N          -2.1500   -0.1560    1.1920 nv        1 4JJ     -0.804200
     10 H1         -0.5280   -0.4000   -0.9310 ha        1 4JJ      0.135000
     11 H2          1.9310   -0.2030   -0.9390 ha        1 4JJ      0.146000
     12 H3          1.9270    0.3960    3.3420 ha        1 4JJ      0.144000
     13 H4         -0.1360    0.4350    4.4310 hn        1 4JJ      0.381800
     14 H5         -1.5530    0.7180    3.6360 hn        1 4JJ      0.381800
     15 H6         -2.5430   -0.6880    1.9410 hn        1 4JJ      0.382300
     16 H7         -2.5110   -0.4520    0.3090 hn        1 4JJ      0.382300
@<TRIPOS>BOND
     1    1    2 ar  
     2    1    8 ar  
     3    1   10 1   
     4    2    3 ar  
     5    2   11 1   
     6    3    4 ar  
     7    3    6 1   
     8    4    5 ar  
     9    4   12 1   
    10    5    7 1   
    11    5    8 ar  
    12    7   13 1   
    13    7   14 1   
    14    8    9 1   
    15    9   15 1   
    16    9   16 1   
@<TRIPOS>SUBSTRUCTURE
     1 4JJ         1 TEMP              0 ****  ****    0 ROOT
