@<TRIPOS>MOLECULE
4JK
   29    28     1     0     0
SMALL
bcc


@<TRIPOS>ATOM
      1 CH          1.4540    1.5700   -0.1360 c3        1 4JK      0.049100
      2 CZ          2.2630    0.2750    0.0370 c2        1 4JK      0.472200
      3 NH          2.3510   -0.4740    1.0730 n2        1 4JK     -0.715100
      4 NE          3.0090   -0.0960   -1.1980 ny        1 4JK     -0.761000
      5 CD          3.3130   -1.5490   -1.3560 c3        1 4JK      0.121800
      6 CG          3.7630   -1.9360   -2.7630 c3        1 4JK     -0.108400
      7 CB          5.1890   -1.5410   -3.1050 c3        1 4JK     -0.094400
      8 CA          5.2160   -0.4050   -4.1350 c3        1 4JK     -0.040500
      9 C           4.3890    0.7790   -3.5220 c         1 4JK      0.894600
     10 OA2         4.9850    1.4590   -2.6390 o         1 4JK     -0.781300
     11 OA1         3.1830    0.8630   -3.8440 o         1 4JK     -0.781300
     12 N           6.6050    0.0770   -4.4110 nz        1 4JK     -0.824600
     13 OH          1.0260    2.0080    1.1280 oh        1 4JK     -0.567800
     14 HH1C        2.0510    2.3480   -0.6800 h1        1 4JK      0.099700
     15 HH2C        0.5130    1.3310   -0.7110 h1        1 4JK      0.099700
     16 HH          1.6650    2.6540    1.4590 ho        1 4JK      0.430000
     17 HA          1.8330   -0.1740    1.8780 hn        1 4JK      0.476400
     18 HD1         2.3730   -2.1250   -1.1140 hx        1 4JK      0.108200
     19 HD2         4.1020   -1.8260   -0.5990 hx        1 4JK      0.108200
     20 HNE         3.8940    0.4510   -1.2050 hn        1 4JK      0.491800
     21 HG1C        3.6790   -3.0580   -2.8100 hc        1 4JK      0.099700
     22 HG2C        3.0480   -1.5220   -3.5300 hc        1 4JK      0.099700
     23 HB1C        5.7260   -2.4360   -3.5200 hc        1 4JK      0.065200
     24 HB2C        5.7340   -1.2190   -2.1770 hc        1 4JK      0.065200
     25 HB          4.7550   -0.7390   -5.1060 hx        1 4JK      0.121700
     26 HN1         7.2670   -0.6970   -4.4570 hn        1 4JK      0.460133
     27 HN2         6.8660    0.7220   -3.6440 hn        1 4JK      0.460133
     28 HE3         2.4560    0.2300   -2.0180 hn        1 4JK      0.491800
     29 HN3         6.6140    0.5960   -5.2920 hn        1 4JK      0.460133
@<TRIPOS>BOND
     1    1    2 1   
     2    1   13 1   
     3    1   14 1   
     4    1   15 1   
     5    2    3 2   
     6    2    4 1   
     7    3   17 1   
     8    4    5 1   
     9    4   20 1   
    10    4   28 1   
    11    5    6 1   
    12    5   18 1   
    13    5   19 1   
    14    6    7 1   
    15    6   21 1   
    16    6   22 1   
    17    7    8 1   
    18    7   23 1   
    19    7   24 1   
    20    8    9 1   
    21    8   12 1   
    22    8   25 1   
    23    9   10 1   
    24    9   11 1   
    25   12   26 1   
    26   12   27 1   
    27   12   29 1   
    28   13   16 1   
@<TRIPOS>SUBSTRUCTURE
     1 4JK         1 TEMP              0 ****  ****    0 ROOT
