@<TRIPOS>MOLECULE
4JK
   29    28     1     0     0
SMALL
bcc


@<TRIPOS>ATOM
      1 CH          1.3370    1.5780   -0.2970 c3        1 4JK      0.049100
      2 CZ          2.1980    0.3340   -0.0250 c2        1 4JK      0.472200
      3 NH          2.2950   -0.3430    1.0580 n2        1 4JK     -0.715100
      4 NE          2.9890   -0.0790   -1.2190 n4        1 4JK     -0.761000
      5 CD          3.3590   -1.5240   -1.2790 c3        1 4JK      0.121800
      6 CG          3.8580   -1.9770   -2.6490 c3        1 4JK     -0.108400
      7 CB          5.2730   -1.5410   -2.9860 c3        1 4JK     -0.094400
      8 CA          5.2760   -0.4720   -4.0840 c3        1 4JK     -0.040500
      9 C           4.3840    0.7110   -3.5640 c         1 4JK      0.894600
     10 OA2         4.9290    1.4690   -2.7140 o         1 4JK     -0.781300
     11 OA1         3.1830    0.7210   -3.9160 o         1 4JK     -0.781300
     12 N           6.6480    0.0530   -4.3610 n4        1 4JK     -0.824600
     13 OH          0.8610    2.0740    0.9270 oh        1 4JK     -0.567800
     14 HH1C        1.9120    2.3470   -0.8780 h1        1 4JK      0.099700
     15 HH2C        0.4220    1.2610   -0.8750 h1        1 4JK      0.099700
     16 HH          1.4630    2.7680    1.2300 ho        1 4JK      0.430000
     17 HA          1.7460   -0.0170    1.8310 hn        1 4JK      0.476400
     18 HD1         4.1410   -1.7180   -0.4900 hx        1 4JK      0.108200
     19 HD2         2.4390   -2.1250   -1.0200 hx        1 4JK      0.108200
     20 HNE         3.8490    0.5050   -1.2420 hn        1 4JK      0.491800
     21 HG1C        3.1440   -1.6440   -3.4550 hc        1 4JK      0.099700
     22 HG2C        3.8240   -3.1030   -2.6270 hc        1 4JK      0.099700
     23 HB1C        5.8570   -2.4360   -3.3320 hc        1 4JK      0.065200
     24 HB2C        5.7810   -1.1380   -2.0680 hc        1 4JK      0.065200
     25 HB          4.8520   -0.8860   -5.0420 hx        1 4JK      0.121700
     26 HN1         6.8640    0.7560   -3.6320 hn        1 4JK      0.460133
     27 HN2         7.3440   -0.6920   -4.3450 hn        1 4JK      0.460133
     28 HE3         2.4410    0.1710   -2.0690 hn        1 4JK      0.491800
     29 HN3         6.6560    0.5170   -5.2730 hn        1 4JK      0.460133
@<TRIPOS>BOND
     1    1    2 1   
     2    1   13 1   
     3    1   14 1   
     4    1   15 1   
     5    2    3 2   
     6    2    4 1   
     7    3   17 1   
     8    4    5 1   
     9    4   20 1   
    10    4   28 1   
    11    5    6 1   
    12    5   18 1   
    13    5   19 1   
    14    6    7 1   
    15    6   21 1   
    16    6   22 1   
    17    7    8 1   
    18    7   23 1   
    19    7   24 1   
    20    8    9 1   
    21    8   12 1   
    22    8   25 1   
    23    9   10 1   
    24    9   11 1   
    25   12   26 1   
    26   12   27 1   
    27   12   29 1   
    28   13   16 1   
@<TRIPOS>SUBSTRUCTURE
     1 4JK         1 TEMP              0 ****  ****    0 ROOT
