@<TRIPOS>MOLECULE
4JM
   18    18     1     0     0
SMALL
bcc


@<TRIPOS>ATOM
      1 C1         -0.0920   -0.0490    0.0690 ca        1 4JM     -0.044100
      2 C2          1.3070   -0.1400    0.0280 ca        1 4JM     -0.093000
      3 C3          2.0610   -0.1030    1.1910 ca        1 4JM     -0.175000
      4 C4          1.4300    0.0370    2.4510 ca        1 4JM      0.128600
      5 C5          0.0210    0.1240    2.4860 ca        1 4JM     -0.175000
      6 C6         -0.7180    0.0840    1.3090 ca        1 4JM     -0.093000
      7 N           2.1880    0.1710    3.6200 nh        1 4JM     -0.816200
      8 S          -0.8760   -0.1160   -1.4330 ss        1 4JM     -0.179000
      9 C          -2.5820    0.0570   -1.0890 c3        1 4JM     -0.066000
     10 H1          1.8140   -0.2450   -0.9450 ha        1 4JM      0.134500
     11 H2          3.1570   -0.1740    1.1270 ha        1 4JM      0.132500
     12 H3         -0.5040    0.2320    3.4470 ha        1 4JM      0.132500
     13 H4         -1.8150    0.1580    1.3690 ha        1 4JM      0.134500
     14 H5          1.7010   -0.0780    4.4530 hn        1 4JM      0.387300
     15 H6          3.0970   -0.2330    3.5650 hn        1 4JM      0.387300
     16 H7         -2.9770   -0.7720   -0.4610 h1        1 4JM      0.067033
     17 H8         -2.8220    1.0230   -0.5920 h1        1 4JM      0.067033
     18 H9         -3.0870    0.0280   -2.0840 h1        1 4JM      0.067033
@<TRIPOS>BOND
     1    1    2 ar  
     2    1    6 ar  
     3    1    8 1   
     4    2    3 ar  
     5    2   10 1   
     6    3    4 ar  
     7    3   11 1   
     8    4    5 ar  
     9    4    7 1   
    10    5    6 ar  
    11    5   12 1   
    12    6   13 1   
    13    7   14 1   
    14    7   15 1   
    15    8    9 1   
    16    9   16 1   
    17    9   17 1   
    18    9   18 1   
@<TRIPOS>SUBSTRUCTURE
     1 4JM         1 TEMP              0 ****  ****    0 ROOT
