@<TRIPOS>MOLECULE
4JM
   18    18     1     0     0
SMALL
bcc


@<TRIPOS>ATOM
      1 C1         -0.0910   -0.0430    0.0690 ca        1 4JM     -0.044100
      2 C2          1.3090   -0.1240    0.0280 ca        1 4JM     -0.093000
      3 C3          2.0620   -0.0880    1.1900 ca        1 4JM     -0.175000
      4 C4          1.4300    0.0380    2.4520 ca        1 4JM      0.128600
      5 C5          0.0200    0.1130    2.4870 ca        1 4JM     -0.175000
      6 C6         -0.7190    0.0760    1.3100 ca        1 4JM     -0.093000
      7 N           2.1860    0.1700    3.6220 nv        1 4JM     -0.816200
      8 S          -0.8750   -0.1070   -1.4340 ss        1 4JM     -0.179000
      9 C          -2.5820    0.0510   -1.0900 c3        1 4JM     -0.066000
     10 H1          1.8160   -0.2170   -0.9460 ha        1 4JM      0.134500
     11 H2          3.1580   -0.1500    1.1260 ha        1 4JM      0.132500
     12 H3         -0.5060    0.2110    3.4480 ha        1 4JM      0.132500
     13 H4         -1.8170    0.1410    1.3700 ha        1 4JM      0.134500
     14 H5          3.0990   -0.2270    3.5640 hn        1 4JM      0.387300
     15 H6          1.7010   -0.0880    4.4520 hn        1 4JM      0.387300
     16 H7         -2.9710   -0.7850   -0.4660 h1        1 4JM      0.067033
     17 H8         -2.8290    1.0120   -0.5850 h1        1 4JM      0.067033
     18 H9         -3.0870    0.0250   -2.0840 h1        1 4JM      0.067033
@<TRIPOS>BOND
     1    1    2 ar  
     2    1    6 ar  
     3    1    8 1   
     4    2    3 ar  
     5    2   10 1   
     6    3    4 ar  
     7    3   11 1   
     8    4    5 ar  
     9    4    7 1   
    10    5    6 ar  
    11    5   12 1   
    12    6   13 1   
    13    7   14 1   
    14    7   15 1   
    15    8    9 1   
    16    9   16 1   
    17    9   17 1   
    18    9   18 1   
@<TRIPOS>SUBSTRUCTURE
     1 4JM         1 TEMP              0 ****  ****    0 ROOT
