@<TRIPOS>MOLECULE
4JN
   13    13     1     0     0
SMALL
bcc


@<TRIPOS>ATOM
      1 C2         -0.0040   -0.1140   -0.0020 ca        1 4JN     -0.171300
      2 C3          1.3940    0.0490    0.0040 ca        1 4JN      0.403500
      3 C4          1.4490    0.1990    2.3040 ca        1 4JN      0.337200
      4 N1          2.1080    0.2030    1.1410 nb        1 4JN     -0.606000
      5 C1         -0.6900   -0.1200    1.2090 ca        1 4JN     -0.169000
      6 BR          2.3320    0.0520   -1.6310 br        1 4JN     -0.152200
      7 C           0.0300    0.0460    2.4150 ca        1 4JN      0.048300
      8 N          -0.6080    0.1420    3.6450 nh        1 4JN     -0.820200
      9 H1         -0.5520   -0.2370   -0.9480 ha        1 4JN      0.155000
     10 H2          2.0760    0.3340    3.2030 h4        1 4JN      0.027100
     11 H3         -1.7820   -0.2450    1.2190 ha        1 4JN      0.143000
     12 H4         -0.0360   -0.0440    4.4370 hn        1 4JN      0.402300
     13 H5         -1.5150   -0.2640    3.6880 hn        1 4JN      0.402300
@<TRIPOS>BOND
     1    1    2 ar  
     2    1    5 ar  
     3    1    9 1   
     4    2    4 ar  
     5    2    6 1   
     6    3    4 ar  
     7    3    7 ar  
     8    3   10 1   
     9    5    7 ar  
    10    5   11 1   
    11    7    8 1   
    12    8   12 1   
    13    8   13 1   
@<TRIPOS>SUBSTRUCTURE
     1 4JN         1 TEMP              0 ****  ****    0 ROOT
