@<TRIPOS>MOLECULE
4JN
   13    13     1     0     0
SMALL
bcc


@<TRIPOS>ATOM
      1 C2         -0.0110   -0.1320   -0.0000 ca        1 4JN     -0.171300
      2 C3          1.3870    0.0360   -0.0010 ca        1 4JN      0.403500
      3 C4          1.4580    0.1430    2.3010 ca        1 4JN      0.337200
      4 N1          2.1090    0.1710    1.1340 nb        1 4JN     -0.606000
      5 C1         -0.6880   -0.1590    1.2150 ca        1 4JN     -0.169000
      6 Br          2.3130    0.0810   -1.6420 br        1 4JN     -0.152200
      7 C           0.0410   -0.0260    2.4200 ca        1 4JN      0.048300
      8 N          -0.5660   -0.1390    3.6630 nv        1 4JN     -0.820200
      9 H1         -0.5640   -0.2390   -0.9450 ha        1 4JN      0.155000
     10 H2          2.0920    0.2520    3.1990 h4        1 4JN      0.027100
     11 H3         -1.7790   -0.2910    1.2300 ha        1 4JN      0.143000
     12 H4         -1.5430    0.0460    3.6800 hn        1 4JN      0.402300
     13 H5         -0.0590    0.2560    4.4230 hn        1 4JN      0.402300
@<TRIPOS>BOND
     1    1    2 ar  
     2    1    5 ar  
     3    1    9 1   
     4    2    4 ar  
     5    2    6 1   
     6    3    4 ar  
     7    3    7 ar  
     8    3   10 1   
     9    5    7 ar  
    10    5   11 1   
    11    7    8 1   
    12    8   12 1   
    13    8   13 1   
@<TRIPOS>SUBSTRUCTURE
     1 4JN         1 TEMP              0 ****  ****    0 ROOT
