@<TRIPOS>MOLECULE
4JO
   16    16     1     0     0
SMALL
bcc


@<TRIPOS>ATOM
      1 Br          0.0040   -0.0920   -0.0720 br        1 4JO     -0.080100
      2 C5          1.8690   -0.0520   -0.0080 ca        1 4JO     -0.208200
      3 C1          2.5860    0.0610    1.2090 ca        1 4JO      0.492600
      4 C           1.8390    0.1470    2.5050 c3        1 4JO     -0.159400
      5 C4          2.5950   -0.1370   -1.2030 ca        1 4JO     -0.029000
      6 C3          3.9790   -0.1060   -1.1760 ca        1 4JO     -0.311300
      7 C2          4.6390    0.0230    0.0860 ca        1 4JO      0.656200
      8 N           3.9340    0.0870    1.2610 nb        1 4JO     -0.733000
      9 N1          6.0290    0.1560    0.1230 nv        1 4JO     -0.932500
     10 H1          1.2070   -0.7670    2.6310 hc        1 4JO      0.062033
     11 H2          2.5250    0.2270    3.3840 hc        1 4JO      0.062033
     12 H3          1.1760    1.0480    2.4910 hc        1 4JO      0.062033
     13 H4          2.0710   -0.2300   -2.1680 ha        1 4JO      0.148000
     14 H5          4.5580   -0.1670   -2.1070 ha        1 4JO      0.146000
     15 H6          6.5070   -0.2830   -0.6280 hn        1 4JO      0.412300
     16 H7          6.4670    0.0650    1.0120 hn        1 4JO      0.412300
@<TRIPOS>BOND
     1    1    2 1   
     2    2    3 ar  
     3    2    5 ar  
     4    3    4 1   
     5    3    8 ar  
     6    4   10 1   
     7    4   11 1   
     8    4   12 1   
     9    5    6 ar  
    10    5   13 1   
    11    6    7 ar  
    12    6   14 1   
    13    7    8 ar  
    14    7    9 1   
    15    9   15 1   
    16    9   16 1   
@<TRIPOS>SUBSTRUCTURE
     1 4JO         1 TEMP              0 ****  ****    0 ROOT
