@<TRIPOS>MOLECULE
4JO
   16    16     1     0     0
SMALL
bcc


@<TRIPOS>ATOM
      1 BR          0.0040    0.0570   -0.0720 br        1 4JO     -0.080100
      2 C5          1.8680    0.0330   -0.0080 ca        1 4JO     -0.208200
      3 C1          2.5860   -0.0630    1.2100 ca        1 4JO      0.492600
      4 C           1.8410   -0.1450    2.5070 c3        1 4JO     -0.159400
      5 C4          2.5930    0.1160   -1.2030 ca        1 4JO     -0.029000
      6 C3          3.9780    0.0970   -1.1770 ca        1 4JO     -0.311300
      7 C2          4.6390   -0.0160    0.0860 ca        1 4JO      0.656200
      8 N           3.9350   -0.0770    1.2610 nb        1 4JO     -0.733000
      9 N1          6.0300   -0.1370    0.1240 nh        1 4JO     -0.932500
     10 H1          1.1860   -1.0520    2.5000 hc        1 4JO      0.062033
     11 H2          1.2010    0.7640    2.6260 hc        1 4JO      0.062033
     12 H3          2.5280   -0.2120    3.3860 hc        1 4JO      0.062033
     13 H4          2.0680    0.1960   -2.1690 ha        1 4JO      0.148000
     14 H5          4.5560    0.1550   -2.1090 ha        1 4JO      0.146000
     15 H6          6.4670   -0.0350    1.0120 hn        1 4JO      0.412300
     16 H7          6.5040    0.3010   -0.6310 hn        1 4JO      0.412300
@<TRIPOS>BOND
     1    1    2 1   
     2    2    3 ar  
     3    2    5 ar  
     4    3    4 1   
     5    3    8 ar  
     6    4   10 1   
     7    4   11 1   
     8    4   12 1   
     9    5    6 ar  
    10    5   13 1   
    11    6    7 ar  
    12    6   14 1   
    13    7    8 ar  
    14    7    9 1   
    15    9   15 1   
    16    9   16 1   
@<TRIPOS>SUBSTRUCTURE
     1 4JO         1 TEMP              0 ****  ****    0 ROOT
