@<TRIPOS>MOLECULE
4JP
   15     8     1     0     0
SMALL
bcc


@<TRIPOS>ATOM
      1 C01        -1.5740    0.0000   -1.5350 c1        1 4JP     -0.130500
      2 C02        -0.2080    0.0000   -1.5350 c1        1 4JP     -0.106000
      3 C03         0.4830    0.0000   -0.3350 c1        1 4JP     -0.053000
      4 C04        -0.2040    0.0000    0.8510 c1        1 4JP     -0.036000
      5 C05         0.7180   -0.0000    1.8760 c1        1 4JP     -0.182000
      6 C06         1.9790   -0.0000    1.3150 c1        1 4JP     -0.075000
      7 N07         1.8370   -0.0000   -0.0450 n1        1 4JP     -0.211000
      8 N08        -1.5870    0.0000    0.8490 n1        1 4JP     -0.094000
      9 C09        -2.2690    0.0000   -0.3320 c1        1 4JP     -0.130500
     10 H1         -2.0630   -0.0000   -2.3800 ha        1 4JP      0.148000
     11 H2          0.2800    0.0000   -2.3800 ha        1 4JP      0.135000
     12 H3          0.5140   -0.0000    2.8310 DU        1 4JP      0.195667
     13 H4          2.8240   -0.0000    1.8030 DU        1 4JP      0.195667
     14 H5          2.5150   -0.0000   -0.6540 DU        1 4JP      0.195667
     15 H6         -3.2450   -0.0000   -0.3320 ha        1 4JP      0.148000
@<TRIPOS>BOND
     1    1    9 1   
     2    1   10 1   
     3    2    3 1   
     4    2   11 1   
     5    4    8 1   
     6    5    6 1   
     7    6    7 1   
     8    9   15 1   
@<TRIPOS>SUBSTRUCTURE
     1 4JP         1 TEMP              0 ****  ****    0 ROOT
