@<TRIPOS>MOLECULE
4JP
   15    16     1     0     0
SMALL
bcc


@<TRIPOS>ATOM
      1 C01         2.1260    0.7010   -0.0010 ca        1 4JP     -0.233300
      2 C02         0.9510    1.4370   -0.0010 ca        1 4JP     -0.106000
      3 C03        -0.2500    0.7090   -0.0000 ca        1 4JP     -0.163500
      4 C04        -0.2040   -0.7520   -0.0010 ca        1 4JP      0.402100
      5 C05        -1.5870   -1.1950    0.0000 cc        1 4JP     -0.291800
      6 C06        -2.3800   -0.0520    0.0010 cd        1 4JP     -0.102100
      7 N07        -1.5860    1.0990    0.0000 na        1 4JP     -0.188400
      8 N08         0.9570   -1.4480   -0.0010 nb        1 4JP     -0.620000
      9 C09         2.0780   -0.7180   -0.0020 ca        1 4JP      0.372200
     10 H1          3.1010    1.2060   -0.0020 ha        1 4JP      0.140000
     11 H2          0.9580    2.5350   -0.0010 ha        1 4JP      0.135000
     12 H3         -1.9200   -2.2290    0.0000 ha        1 4JP      0.169000
     13 H4         -3.4690    0.0310    0.0010 h4        1 4JP      0.167000
     14 H5         -1.9120    2.0270    0.0010 hn        1 4JP      0.300700
     15 H6          3.0200   -1.2960   -0.0020 h4        1 4JP      0.019100
@<TRIPOS>BOND
     1    1    2 ar  
     2    1    9 ar  
     3    1   10 1   
     4    2    3 ar  
     5    2   11 1   
     6    3    4 ar  
     7    3    7 1   
     8    4    5 1   
     9    4    8 ar  
    10    5    6 2   
    11    5   12 1   
    12    6    7 1   
    13    6   13 1   
    14    7   14 1   
    15    8    9 ar  
    16    9   15 1   
@<TRIPOS>SUBSTRUCTURE
     1 4JP         1 TEMP              0 ****  ****    0 ROOT
