@<TRIPOS>MOLECULE
4JQ
   19    20     1     0     0
SMALL
bcc


@<TRIPOS>ATOM
      1 C1          0.0110    0.0800   -0.0100 ca        1 4JQ     -0.140000
      2 C2          1.3920    0.1110    0.0150 ca        1 4JQ     -0.110000
      3 C3          2.0610    0.0410    1.2500 ca        1 4JQ      0.108100
      4 C4          4.1510    0.0130    2.3980 c         1 4JQ      0.715800
      5 C5          3.4330   -0.0980    3.6620 cc        1 4JQ     -0.246200
      6 C6          2.0870   -0.1330    3.6910 cd        1 4JQ     -0.018200
      7 C7          1.3430   -0.0620    2.4540 ca        1 4JQ     -0.113800
      8 C8         -0.0580   -0.0910    2.4180 ca        1 4JQ     -0.145000
      9 O1          5.3640    0.0610    2.1970 o         1 4JQ     -0.568500
     10 O           3.4410    0.0810    1.2010 os        1 4JQ     -0.320200
     11 C          -0.7430   -0.0280    1.1920 ca        1 4JQ      0.114600
     12 N          -2.1370   -0.1560    1.1410 nv        1 4JQ     -0.814200
     13 H1         -0.5100    0.1300   -0.9790 ha        1 4JQ      0.142000
     14 H2          1.9790    0.1900   -0.9130 ha        1 4JQ      0.160000
     15 H3          4.0600   -0.1490    4.5640 ha        1 4JQ      0.169000
     16 H4          1.5230   -0.2170    4.6340 ha        1 4JQ      0.147000
     17 H5         -0.6110   -0.1740    3.3660 ha        1 4JQ      0.139000
     18 H6         -2.6020    0.1070    1.9820 hn        1 4JQ      0.390300
     19 H7         -2.5530    0.2370    0.3260 hn        1 4JQ      0.390300
@<TRIPOS>BOND
     1    1    2 ar  
     2    1   11 ar  
     3    1   13 1   
     4    2    3 ar  
     5    2   14 1   
     6    3    7 ar  
     7    3   10 1   
     8    4    5 1   
     9    4    9 2   
    10    4   10 1   
    11    5    6 2   
    12    5   15 1   
    13    6    7 1   
    14    6   16 1   
    15    7    8 ar  
    16    8   11 ar  
    17    8   17 1   
    18   11   12 1   
    19   12   18 1   
    20   12   19 1   
@<TRIPOS>SUBSTRUCTURE
     1 4JQ         1 TEMP              0 ****  ****    0 ROOT
