@<TRIPOS>MOLECULE
4JQ
   19    20     1     0     0
SMALL
bcc


@<TRIPOS>ATOM
      1 C1          0.0050   -0.0890   -0.0060 ca        1 4JQ     -0.140000
      2 C2          1.3870   -0.1100    0.0140 ca        1 4JQ     -0.110000
      3 C3          2.0600   -0.0380    1.2480 ca        1 4JQ      0.108100
      4 C4          4.1520    0.0020    2.3890 c         1 4JQ      0.715800
      5 C5          3.4390    0.1040    3.6550 cc        1 4JQ     -0.246200
      6 C6          2.0910    0.1290    3.6890 cd        1 4JQ     -0.018200
      7 C7          1.3440    0.0550    2.4540 ca        1 4JQ     -0.113800
      8 C8         -0.0560    0.0740    2.4230 ca        1 4JQ     -0.145000
      9 O1          5.3650   -0.0360    2.1830 o         1 4JQ     -0.568500
     10 O           3.4390   -0.0680    1.1940 os        1 4JQ     -0.320200
     11 C          -0.7450    0.0090    1.1980 ca        1 4JQ      0.114600
     12 N          -2.1400    0.1270    1.1530 nh        1 4JQ     -0.814200
     13 H1         -0.5180   -0.1410   -0.9740 ha        1 4JQ      0.142000
     14 H2          1.9720   -0.1820   -0.9150 ha        1 4JQ      0.160000
     15 H3          4.0680    0.1570    4.5560 ha        1 4JQ      0.169000
     16 H4          1.5310    0.2060    4.6330 ha        1 4JQ      0.147000
     17 H5         -0.6070    0.1500    3.3730 ha        1 4JQ      0.139000
     18 H6         -2.5560   -0.2670    0.3370 hn        1 4JQ      0.390300
     19 H7         -2.6000   -0.1420    1.9940 hn        1 4JQ      0.390300
@<TRIPOS>BOND
     1    1    2 ar  
     2    1   11 ar  
     3    1   13 1   
     4    2    3 ar  
     5    2   14 1   
     6    3    7 ar  
     7    3   10 1   
     8    4    5 1   
     9    4    9 2   
    10    4   10 1   
    11    5    6 2   
    12    5   15 1   
    13    6    7 1   
    14    6   16 1   
    15    7    8 ar  
    16    8   11 ar  
    17    8   17 1   
    18   11   12 1   
    19   12   18 1   
    20   12   19 1   
@<TRIPOS>SUBSTRUCTURE
     1 4JQ         1 TEMP              0 ****  ****    0 ROOT
