@<TRIPOS>MOLECULE
4JR
   58    62     1     0     0
SMALL
bcc


@<TRIPOS>ATOM
      1 N1         -7.1420   -0.1300    1.2180 na        1 4JR     -0.204900
      2 N3         -4.3020    0.1770   -0.7520 n3        1 4JR     -0.724600
      3 C4         -6.6250   -0.3180   -0.0830 cc        1 4JR      0.388800
      4 C5         -5.6800    0.6420   -0.7530 c3        1 4JR      0.159500
      5 C6         -3.4870    0.8950   -1.7220 c3        1 4JR      0.174800
      6 C7         -2.0400    0.4120   -1.7710 c3        1 4JR     -0.068400
      7 C8         -1.3940    0.4180   -0.3920 c3        1 4JR     -0.117000
      8 C10         0.4430    1.9170    0.2710 c3        1 4JR      0.088000
      9 C13         3.2570    1.4200    0.3530 ca        1 4JR     -0.174500
     10 C15         5.1730   -0.0480    0.0810 cp        1 4JR     -0.068000
     11 C17         2.9300   -0.8710   -0.3760 ca        1 4JR     -0.174500
     12 C20         8.6340   -1.2480   -0.7830 ca        1 4JR     -0.130000
     13 C21         9.3830   -0.7040    0.2600 ca        1 4JR     -0.130000
     14 C22         8.7510    0.0550    1.2450 ca        1 4JR     -0.130000
     15 C24        -2.2660   -0.3690    0.5770 c3        1 4JR     -0.068400
     16 C1         -6.8880    0.9650    2.0920 c3        1 4JR      0.022600
     17 C2         -7.9980   -1.2040    1.4690 cc        1 4JR     -0.255600
     18 C3         -7.9640   -2.0120    0.3180 cd        1 4JR      0.290200
     19 N2         -7.1140   -1.4570   -0.6330 nd        1 4JR     -0.640000
     20 C25        -3.7080    0.1320    0.5740 c3        1 4JR      0.174800
     21 C11        -0.0150   -0.2710   -0.4890 c         1 4JR      0.708500
     22 O           0.1540   -1.4400   -0.8590 o         1 4JR     -0.603500
     23 C9         -1.0860    1.8370    0.1080 c3        1 4JR     -0.092400
     24 N4          0.9920    0.6220   -0.0990 n         1 4JR     -0.382000
     25 C12         2.3740    0.3870   -0.0440 ca        1 4JR      0.087600
     26 C14         4.6270    1.1980    0.4130 ca        1 4JR     -0.092000
     27 C16         4.3030   -1.0730   -0.3140 ca        1 4JR     -0.092000
     28 C18         6.6150   -0.2720    0.1420 cp        1 4JR     -0.029000
     29 C23         7.3760    0.2720    1.1880 ca        1 4JR     -0.121500
     30 C19         7.2580   -1.0360   -0.8430 ca        1 4JR     -0.121500
     31 H2         -5.7820    1.6570   -0.2610 h1        1 4JR      0.049200
     32 H3         -6.0120    0.7450   -1.8270 h1        1 4JR      0.049200
     33 H4         -3.9470    0.7330   -2.7390 h1        1 4JR      0.031450
     34 H5         -3.4890    2.0080   -1.5190 h1        1 4JR      0.031450
     35 H6         -2.0020   -0.6350   -2.1770 hc        1 4JR      0.067450
     36 H7         -1.4690    1.0770   -2.4700 hc        1 4JR      0.067450
     37 H8          0.8700    2.7170   -0.3950 h1        1 4JR      0.051700
     38 H9          0.7170    2.1590    1.3350 h1        1 4JR      0.051700
     39 H11         2.2840   -1.7080   -0.6880 ha        1 4JR      0.151500
     40 H12         9.1290   -1.8460   -1.5620 ha        1 4JR      0.130500
     41 H13        10.4680   -0.8740    0.3070 ha        1 4JR      0.131000
     42 H14         9.3380    0.4830    2.0700 ha        1 4JR      0.130500
     43 H15        -2.2390   -1.4520    0.2810 hc        1 4JR      0.067450
     44 H16        -1.8630   -0.2830    1.6190 hc        1 4JR      0.067450
     45 H17        -5.7800    1.1250    2.1920 h1        1 4JR      0.052033
     46 H18        -7.3530    1.9050    1.6860 h1        1 4JR      0.052033
     47 H19        -7.3230    0.7520    3.1040 h1        1 4JR      0.052033
     48 H20        -8.5410   -1.3100    2.4050 h4        1 4JR      0.175000
     49 H21        -8.4950   -2.9440    0.1310 h4        1 4JR      0.043100
     50 H22        -3.7360    1.1480    1.0730 h1        1 4JR      0.031450
     51 H23        -4.3290   -0.5730    1.1960 h1        1 4JR      0.031450
     52 H24        -1.4370    2.6060   -0.6220 hc        1 4JR      0.059700
     53 H25        -1.5880    2.0350    1.0870 hc        1 4JR      0.059700
     54 H26         5.2920    2.0200    0.7190 ha        1 4JR      0.136500
     55 H27         4.7110   -2.0630   -0.5730 ha        1 4JR      0.136500
     56 H28         6.8800    0.8650    1.9710 ha        1 4JR      0.134000
     57 H29         6.6720   -1.4620   -1.6710 ha        1 4JR      0.134000
     58 H10         2.8780    2.4180    0.6200 ha        1 4JR      0.151500
@<TRIPOS>BOND
     1    1    3 1   
     2    1   16 1   
     3    1   17 1   
     4    2    4 1   
     5    2    5 1   
     6    2   20 1   
     7    3    4 1   
     8    3   19 2   
     9    4   31 1   
    10    4   32 1   
    11    5    6 1   
    12    5   33 1   
    13    5   34 1   
    14    6    7 1   
    15    6   35 1   
    16    6   36 1   
    17    7   15 1   
    18    7   21 1   
    19    7   23 1   
    20    8   23 1   
    21    8   24 1   
    22    8   37 1   
    23    8   38 1   
    24    9   25 ar  
    25    9   26 ar  
    26    9   58 1   
    27   10   26 ar  
    28   10   27 ar  
    29   10   28 1   
    30   11   25 ar  
    31   11   27 ar  
    32   11   39 1   
    33   12   13 ar  
    34   12   30 ar  
    35   12   40 1   
    36   13   14 ar  
    37   13   41 1   
    38   14   29 ar  
    39   14   42 1   
    40   15   20 1   
    41   15   43 1   
    42   15   44 1   
    43   16   45 1   
    44   16   46 1   
    45   16   47 1   
    46   17   18 2   
    47   17   48 1   
    48   18   19 1   
    49   18   49 1   
    50   20   50 1   
    51   20   51 1   
    52   21   22 2   
    53   21   24 1   
    54   23   52 1   
    55   23   53 1   
    56   24   25 1   
    57   26   54 1   
    58   27   55 1   
    59   28   29 ar  
    60   28   30 ar  
    61   29   56 1   
    62   30   57 1   
@<TRIPOS>SUBSTRUCTURE
     1 4JR         1 TEMP              0 ****  ****    0 ROOT
