@<TRIPOS>MOLECULE
4JR
   58    51     1     0     0
SMALL
bcc


@<TRIPOS>ATOM
      1 N1         -4.8570    3.5690    0.4150 n2        1 4JR     -0.138500
      2 N3         -1.8460    2.2870    1.4650 n3        1 4JR     -0.263000
      3 C4         -4.1640    3.0450    1.4610 c1        1 4JR     -0.064000
      4 C5         -3.2240    1.8350    1.3980 c2        1 4JR      0.004000
      5 C6         -1.0610    1.6330    0.3980 c3        1 4JR     -0.069500
      6 C7          0.4280    1.9440    0.4960 c3        1 4JR     -0.146500
      7 C8          0.9720    1.6790    1.8500 c3        1 4JR     -0.067000
      8 C10         2.2620   -0.2630    2.4980 c3        1 4JR     -0.029000
      9 C13         1.7560   -2.2580    0.1920 c1        1 4JR     -0.185000
     10 C15         2.6780   -3.0460   -1.8910 c1        1 4JR     -0.068000
     11 C17         3.3570   -0.9090   -1.0050 c1        1 4JR     -0.163000
     12 C20         1.8980   -5.2330   -4.9080 c1        1 4JR     -0.128000
     13 C21         2.8660   -6.2250   -4.7900 c1        1 4JR     -0.128000
     14 C22         3.7960   -6.1700   -3.7580 c1        1 4JR     -0.128000
     15 C24         0.1830    2.3370    2.9170 c3        1 4JR     -0.146500
     16 C1         -5.2160    3.4110   -0.9540 c2        1 4JR     -0.071000
     17 C2         -5.6760    4.5150    0.8930 c1        1 4JR     -0.173500
     18 C3         -5.4940    4.5850    2.2500 c1        1 4JR     -0.173500
     19 N2         -4.5670    3.6820    2.5910 n2        1 4JR     -0.138500
     20 C25        -1.3070    2.0240    2.8130 c3        1 4JR     -0.069500
     21 C11         1.9790    1.3570    0.8280 c1        1 4JR      0.316000
     22 O           2.2060    2.0010   -0.1860 o         1 4JR     -0.334000
     23 C9          1.2330    0.7560    2.9930 c3        1 4JR     -0.171000
     24 N4          2.3870   -0.0610    1.0820 n2        1 4JR     -0.283000
     25 C12         2.5160   -1.0960    0.0880 c1        1 4JR      0.094000
     26 C14         1.8370   -3.2330   -0.7980 c2        1 4JR     -0.092000
     27 C16         3.4380   -1.8840   -1.9950 c1        1 4JR     -0.092000
     28 C18         2.7910   -4.1300   -2.9610 c1        1 4JR     -0.030000
     29 C23         3.7580   -5.1220   -2.8440 c1        1 4JR     -0.121000
     30 C19         1.8600   -4.1860   -3.9940 c1        1 4JR     -0.128000
     31 H2         -3.3700    1.3490    0.5540 h4        1 4JR      0.097000
     32 H3         -3.4100    1.2370    2.1550 h4        1 4JR      0.097000
     33 H4         -1.3940    1.9400   -0.4760 h1        1 4JR      0.077750
     34 H5         -1.1870    0.6600    0.4620 h1        1 4JR      0.077750
     35 H6          0.5700    2.8960    0.2750 hc        1 4JR      0.103500
     36 H7          0.9110    1.3910   -0.1560 hc        1 4JR      0.103500
     37 H8          1.9470   -1.1770    2.6810 h1        1 4JR      0.092500
     38 H9          3.1280   -0.1100    2.9380 h1        1 4JR      0.092500
     39 H10         1.1630   -2.3900    0.9630 ha        1 4JR      0.131000
     40 H11         3.8930   -0.0890   -1.0780 ha        1 4JR      0.172000
     41 H12         1.2420   -5.2720   -5.6370 ha        1 4JR      0.131500
     42 H13         2.8930   -6.9640   -5.4360 ha        1 4JR      0.131500
     43 H14         4.4790   -6.8700   -3.6750 ha        1 4JR      0.131500
     44 H15         0.3100    3.3120    2.8510 hc        1 4JR      0.103500
     45 H16         0.5120    2.0310    3.7890 hc        1 4JR      0.103500
     46 H17        -4.4170    3.1910   -1.4790 ha        1 4JR      0.096000
     47 H18        -5.6060    4.2460   -1.2880 ha        1 4JR      0.096000
     48 H19        -5.8740    2.6860   -1.0380 ha        1 4JR      0.096000
     49 H20        -6.2970    5.0620    0.3640 DU        1 4JR      0.177000
     50 H21        -5.9620    5.1900    2.8640 DU        1 4JR      0.177000
     51 H22        -1.4490    1.0770    3.0330 h1        1 4JR      0.077750
     52 H23        -1.7950    2.5790    3.4640 h1        1 4JR      0.077750
     53 H24         0.4030    0.2980    3.2530 hc        1 4JR      0.101500
     54 H25         1.5960    1.2580    3.7580 hc        1 4JR      0.101500
     55 H26         1.3020   -4.0520   -0.7260 ha        1 4JR      0.135000
     56 H27         4.0300   -1.7520   -2.7650 ha        1 4JR      0.138000
     57 H28         4.4150   -5.0840   -2.1150 ha        1 4JR      0.135000
     58 H29         1.1780   -3.4870   -4.0780 ha        1 4JR      0.131500
@<TRIPOS>BOND
     1    1    3 1   
     2    1   17 1   
     3    2    4 1   
     4    2    5 1   
     5    2   20 1   
     6    3   19 1   
     7    4   31 1   
     8    4   32 1   
     9    5    6 1   
    10    5   33 1   
    11    5   34 1   
    12    6    7 1   
    13    6   35 1   
    14    6   36 1   
    15    7   15 1   
    16    7   21 1   
    17    7   23 1   
    18    8   23 1   
    19    8   24 1   
    20    8   37 1   
    21    8   38 1   
    22    9   26 1   
    23    9   39 1   
    24   10   26 1   
    25   10   27 1   
    26   11   25 1   
    27   11   40 1   
    28   12   30 1   
    29   12   41 1   
    30   13   14 1   
    31   13   42 1   
    32   14   43 1   
    33   15   20 1   
    34   15   44 1   
    35   15   45 1   
    36   16   46 1   
    37   16   47 1   
    38   16   48 1   
    39   17   18 1   
    40   18   19 1   
    41   20   51 1   
    42   20   52 1   
    43   21   22 1   
    44   23   53 1   
    45   23   54 1   
    46   24   25 1   
    47   26   55 1   
    48   27   56 1   
    49   28   29 1   
    50   29   57 1   
    51   30   58 1   
@<TRIPOS>SUBSTRUCTURE
     1 4JR         1 TEMP              0 ****  ****    0 ROOT
