@<TRIPOS>MOLECULE
4JR
   58    62     1     0     0
SMALL
bcc


@<TRIPOS>ATOM
      1 N1         -0.2370   -0.3490   -0.0910 na        1 4JR     -0.204900
      2 N3          2.4180    1.4430   -1.4270 n3        1 4JR     -0.724600
      3 C4          1.1200   -0.0020    0.0960 cc        1 4JR      0.388800
      4 C5          2.1230    0.0770   -1.0230 c3        1 4JR      0.159500
      5 C6          3.6450    1.5250   -2.2060 c3        1 4JR      0.174800
      6 C7          4.0030    2.9500   -2.6210 c3        1 4JR     -0.068400
      7 C8          2.8470    3.6390   -3.3330 c3        1 4JR     -0.117000
      8 C10         2.8660    4.2760   -5.7110 c3        1 4JR      0.088000
      9 C13         3.4450    6.8040   -6.9130 ca        1 4JR     -0.174500
     10 C15         4.0160    9.1600   -6.7570 cp        1 4JR     -0.068000
     11 C17         3.7780    7.8250   -4.7380 ca        1 4JR     -0.174500
     12 C20         5.5800   12.4950   -7.5280 ca        1 4JR     -0.130000
     13 C21         4.8380   12.8980   -8.6380 ca        1 4JR     -0.130000
     14 C22         3.8260   12.0740   -9.1310 ca        1 4JR     -0.130000
     15 C24         1.5970    3.5530   -2.4670 c3        1 4JR     -0.068400
     16 C1         -0.8730   -0.6910   -1.3170 c3        1 4JR      0.022600
     17 C2         -0.8290   -0.3460    1.1730 cc        1 4JR     -0.255600
     18 C3          0.1830    0.0120    2.0820 cd        1 4JR      0.290200
     19 N2          1.3810    0.2230    1.4080 nd        1 4JR     -0.640000
     20 C25         1.2930    2.1150   -2.0560 c3        1 4JR      0.174800
     21 C11         3.2070    5.1280   -3.5360 c         1 4JR      0.708500
     22 O           3.4610    5.9140   -2.6140 o         1 4JR     -0.603500
     23 C9          2.6210    3.0970   -4.7520 c3        1 4JR     -0.092400
     24 N4          3.2010    5.4380   -4.9020 n         1 4JR     -0.382000
     25 C12         3.4730    6.6760   -5.5030 ca        1 4JR      0.087600
     26 C14         3.7110    8.0260   -7.5190 ca        1 4JR     -0.092000
     27 C16         4.0450    9.0370   -5.3620 ca        1 4JR     -0.092000
     28 C18         4.2970   10.4400   -7.4020 cp        1 4JR     -0.029000
     29 C23         3.5560   10.8520   -8.5190 ca        1 4JR     -0.121500
     30 C19         5.3120   11.2750   -6.9110 ca        1 4JR     -0.121500
     31 H2          3.0810   -0.3890   -0.6480 h1        1 4JR      0.049200
     32 H3          1.7510   -0.5470   -1.8910 h1        1 4JR      0.049200
     33 H4          3.5870    0.8820   -3.1350 h1        1 4JR      0.031450
     34 H5          4.4820    1.1250   -1.5650 h1        1 4JR      0.031450
     35 H6          4.9010    2.9080   -3.2900 hc        1 4JR      0.067450
     36 H7          4.2720    3.5550   -1.7130 hc        1 4JR      0.067450
     37 H8          3.7120    4.0430   -6.4150 h1        1 4JR      0.051700
     38 H9          1.9460    4.4890   -6.3220 h1        1 4JR      0.051700
     39 H11         3.8090    7.7760   -3.6360 ha        1 4JR      0.151500
     40 H12         6.3800   13.1410   -7.1370 ha        1 4JR      0.130500
     41 H13         5.0500   13.8620   -9.1230 ha        1 4JR      0.131000
     42 H14         3.2370   12.3900  -10.0050 ha        1 4JR      0.130500
     43 H15         0.7120    3.9580   -3.0220 hc        1 4JR      0.067450
     44 H16         1.7540    4.1860   -1.5520 hc        1 4JR      0.067450
     45 H17        -0.6660    0.1000   -2.0890 h1        1 4JR      0.052033
     46 H18        -1.9820   -0.7710   -1.1610 h1        1 4JR      0.052033
     47 H19        -0.4860   -1.6760   -1.6990 h1        1 4JR      0.052033
     48 H20        -1.8790   -0.5870    1.3250 h4        1 4JR      0.175000
     49 H21         0.1110    0.1290    3.1620 h4        1 4JR      0.043100
     50 H22         0.9320    1.5500   -2.9690 h1        1 4JR      0.031450
     51 H23         0.4500    2.1320   -1.3080 h1        1 4JR      0.031450
     52 H24         3.3260    2.2610   -4.9810 hc        1 4JR      0.059700
     53 H25         1.5790    2.7120   -4.8740 hc        1 4JR      0.059700
     54 H26         3.6880    8.0980   -8.6180 ha        1 4JR      0.136500
     55 H27         4.2750    9.9190   -4.7420 ha        1 4JR      0.136500
     56 H28         2.7520   10.2100   -8.9070 ha        1 4JR      0.134000
     57 H29         5.9040   10.9580   -6.0390 ha        1 4JR      0.134000
     58 H10         3.2150    5.9420   -7.5570 ha        1 4JR      0.151500
@<TRIPOS>BOND
     1    1    3 1   
     2    1   16 1   
     3    1   17 1   
     4    2    4 1   
     5    2    5 1   
     6    2   20 1   
     7    3    4 1   
     8    3   19 2   
     9    4   31 1   
    10    4   32 1   
    11    5    6 1   
    12    5   33 1   
    13    5   34 1   
    14    6    7 1   
    15    6   35 1   
    16    6   36 1   
    17    7   15 1   
    18    7   21 1   
    19    7   23 1   
    20    8   23 1   
    21    8   24 1   
    22    8   37 1   
    23    8   38 1   
    24    9   25 ar  
    25    9   26 ar  
    26    9   58 1   
    27   10   26 ar  
    28   10   27 ar  
    29   10   28 1   
    30   11   25 ar  
    31   11   27 ar  
    32   11   39 1   
    33   12   13 ar  
    34   12   30 ar  
    35   12   40 1   
    36   13   14 ar  
    37   13   41 1   
    38   14   29 ar  
    39   14   42 1   
    40   15   20 1   
    41   15   43 1   
    42   15   44 1   
    43   16   45 1   
    44   16   46 1   
    45   16   47 1   
    46   17   18 2   
    47   17   48 1   
    48   18   19 1   
    49   18   49 1   
    50   20   50 1   
    51   20   51 1   
    52   21   22 2   
    53   21   24 1   
    54   23   52 1   
    55   23   53 1   
    56   24   25 1   
    57   26   54 1   
    58   27   55 1   
    59   28   29 ar  
    60   28   30 ar  
    61   29   56 1   
    62   30   57 1   
@<TRIPOS>SUBSTRUCTURE
     1 4JR         1 TEMP              0 ****  ****    0 ROOT
