@<TRIPOS>MOLECULE
4JR
   58    62     1     0     0
SMALL
bcc


@<TRIPOS>ATOM
      1 N1         -0.2370   -0.3550   -0.1000 na        1 4JR     -0.204900
      2 N3          2.4180    1.4540   -1.4120 n3        1 4JR     -0.723600
      3 C4          1.1140    0.0060    0.1020 cc        1 4JR      0.388800
      4 C5          2.1300    0.0870   -1.0050 c3        1 4JR      0.159500
      5 C6          3.6520    1.5420   -2.1790 c3        1 4JR      0.174800
      6 C7          4.0040    2.9670   -2.5970 c3        1 4JR     -0.068400
      7 C8          2.8500    3.6440   -3.3240 c3        1 4JR     -0.117000
      8 C10         2.8880    4.2700   -5.7050 c3        1 4JR      0.088000
      9 C13         3.4580    6.7970   -6.9140 ca        1 4JR     -0.174500
     10 C15         4.0110    9.1580   -6.7630 cp        1 4JR     -0.068000
     11 C17         3.7670    7.8300   -4.7400 ca        1 4JR     -0.174500
     12 C20         5.5600   12.4990   -7.5360 ca        1 4JR     -0.130000
     13 C21         4.8250   12.8920   -8.6540 ca        1 4JR     -0.130000
     14 C22         3.8230   12.0600   -9.1520 ca        1 4JR     -0.130000
     15 C24         1.5920    3.5520   -2.4710 c3        1 4JR     -0.068400
     16 C1         -0.8560   -0.7090   -1.3320 c3        1 4JR      0.022600
     17 C2         -0.8460   -0.3500    1.1570 cc        1 4JR     -0.255600
     18 C3          0.1520    0.0220    2.0760 cd        1 4JR      0.290200
     19 N2          1.3560    0.2400    1.4160 nd        1 4JR     -0.640000
     20 C25         1.2950    2.1140   -2.0560 c3        1 4JR      0.174800
     21 C11         3.2010    5.1350   -3.5310 c         1 4JR      0.708500
     22 O           3.4390    5.9270   -2.6100 o         1 4JR     -0.603500
     23 C9          2.6430    3.0930   -4.7430 c3        1 4JR     -0.092400
     24 N4          3.2060    5.4380   -4.8990 n         1 4JR     -0.382000
     25 C12         3.4740    6.6750   -5.5030 ca        1 4JR      0.087600
     26 C14         3.7200    8.0180   -7.5220 ca        1 4JR     -0.092000
     27 C16         4.0300    9.0410   -5.3670 ca        1 4JR     -0.092000
     28 C18         4.2900   10.4370   -7.4110 cp        1 4JR     -0.029000
     29 C23         3.5550   10.8390   -8.5360 ca        1 4JR     -0.121500
     30 C19         5.2950   11.2800   -6.9160 ca        1 4JR     -0.121500
     31 H2          1.7740   -0.5450   -1.8740 h1        1 4JR      0.049200
     32 H3          3.0870   -0.3680   -0.6160 h1        1 4JR      0.049200
     33 H4          4.4860    1.1520   -1.5270 h1        1 4JR      0.031450
     34 H5          3.6090    0.8940   -3.1050 h1        1 4JR      0.031450
     35 H6          4.2590    3.5790   -1.6900 hc        1 4JR      0.067450
     36 H7          4.9090    2.9290   -3.2560 hc        1 4JR      0.067450
     37 H8          3.7430    4.0410   -6.4000 h1        1 4JR      0.051700
     38 H9          1.9720    4.4720   -6.3260 h1        1 4JR      0.051700
     39 H11         3.7890    7.7860   -3.6380 ha        1 4JR      0.151500
     40 H12         6.3530   13.1520   -7.1410 ha        1 4JR      0.130500
     41 H13         5.0350   13.8550   -9.1410 ha        1 4JR      0.131000
     42 H14         3.2390   12.3680  -10.0310 ha        1 4JR      0.130500
     43 H15         0.7100    3.9470   -3.0370 hc        1 4JR      0.067450
     44 H16         1.7340    4.1900   -1.5580 hc        1 4JR      0.067450
     45 H17        -1.9650   -0.7980   -1.1890 h1        1 4JR      0.052033
     46 H18        -0.6460    0.0810   -2.1050 h1        1 4JR      0.052033
     47 H19        -0.4550   -1.6910   -1.7040 h1        1 4JR      0.052033
     48 H20        -1.8950   -0.6000    1.2970 h4        1 4JR      0.175000
     49 H21         0.0650    0.1440    3.1550 h4        1 4JR      0.043100
     50 H22         0.9480    1.5410   -2.9700 h1        1 4JR      0.031450
     51 H23         0.4440    2.1280   -1.3170 h1        1 4JR      0.031450
     52 H24         3.3580    2.2630   -4.9600 hc        1 4JR      0.059700
     53 H25         1.6050    2.6990   -4.8740 hc        1 4JR      0.059700
     54 H26         3.7060    8.0850   -8.6210 ha        1 4JR      0.136500
     55 H27         4.2490    9.9260   -4.7500 ha        1 4JR      0.136500
     56 H28         2.7590   10.1890   -8.9280 ha        1 4JR      0.134000
     57 H29         5.8820   10.9710   -6.0370 ha        1 4JR      0.134000
     58 H10         3.2390    5.9310   -7.5550 ha        1 4JR      0.151500
@<TRIPOS>BOND
     1    1    3 1   
     2    1   16 1   
     3    1   17 1   
     4    2    4 1   
     5    2    5 1   
     6    2   20 1   
     7    3    4 1   
     8    3   19 2   
     9    4   31 1   
    10    4   32 1   
    11    5    6 1   
    12    5   33 1   
    13    5   34 1   
    14    6    7 1   
    15    6   35 1   
    16    6   36 1   
    17    7   15 1   
    18    7   21 1   
    19    7   23 1   
    20    8   23 1   
    21    8   24 1   
    22    8   37 1   
    23    8   38 1   
    24    9   25 ar  
    25    9   26 ar  
    26    9   58 1   
    27   10   26 ar  
    28   10   27 ar  
    29   10   28 1   
    30   11   25 ar  
    31   11   27 ar  
    32   11   39 1   
    33   12   13 ar  
    34   12   30 ar  
    35   12   40 1   
    36   13   14 ar  
    37   13   41 1   
    38   14   29 ar  
    39   14   42 1   
    40   15   20 1   
    41   15   43 1   
    42   15   44 1   
    43   16   45 1   
    44   16   46 1   
    45   16   47 1   
    46   17   18 2   
    47   17   48 1   
    48   18   19 1   
    49   18   49 1   
    50   20   50 1   
    51   20   51 1   
    52   21   22 2   
    53   21   24 1   
    54   23   52 1   
    55   23   53 1   
    56   24   25 1   
    57   26   54 1   
    58   27   55 1   
    59   28   29 ar  
    60   28   30 ar  
    61   29   56 1   
    62   30   57 1   
@<TRIPOS>SUBSTRUCTURE
     1 4JR         1 TEMP              0 ****  ****    0 ROOT
