@<TRIPOS>MOLECULE
4JR
   58    62     1     0     0
SMALL
bcc


@<TRIPOS>ATOM
      1 N1         -0.2410   -0.3470   -0.0910 na        1 4JR     -0.204900
      2 N3          2.4140    1.4520   -1.4150 n3        1 4JR     -0.724600
      3 C4          1.1130    0.0070    0.1030 cc        1 4JR      0.388800
      4 C5          2.1230    0.0860   -1.0080 c3        1 4JR      0.159500
      5 C6          3.6470    1.5380   -2.1850 c3        1 4JR      0.174800
      6 C7          4.0010    2.9620   -2.6030 c3        1 4JR     -0.068400
      7 C8          2.8470    3.6420   -3.3270 c3        1 4JR     -0.117000
      8 C10         2.8840    4.2690   -5.7080 c3        1 4JR      0.088000
      9 C13         3.4620    6.7950   -6.9160 ca        1 4JR     -0.174500
     10 C15         4.0160    9.1560   -6.7640 cp        1 4JR     -0.068000
     11 C17         3.7670    7.8280   -4.7420 ca        1 4JR     -0.174500
     12 C20         5.5680   12.4960   -7.5350 ca        1 4JR     -0.130000
     13 C21         4.8350   12.8890   -8.6540 ca        1 4JR     -0.130000
     14 C22         3.8330   12.0580   -9.1540 ca        1 4JR     -0.130000
     15 C24         1.5910    3.5530   -2.4710 c3        1 4JR     -0.068400
     16 C1         -0.8680   -0.6970   -1.3210 c3        1 4JR      0.022600
     17 C2         -0.8430   -0.3420    1.1690 cc        1 4JR     -0.255600
     18 C3          0.1610    0.0240    2.0830 cd        1 4JR      0.290200
     19 N2          1.3630    0.2380    1.4160 nd        1 4JR     -0.640000
     20 C25         1.2910    2.1150   -2.0560 c3        1 4JR      0.174800
     21 C11         3.2010    5.1320   -3.5330 c         1 4JR      0.708500
     22 O           3.4430    5.9230   -2.6130 o         1 4JR     -0.603500
     23 C9          2.6360    3.0940   -4.7460 c3        1 4JR     -0.092400
     24 N4          3.2060    5.4360   -4.9010 n         1 4JR     -0.382000
     25 C12         3.4760    6.6730   -5.5050 ca        1 4JR      0.087600
     26 C14         3.7260    8.0160   -7.5240 ca        1 4JR     -0.092000
     27 C16         4.0320    9.0390   -5.3680 ca        1 4JR     -0.092000
     28 C18         4.2960   10.4340   -7.4120 cp        1 4JR     -0.029000
     29 C23         3.5640   10.8370   -8.5380 ca        1 4JR     -0.121500
     30 C19         5.3020   11.2770   -6.9150 ca        1 4JR     -0.121500
     31 H2          3.0800   -0.3740   -0.6250 h1        1 4JR      0.049200
     32 H3          1.7600   -0.5430   -1.8760 h1        1 4JR      0.049200
     33 H4          3.6000    0.8910   -3.1120 h1        1 4JR      0.031450
     34 H5          4.4810    1.1450   -1.5360 h1        1 4JR      0.031450
     35 H6          4.9040    2.9230   -3.2640 hc        1 4JR      0.067450
     36 H7          4.2600    3.5720   -1.6950 hc        1 4JR      0.067450
     37 H8          1.9690    4.4750   -6.3290 h1        1 4JR      0.051700
     38 H9          3.7380    4.0380   -6.4030 h1        1 4JR      0.051700
     39 H11         3.7860    7.7840   -3.6400 ha        1 4JR      0.151500
     40 H12         6.3600   13.1490   -7.1390 ha        1 4JR      0.130500
     41 H13         5.0470   13.8520   -9.1410 ha        1 4JR      0.131000
     42 H14         3.2520   12.3660  -10.0350 ha        1 4JR      0.130500
     43 H15         0.7080    3.9510   -3.0350 hc        1 4JR      0.067450
     44 H16         1.7370    4.1910   -1.5580 hc        1 4JR      0.067450
     45 H17        -0.6580    0.0920   -2.0940 h1        1 4JR      0.052033
     46 H18        -0.4740   -1.6810   -1.6950 h1        1 4JR      0.052033
     47 H19        -1.9770   -0.7810   -1.1720 h1        1 4JR      0.052033
     48 H20        -1.8920   -0.5870    1.3140 h4        1 4JR      0.175000
     49 H21         0.0820    0.1450    3.1630 h4        1 4JR      0.043100
     50 H22         0.4420    2.1310   -1.3160 h1        1 4JR      0.031450
     51 H23         0.9410    1.5450   -2.9700 h1        1 4JR      0.031450
     52 H24         1.5970    2.7030   -4.8750 hc        1 4JR      0.059700
     53 H25         3.3470    2.2600   -4.9650 hc        1 4JR      0.059700
     54 H26         3.7150    8.0820   -8.6230 ha        1 4JR      0.136500
     55 H27         4.2500    9.9250   -4.7510 ha        1 4JR      0.136500
     56 H28         2.7680   10.1880   -8.9320 ha        1 4JR      0.134000
     57 H29         5.8860   10.9680   -6.0350 ha        1 4JR      0.134000
     58 H10         3.2440    5.9290   -7.5570 ha        1 4JR      0.151500
@<TRIPOS>BOND
     1    1    3 1   
     2    1   16 1   
     3    1   17 1   
     4    2    4 1   
     5    2    5 1   
     6    2   20 1   
     7    3    4 1   
     8    3   19 2   
     9    4   31 1   
    10    4   32 1   
    11    5    6 1   
    12    5   33 1   
    13    5   34 1   
    14    6    7 1   
    15    6   35 1   
    16    6   36 1   
    17    7   15 1   
    18    7   21 1   
    19    7   23 1   
    20    8   23 1   
    21    8   24 1   
    22    8   37 1   
    23    8   38 1   
    24    9   25 ar  
    25    9   26 ar  
    26    9   58 1   
    27   10   26 ar  
    28   10   27 ar  
    29   10   28 1   
    30   11   25 ar  
    31   11   27 ar  
    32   11   39 1   
    33   12   13 ar  
    34   12   30 ar  
    35   12   40 1   
    36   13   14 ar  
    37   13   41 1   
    38   14   29 ar  
    39   14   42 1   
    40   15   20 1   
    41   15   43 1   
    42   15   44 1   
    43   16   45 1   
    44   16   46 1   
    45   16   47 1   
    46   17   18 2   
    47   17   48 1   
    48   18   19 1   
    49   18   49 1   
    50   20   50 1   
    51   20   51 1   
    52   21   22 2   
    53   21   24 1   
    54   23   52 1   
    55   23   53 1   
    56   24   25 1   
    57   26   54 1   
    58   27   55 1   
    59   28   29 ar  
    60   28   30 ar  
    61   29   56 1   
    62   30   57 1   
@<TRIPOS>SUBSTRUCTURE
     1 4JR         1 TEMP              0 ****  ****    0 ROOT
