@<TRIPOS>MOLECULE
4JS
   27    28     1     0     0
SMALL
bcc


@<TRIPOS>ATOM
      1 N1         -0.0110    0.2900   -0.0220 nb        1 4JS     -0.637000
      2 C11         1.4800   -0.3180   -2.3570 ca        1 4JS     -0.124000
      3 C5          1.3630    0.1500    0.0510 ca        1 4JS      0.366600
      4 C4         -0.5960    0.1360   -1.1890 ca        1 4JS      0.381200
      5 C3          0.1020   -0.1770   -2.4280 ca        1 4JS     -0.055700
      6 C6          2.0340    0.3110    1.3050 ca        1 4JS     -0.157300
      7 C1         -1.2620   -0.6900   -5.9510 c3        1 4JS     -0.151400
      8 C2         -0.1940   -0.6060   -4.8710 c         1 4JS      0.663100
      9 C9          3.5460   -0.2910   -0.9900 ca        1 4JS     -0.115000
     10 C8          4.1610   -0.1310    0.2280 ca        1 4JS     -0.122000
     11 C7          3.3970    0.1720    1.3800 ca        1 4JS     -0.133000
     12 O           1.0100   -0.7890   -5.1170 o         1 4JS     -0.583100
     13 C          -0.6520   -1.0180   -7.2900 c3        1 4JS     -0.088100
     14 N          -0.6600   -0.3110   -3.5930 n         1 4JS     -0.470100
     15 C10         2.1390   -0.1560   -1.1070 ca        1 4JS     -0.117300
     16 H1          2.0890   -0.5540   -3.2470 ha        1 4JS      0.179000
     17 H2         -1.6960    0.2580   -1.1920 h4        1 4JS      0.016100
     18 H3          1.4400    0.5470    2.2020 ha        1 4JS      0.148000
     19 H4         -1.8020    0.2930   -6.0090 hc        1 4JS      0.063700
     20 H5         -2.0090   -1.4780   -5.6680 hc        1 4JS      0.063700
     21 H6          4.1300   -0.5270   -1.8930 ha        1 4JS      0.139000
     22 H7          5.2520   -0.2350    0.3220 ha        1 4JS      0.134000
     23 H8          3.9150    0.2960    2.3430 ha        1 4JS      0.135000
     24 H9         -1.4510   -1.0740   -8.0670 hc        1 4JS      0.048700
     25 H10        -0.1180   -1.9980   -7.2460 hc        1 4JS      0.048700
     26 H11         0.0890   -0.2360   -7.5840 hc        1 4JS      0.048700
     27 H12        -1.6410   -0.1800   -3.4840 hn        1 4JS      0.316500
@<TRIPOS>BOND
     1    1    3 ar  
     2    1    4 ar  
     3    2    5 ar  
     4    2   15 ar  
     5    2   16 1   
     6    3    6 ar  
     7    3   15 ar  
     8    4    5 ar  
     9    4   17 1   
    10    5   14 1   
    11    6   11 ar  
    12    6   18 1   
    13    7    8 1   
    14    7   13 1   
    15    7   19 1   
    16    7   20 1   
    17    8   12 2   
    18    8   14 1   
    19    9   10 ar  
    20    9   15 ar  
    21    9   21 1   
    22   10   11 ar  
    23   10   22 1   
    24   11   23 1   
    25   13   24 1   
    26   13   25 1   
    27   13   26 1   
    28   14   27 1   
@<TRIPOS>SUBSTRUCTURE
     1 4JS         1 TEMP              0 ****  ****    0 ROOT
