@<TRIPOS>MOLECULE
4JS
   27    28     1     0     0
SMALL
bcc


@<TRIPOS>ATOM
      1 N1         -0.0140    0.2750   -0.0200 nb        1 4JS     -0.637000
      2 C11         1.4800   -0.3150   -2.3580 ca        1 4JS     -0.124000
      3 C5          1.3610    0.1430    0.0520 ca        1 4JS      0.366600
      4 C4         -0.5980    0.1210   -1.1870 ca        1 4JS      0.381200
      5 C3          0.1010   -0.1820   -2.4270 ca        1 4JS     -0.055700
      6 C6          2.0310    0.3050    1.3060 ca        1 4JS     -0.157300
      7 C1         -1.2600   -0.6920   -5.9520 c3        1 4JS     -0.151400
      8 C2         -0.1930   -0.6050   -4.8710 c         1 4JS      0.663100
      9 C9          3.5470   -0.2800   -0.9910 ca        1 4JS     -0.115000
     10 C8          4.1610   -0.1190    0.2270 ca        1 4JS     -0.122000
     11 C7          3.3960    0.1750    1.3800 ca        1 4JS     -0.133000
     12 O           1.0120   -0.7790   -5.1190 o         1 4JS     -0.583100
     13 C          -0.6490   -1.0120   -7.2920 c3        1 4JS     -0.088100
     14 N          -0.6600   -0.3180   -3.5920 ns        1 4JS     -0.470100
     15 C10         2.1380   -0.1530   -1.1070 ca        1 4JS     -0.117300
     16 H1          2.0900   -0.5440   -3.2480 ha        1 4JS      0.179000
     17 H2         -1.6990    0.2370   -1.1890 h4        1 4JS      0.016100
     18 H3          1.4370    0.5340    2.2040 ha        1 4JS      0.148000
     19 H4         -1.8070    0.2870   -6.0060 hc        1 4JS      0.063700
     20 H5         -2.0020   -1.4870   -5.6720 hc        1 4JS      0.063700
     21 H6          4.1320   -0.5090   -1.8950 ha        1 4JS      0.139000
     22 H7          5.2530   -0.2170    0.3210 ha        1 4JS      0.134000
     23 H8          3.9130    0.2980    2.3440 ha        1 4JS      0.135000
     24 H9         -0.1080   -1.9880   -7.2520 hc        1 4JS      0.048700
     25 H10        -1.4480   -1.0700   -8.0690 hc        1 4JS      0.048700
     26 H11         0.0870   -0.2240   -7.5840 hc        1 4JS      0.048700
     27 H12        -1.6420   -0.1930   -3.4820 hn        1 4JS      0.316500
@<TRIPOS>BOND
     1    1    3 ar  
     2    1    4 ar  
     3    2    5 ar  
     4    2   15 ar  
     5    2   16 1   
     6    3    6 ar  
     7    3   15 ar  
     8    4    5 ar  
     9    4   17 1   
    10    5   14 1   
    11    6   11 ar  
    12    6   18 1   
    13    7    8 1   
    14    7   13 1   
    15    7   19 1   
    16    7   20 1   
    17    8   12 2   
    18    8   14 1   
    19    9   10 ar  
    20    9   15 ar  
    21    9   21 1   
    22   10   11 ar  
    23   10   22 1   
    24   11   23 1   
    25   13   24 1   
    26   13   25 1   
    27   13   26 1   
    28   14   27 1   
@<TRIPOS>SUBSTRUCTURE
     1 4JS         1 TEMP              0 ****  ****    0 ROOT
