@<TRIPOS>MOLECULE
4JT
   20    21     1     0     0
SMALL
bcc


@<TRIPOS>ATOM
      1 C10         0.0130   -0.1130   -0.0630 ca        1 4JT     -0.137000
      2 C11         1.4120   -0.0570   -0.0300 ca        1 4JT     -0.042000
      3 C8         -0.7220   -0.0330    1.1090 ca        1 4JT     -0.026000
      4 C9          2.0800    0.0930    1.1790 ca        1 4JT     -0.122000
      5 C4         -0.0530    0.1110    2.3530 ca        1 4JT      0.057400
      6 C5          1.3660    0.1840    2.3800 ca        1 4JT     -0.017100
      7 C3         -0.3010    0.3910    4.6760 c2        1 4JT      0.408200
      8 C6          1.1010    0.7700    5.0320 c3        1 4JT     -0.136600
      9 N1         -0.8210    0.1340    3.5130 ne        1 4JT     -0.470100
     10 N7         -1.2300    0.3400    5.8410 nz        1 4JT     -0.789600
     11 S2          2.2660    0.3000    3.7920 ss        1 4JT     -0.003000
     12 H1         -0.5080   -0.2240   -1.0290 ha        1 4JT      0.167000
     13 H2          1.9860   -0.1270   -0.9700 ha        1 4JT      0.166000
     14 H3         -1.8240   -0.0790    1.0770 ha        1 4JT      0.165000
     15 H4          3.1830    0.1450    1.1980 ha        1 4JT      0.168000
     16 H5          1.1510    1.8800    5.1990 h1        1 4JT      0.104200
     17 H6          1.4580    0.2730    5.9730 h1        1 4JT      0.104200
     18 H7         -1.1930    1.2440    6.3240 hn        1 4JT      0.468467
     19 H8         -0.9150   -0.4010    6.4760 hn        1 4JT      0.468467
     20 H73        -2.1970    0.1480    5.5500 hn        1 4JT      0.468467
@<TRIPOS>BOND
     1    1    2 ar  
     2    1    3 ar  
     3    1   12 1   
     4    2    4 ar  
     5    2   13 1   
     6    3    5 ar  
     7    3   14 1   
     8    4    6 ar  
     9    4   15 1   
    10    5    6 ar  
    11    5    9 1   
    12    6   11 1   
    13    7    8 1   
    14    7    9 2   
    15    7   10 1   
    16    8   11 1   
    17    8   16 1   
    18    8   17 1   
    19   10   18 1   
    20   10   19 1   
    21   10   20 1   
@<TRIPOS>SUBSTRUCTURE
     1 4JT         1 TEMP              0 ****  ****    0 ROOT
