@<TRIPOS>MOLECULE
4JU
   24    24     1     0     0
SMALL
bcc


@<TRIPOS>ATOM
      1 N1         -0.0340    0.0420   -0.0240 nz        1 4JU     -0.844600
      2 C5          1.4730   -0.0310    0.0180 c3        1 4JU      0.119500
      3 C6          1.9810   -0.0160    1.4630 c3        1 4JU     -0.100400
      4 C4          1.9800   -1.2760   -0.7160 c3        1 4JU     -0.100400
      5 C3          3.4970   -1.2810   -0.7030 c3        1 4JU     -0.078400
      6 C2          4.0450   -1.2380    0.7150 c3        1 4JU     -0.071700
      7 C1          5.5580   -1.2030    0.6950 c3        1 4JU     -0.095100
      8 C7          3.4980   -0.0290    1.4600 c3        1 4JU     -0.078400
      9 H1         -0.3530    0.8910    0.4510 hn        1 4JU      0.457467
     10 H2         -0.4340   -0.7740    0.4480 hn        1 4JU      0.457467
     11 H4          1.8460    0.8950   -0.5180 hx        1 4JU      0.112700
     12 H5          1.6010   -0.9150    2.0160 hc        1 4JU      0.066200
     13 H6          1.6200    0.9030    1.9960 hc        1 4JU      0.066200
     14 H7          1.6190   -1.2800   -1.7780 hc        1 4JU      0.066200
     15 H8          1.6000   -2.2040   -0.2110 hc        1 4JU      0.066200
     16 H9          3.8570   -2.2120   -1.2150 hc        1 4JU      0.071700
     17 H10         3.8860   -0.4050   -1.2860 hc        1 4JU      0.071700
     18 H11         3.7140   -2.1700    1.2550 hc        1 4JU      0.060700
     19 H12         5.9270   -0.2900    0.1670 hc        1 4JU      0.051700
     20 H13         5.9580   -1.1960    1.7380 hc        1 4JU      0.051700
     21 H14         5.9570   -2.1030    0.1680 hc        1 4JU      0.051700
     22 H15         3.8580   -0.0500    2.5230 hc        1 4JU      0.071700
     23 H16         3.8860    0.9130    0.9910 hc        1 4JU      0.071700
     24 H131       -0.3530    0.0530   -0.9960 hn        1 4JU      0.457467
@<TRIPOS>BOND
     1    1    2 1   
     2    1    9 1   
     3    1   10 1   
     4    1   24 1   
     5    2    3 1   
     6    2    4 1   
     7    2   11 1   
     8    3    8 1   
     9    3   12 1   
    10    3   13 1   
    11    4    5 1   
    12    4   14 1   
    13    4   15 1   
    14    5    6 1   
    15    5   16 1   
    16    5   17 1   
    17    6    7 1   
    18    6    8 1   
    19    6   18 1   
    20    7   19 1   
    21    7   20 1   
    22    7   21 1   
    23    8   22 1   
    24    8   23 1   
@<TRIPOS>SUBSTRUCTURE
     1 4JU         1 TEMP              0 ****  ****    0 ROOT
