@<TRIPOS>MOLECULE
4JU
   24    24     1     0     0
SMALL
bcc


@<TRIPOS>ATOM
      1 N1         -0.0330    0.0430   -0.0360 n4        1 4JU     -0.844600
      2 C5          1.4740   -0.0300    0.0110 c3        1 4JU      0.119500
      3 C6          1.9770   -0.0140    1.4570 c3        1 4JU     -0.100400
      4 C4          1.9840   -1.2760   -0.7200 c3        1 4JU     -0.100400
      5 C3          3.5000   -1.2800   -0.7030 c3        1 4JU     -0.078400
      6 C2          4.0440   -1.2360    0.7170 c3        1 4JU     -0.071700
      7 C1          5.5570   -1.2010    0.7020 c3        1 4JU     -0.095100
      8 C7          3.4940   -0.0270    1.4590 c3        1 4JU     -0.078400
      9 H1         -0.3490    0.0530   -1.0090 hn        1 4JU      0.457467
     10 H2         -0.4340   -0.7730    0.4360 hn        1 4JU      0.457467
     11 H4          1.8480    0.8960   -0.5240 hx        1 4JU      0.112700
     12 H5          1.6140    0.9050    1.9890 hc        1 4JU      0.066200
     13 H6          1.5950   -0.9130    2.0090 hc        1 4JU      0.066200
     14 H7          1.6260   -1.2800   -1.7840 hc        1 4JU      0.066200
     15 H8          1.6020   -2.2030   -0.2160 hc        1 4JU      0.066200
     16 H9          3.8910   -0.4040   -1.2860 hc        1 4JU      0.071700
     17 H10         3.8620   -2.2120   -1.2140 hc        1 4JU      0.071700
     18 H11         3.7120   -2.1680    1.2560 hc        1 4JU      0.060700
     19 H12         5.9530   -1.1930    1.7460 hc        1 4JU      0.051700
     20 H13         5.9280   -0.2890    0.1750 hc        1 4JU      0.051700
     21 H14         5.9580   -2.1010    0.1760 hc        1 4JU      0.051700
     22 H15         3.8510   -0.0470    2.5230 hc        1 4JU      0.071700
     23 H16         3.8840    0.9150    0.9910 hc        1 4JU      0.071700
     24 H131       -0.3540    0.8920    0.4370 hn        1 4JU      0.457467
@<TRIPOS>BOND
     1    1    2 1   
     2    1    9 1   
     3    1   10 1   
     4    1   24 1   
     5    2    3 1   
     6    2    4 1   
     7    2   11 1   
     8    3    8 1   
     9    3   12 1   
    10    3   13 1   
    11    4    5 1   
    12    4   14 1   
    13    4   15 1   
    14    5    6 1   
    15    5   16 1   
    16    5   17 1   
    17    6    7 1   
    18    6    8 1   
    19    6   18 1   
    20    7   19 1   
    21    7   20 1   
    22    7   21 1   
    23    8   22 1   
    24    8   23 1   
@<TRIPOS>SUBSTRUCTURE
     1 4JU         1 TEMP              0 ****  ****    0 ROOT
