@<TRIPOS>MOLECULE
4JV
   37    39     1     0     0
SMALL
bcc


@<TRIPOS>ATOM
      1 C11         0.0500    0.3080   -0.1240 ca        1 4JV     -0.066000
      2 C18        -4.0370    1.1640    6.5250 ca        1 4JV     -0.131500
      3 C19        -2.9300   -0.9430    6.9350 ca        1 4JV     -0.131500
      4 C16        -3.5740    1.1540    5.2120 ca        1 4JV     -0.113500
      5 C17        -2.4700   -0.9570    5.6210 ca        1 4JV     -0.113500
      6 C5          1.4130    0.2960    0.0110 ca        1 4JV     -0.227300
      7 C8         -0.7890    0.0580    0.9790 ca        1 4JV     -0.244000
      8 C1          1.1750   -0.1540    2.4320 ca        1 4JV     -0.355600
      9 C20        -3.7200    0.1160    7.3990 ca        1 4JV     -0.068300
     10 C15        -2.7910    0.0900    4.7510 ca        1 4JV     -0.108300
     11 C2          2.0180    0.0460    1.2880 ca        1 4JV      0.508600
     12 C3         -0.2330   -0.1780    2.2250 ca        1 4JV      0.182100
     13 C4          1.8730   -0.3090    3.7100 ca        1 4JV      0.767200
     14 C12         3.9350   -0.2450    2.5810 ca        1 4JV      0.917900
     15 C13        -2.3350    0.0740    3.3300 c3        1 4JV      0.179700
     16 N6          3.3850    0.0130    1.3550 nb        1 4JV     -0.807000
     17 N9          3.2270   -0.3760    3.7760 nb        1 4JV     -0.851000
     18 N10         1.1970   -0.3340    4.9040 nh        1 4JV     -0.960500
     19 N14         5.3210   -0.4400    2.6520 nh        1 4JV     -0.926500
     20 O7         -1.0300   -0.5310    3.3000 os        1 4JV     -0.360900
     21 H1         -0.4100    0.5010   -1.1060 ha        1 4JV      0.134000
     22 H2         -4.6530    2.0030    6.8810 ha        1 4JV      0.135000
     23 H3         -2.6740   -1.7700    7.6140 ha        1 4JV      0.135000
     24 H4         -3.8240    1.9860    4.5370 ha        1 4JV      0.138500
     25 H5         -1.8520   -1.7930    5.2570 ha        1 4JV      0.138500
     26 H6          2.0670    0.4740   -0.8570 ha        1 4JV      0.153000
     27 H7         -1.8780    0.0370    0.8330 ha        1 4JV      0.138000
     28 H8         -4.3240    1.1680    9.1750 hc        1 4JV      0.046700
     29 H9         -3.5400   -0.4410    9.4690 hc        1 4JV      0.046700
     30 H10        -5.2340   -0.3610    8.8310 hc        1 4JV      0.046700
     31 H11        -3.0210   -0.5650    2.7090 h1        1 4JV      0.055700
     32 H12        -2.2950    1.1100    2.9030 h1        1 4JV      0.055700
     33 H13         0.2080   -0.4090    4.9130 hn        1 4JV      0.447300
     34 H14         1.6910   -0.5110    5.7450 hn        1 4JV      0.447300
     35 H15         5.8530   -0.0960    1.8870 hn        1 4JV      0.423800
     36 H16         5.7360   -0.3480    3.5500 hn        1 4JV      0.423800
     37 C21        -4.2250    0.1230    8.7900 c3        1 4JV     -0.056800
@<TRIPOS>BOND
     1    1    6 ar  
     2    1    7 ar  
     3    1   21 1   
     4    2    4 ar  
     5    2    9 ar  
     6    2   22 1   
     7    3    5 ar  
     8    3    9 ar  
     9    3   23 1   
    10    4   10 ar  
    11    4   24 1   
    12    5   10 ar  
    13    5   25 1   
    14    6   11 ar  
    15    6   26 1   
    16    7   12 ar  
    17    7   27 1   
    18    8   11 ar  
    19    8   12 ar  
    20    8   13 ar  
    21    9   37 1   
    22   10   15 1   
    23   11   16 ar  
    24   12   20 1   
    25   13   17 ar  
    26   13   18 1   
    27   14   16 ar  
    28   14   17 ar  
    29   14   19 1   
    30   15   20 1   
    31   15   31 1   
    32   15   32 1   
    33   18   33 1   
    34   18   34 1   
    35   19   35 1   
    36   19   36 1   
    37   28   37 1   
    38   29   37 1   
    39   30   37 1   
@<TRIPOS>SUBSTRUCTURE
     1 4JV         1 TEMP              0 ****  ****    0 ROOT
