@<TRIPOS>MOLECULE
4JV
   37    43     1     0     0
SMALL
bcc


@<TRIPOS>ATOM
      1 C11         0.0000    0.0000    0.0000 c3        1 4JV      0.452000
      2 C18        -3.6470    1.1960    6.7290 c3        1 4JV     -0.210000
      3 C19        -3.6360   -1.1980    6.7340 c2        1 4JV     -0.294000
      4 C16        -3.0860    1.1960    5.4660 c2        1 4JV      0.499000
      5 C17        -3.0870   -1.1980    5.4640 c2        1 4JV     -0.176000
      6 C5          1.3640    0.0000    0.0000 c2        1 4JV     -0.240000
      7 C8         -0.7180   -0.0010    1.1890 c2        1 4JV      0.230000
      8 C1          1.3390   -0.0010    2.4320 c2        1 4JV     -0.296000
      9 C20        -3.9210   -0.0010    7.3630 c2        1 4JV      0.454000
     10 C15        -2.8060   -0.0010    4.8330 c3        1 4JV      0.391000
     11 C2          2.0620    0.0000    1.2140 c2        1 4JV      0.126000
     12 C3         -0.0640   -0.0010    2.4060 c2        1 4JV      0.140000
     13 C4          2.0660   -0.0020    3.6450 c2        1 4JV      0.070000
     14 C12         4.0310   -0.0020    2.4190 c3        1 4JV      0.132000
     15 C13        -2.1970   -0.0010    3.4560 c3        1 4JV      0.039000
     16 N6          3.4030   -0.0010    1.2600 n2        1 4JV     -0.140000
     17 N9          3.3900   -0.0020    3.5850 n2        1 4JV     -0.254000
     18 N10         1.4160   -0.0020    4.8600 n8        1 4JV      0.045000
     19 N14         5.4140   -0.0020    2.4230 n8        1 4JV     -0.187000
     20 O7         -0.7720   -0.0010    3.5650 os        1 4JV     -0.225000
     21 H1         -0.4530    0.0000    0.9840 hc        1 4JV     -0.401000
     22 H2         -3.2520    1.0130    5.7370 hc        1 4JV     -0.517000
     23 H3         -3.7110   -0.1290    6.8910 ha        1 4JV     -0.094000
     24 H4         -3.3020    0.2580    5.9620 DU        1 4JV     -0.029000
     25 H5         -3.0160   -0.1290    5.3050 ha        1 4JV     -0.200000
     26 H6          0.6970   -0.3380    0.7840 DU        1 4JV      0.197000
     27 H7          0.1230   -0.0000    0.5070 ha        1 4JV     -0.299000
     28 H8         -4.2720   -0.0010    7.6890 hc        1 4JV      0.103000
     29 H9         -4.6930   -0.9240    9.2850 hc        1 4JV      0.103000
     30 H10        -4.7000    0.9230    9.2810 hc        1 4JV      0.103000
     31 H11        -2.3660    0.0000    4.5250 h1        1 4JV      0.072000
     32 H12        -2.5180   -0.8850    2.9190 h1        1 4JV      0.072000
     33 H13         0.5360    0.1970    4.4260 hn        1 4JV      0.109500
     34 H14         1.7000   -0.6370    5.5800 hn        1 4JV      0.109500
     35 H15         4.5460    0.1220    2.9050 DU        1 4JV      0.151000
     36 H16         5.9150    0.8520    2.2790 hn        1 4JV      0.109000
     37 C21        -4.5320   -0.0010    8.7410 c3        1 4JV     -0.140000
@<TRIPOS>BOND
     1    1    6 1   
     2    1    7 1   
     3    1   21 1   
     4    1   26 1   
     5    2    4 1   
     6    2    9 1   
     7    2   22 1   
     8    2   24 1   
     9    3    5 1   
    10    3    9 1   
    11    3   23 1   
    12    4   10 1   
    13    4   24 1   
    14    5   10 1   
    15    5   25 1   
    16    6   11 1   
    17    6   26 1   
    18    7   12 1   
    19    7   27 1   
    20    8   11 1   
    21    8   12 1   
    22    8   13 1   
    23    9   37 1   
    24   10   15 1   
    25   10   24 1   
    26   11   16 1   
    27   12   20 1   
    28   13   17 1   
    29   13   18 1   
    30   14   16 1   
    31   14   17 1   
    32   14   19 1   
    33   14   35 1   
    34   15   20 1   
    35   15   31 1   
    36   15   32 1   
    37   18   33 1   
    38   18   34 1   
    39   19   35 1   
    40   19   36 1   
    41   28   37 1   
    42   29   37 1   
    43   30   37 1   
@<TRIPOS>SUBSTRUCTURE
     1 4JV         1 TEMP              0 ****  ****    0 ROOT
