@<TRIPOS>MOLECULE
4JW
   35    37     1     0     0
SMALL
bcc


@<TRIPOS>ATOM
      1 C20         0.0040    0.1150   -0.0690 ca        1 4JW     -0.140000
      2 C18         1.2260    0.7610    0.1090 ca        1 4JW     -0.116000
      3 C19        -0.5430   -0.6200    0.9810 ca        1 4JW     -0.116000
      4 C17         2.6070    0.5060   11.0210 ca        1 4JW     -0.133000
      5 C16         1.8810    1.6070   10.5600 ca        1 4JW     -0.128000
      6 C15         1.9020    0.6770    1.3220 ca        1 4JW     -0.140500
      7 C14         0.1210   -0.7240    2.2000 ca        1 4JW     -0.140500
      8 C13         3.0020   -0.5030   10.1460 ca        1 4JW     -0.116000
      9 C12         1.5480    1.7290    9.2130 ca        1 4JW     -0.117000
     10 C10         1.3610   -0.0780    2.3860 ca        1 4JW      0.050600
     11 C8          2.6670   -0.3910    8.7910 ca        1 4JW      0.046100
     12 C6          1.9500    0.7240    8.3240 ca        1 4JW      0.059100
     13 C1          1.4140   -0.0570    4.8360 c         1 4JW      0.668100
     14 C7          2.3700   -1.4220    6.7050 c3        1 4JW      0.097400
     15 C2          2.2720   -0.0180    6.1080 c3        1 4JW      0.036100
     16 C11         3.5060   -0.2460    3.5420 c3        1 4JW      0.077300
     17 N4          2.0710   -0.1960    3.6130 n         1 4JW     -0.389000
     18 O9          0.1770   -0.0090    4.9200 o         1 4JW     -0.549100
     19 O5          3.1000   -1.3930    7.9330 os        1 4JW     -0.313900
     20 O3          1.5820    0.8770    6.9950 os        1 4JW     -0.290900
     21 H1         -0.5260    0.1890   -1.0290 ha        1 4JW      0.134000
     22 H2          1.6610    1.3510   -0.7120 ha        1 4JW      0.134500
     23 H3         -1.5120   -1.1260    0.8510 ha        1 4JW      0.134500
     24 H5          1.5700    2.3910   11.2660 ha        1 4JW      0.138000
     25 H6          2.8580    1.2090    1.4420 ha        1 4JW      0.144500
     26 H7         -0.3390   -1.2930    3.0240 ha        1 4JW      0.144500
     27 H8          3.5690   -1.3770   10.4950 ha        1 4JW      0.151000
     28 H9          0.9760    2.5890    8.8370 ha        1 4JW      0.155000
     29 H10         2.9650   -2.1080    6.0490 h1        1 4JW      0.080700
     30 H11         1.3430   -1.8350    6.8910 h1        1 4JW      0.080700
     31 H12         3.2970    0.4140    5.9360 h1        1 4JW      0.079700
     32 H13         3.9010   -0.9690    4.3070 h1        1 4JW      0.046033
     33 H14         3.8250   -0.6040    2.5270 h1        1 4JW      0.046033
     34 H15         3.9590    0.7660    3.7260 h1        1 4JW      0.046033
     35 H4          2.8660    0.4290   12.0870 ha        1 4JW      0.137000
@<TRIPOS>BOND
     1    1    2 ar  
     2    1    3 ar  
     3    1   21 1   
     4    2    6 ar  
     5    2   22 1   
     6    3    7 ar  
     7    3   23 1   
     8    4    5 ar  
     9    4    8 ar  
    10    4   35 1   
    11    5    9 ar  
    12    5   24 1   
    13    6   10 ar  
    14    6   25 1   
    15    7   10 ar  
    16    7   26 1   
    17    8   11 ar  
    18    8   27 1   
    19    9   12 ar  
    20    9   28 1   
    21   10   17 1   
    22   11   12 ar  
    23   11   19 1   
    24   12   20 1   
    25   13   15 1   
    26   13   17 1   
    27   13   18 2   
    28   14   15 1   
    29   14   19 1   
    30   14   29 1   
    31   14   30 1   
    32   15   20 1   
    33   15   31 1   
    34   16   17 1   
    35   16   32 1   
    36   16   33 1   
    37   16   34 1   
@<TRIPOS>SUBSTRUCTURE
     1 4JW         1 TEMP              0 ****  ****    0 ROOT
