@<TRIPOS>MOLECULE
4JW
   35    37     1     0     0
SMALL
bcc


@<TRIPOS>ATOM
      1 C20         0.0230    0.0780   -0.0760 ca        1 4JW     -0.140000
      2 C18         1.2440    0.7270    0.1020 ca        1 4JW     -0.116000
      3 C19        -0.5280   -0.6500    0.9760 ca        1 4JW     -0.116000
      4 C17         2.5860    0.5430   11.0210 ca        1 4JW     -0.133000
      5 C16         1.8610    1.6400   10.5500 ca        1 4JW     -0.128000
      6 C15         1.9160    0.6510    1.3180 ca        1 4JW     -0.140500
      7 C14         0.1330   -0.7460    2.1990 ca        1 4JW     -0.140500
      8 C13         2.9860   -0.4710   10.1530 ca        1 4JW     -0.116000
      9 C12         1.5310    1.7530    9.2020 ca        1 4JW     -0.117000
     10 C10         1.3710   -0.0970    2.3850 ca        1 4JW      0.050600
     11 C8          2.6550   -0.3680    8.7970 ca        1 4JW      0.046100
     12 C6          1.9380    0.7430    8.3200 ca        1 4JW      0.059100
     13 C1          1.4160   -0.0600    4.8350 c         1 4JW      0.668100
     14 C7          2.3670   -1.4120    6.7160 c3        1 4JW      0.097400
     15 C2          2.2690   -0.0120    6.1100 c3        1 4JW      0.036100
     16 C11         3.5130   -0.2550    3.5500 c3        1 4JW      0.077300
     17 N4          2.0770   -0.2060    3.6150 n         1 4JW     -0.389000
     18 O9          0.1790   -0.0120    4.9140 o         1 4JW     -0.549100
     19 O5          3.0920   -1.3750    7.9470 os        1 4JW     -0.313900
     20 O3          1.5750    0.8880    6.9890 os        1 4JW     -0.290900
     21 H1         -0.5030    0.1450   -1.0380 ha        1 4JW      0.134000
     22 H2          1.6810    1.3120   -0.7220 ha        1 4JW      0.134500
     23 H3         -1.4960   -1.1580    0.8470 ha        1 4JW      0.134500
     24 H5          1.5450    2.4280   11.2510 ha        1 4JW      0.138000
     25 H6          2.8710    1.1850    1.4380 ha        1 4JW      0.144500
     26 H7         -0.3290   -1.3090    3.0250 ha        1 4JW      0.144500
     27 H8          3.5520   -1.3420   10.5100 ha        1 4JW      0.151000
     28 H9          0.9600    2.6100    8.8180 ha        1 4JW      0.155000
     29 H10         2.9650   -2.1020    6.0660 h1        1 4JW      0.080700
     30 H11         1.3400   -1.8250    6.9000 h1        1 4JW      0.080700
     31 H12         3.2940    0.4210    5.9390 h1        1 4JW      0.079700
     32 H13         3.8360   -0.6200    2.5390 h1        1 4JW      0.046033
     33 H14         3.9640    0.7580    3.7290 h1        1 4JW      0.046033
     34 H15         3.9050   -0.9730    4.3210 h1        1 4JW      0.046033
     35 H4          2.8410    0.4730   12.0880 ha        1 4JW      0.137000
@<TRIPOS>BOND
     1    1    2 ar  
     2    1    3 ar  
     3    1   21 1   
     4    2    6 ar  
     5    2   22 1   
     6    3    7 ar  
     7    3   23 1   
     8    4    5 ar  
     9    4    8 ar  
    10    4   35 1   
    11    5    9 ar  
    12    5   24 1   
    13    6   10 ar  
    14    6   25 1   
    15    7   10 ar  
    16    7   26 1   
    17    8   11 ar  
    18    8   27 1   
    19    9   12 ar  
    20    9   28 1   
    21   10   17 1   
    22   11   12 ar  
    23   11   19 1   
    24   12   20 1   
    25   13   15 1   
    26   13   17 1   
    27   13   18 2   
    28   14   15 1   
    29   14   19 1   
    30   14   29 1   
    31   14   30 1   
    32   15   20 1   
    33   15   31 1   
    34   16   17 1   
    35   16   32 1   
    36   16   33 1   
    37   16   34 1   
@<TRIPOS>SUBSTRUCTURE
     1 4JW         1 TEMP              0 ****  ****    0 ROOT
