@<TRIPOS>MOLECULE
4JY
   67    70     1     0     0
SMALL
bcc


@<TRIPOS>ATOM
      1 C13        -0.0630    0.6010    0.2620 ca        1 4JY     -0.369900
      2 C16        -0.8150    1.0140   -0.9250 ce        1 4JY      0.618800
      3 C15         0.0370    0.1640    2.6380 ca        1 4JY     -0.215500
      4 C22         3.7670   -6.7120    4.0870 c3        1 4JY      0.127400
      5 C23         2.7730   -7.6370    4.7500 c3        1 4JY     -0.102100
      6 C24         7.8230   -4.6230    1.9030 c3        1 4JY      0.141100
      7 C11         2.0530   -0.0130    1.2650 ca        1 4JY     -0.215500
      8 C12         1.3120    0.3400    0.1550 ca        1 4JY     -0.031500
      9 C34         3.4010    1.8630   11.1230 ca        1 4JY     -0.120000
     10 C33         2.5150    1.0430   10.4250 ca        1 4JY     -0.130500
     11 N1          2.1240   -0.4570    3.6800 nu        1 4JY     -0.729600
     12 C2          3.5650   -0.5530    3.7530 c3        1 4JY      0.265500
     13 C3          4.1010   -1.9520    3.5120 ca        1 4JY     -0.089300
     14 C4          4.0990   -0.0660    5.0860 cc        1 4JY      0.348800
     15 C5          5.3510   -2.0860    2.8700 ca        1 4JY      0.029900
     16 C6          5.8930   -3.3780    2.6420 ca        1 4JY      0.160100
     17 C7          5.1940   -4.5170    3.0550 ca        1 4JY     -0.258000
     18 C8          3.9630   -4.3610    3.7010 ca        1 4JY      0.168100
     19 C9          3.4160   -3.0830    3.9350 ca        1 4JY     -0.154000
     20 C10         1.4420   -0.1050    2.5510 ca        1 4JY      0.273600
     21 C14        -0.6870    0.5090    1.5170 ca        1 4JY     -0.031500
     22 O17         7.1030   -3.3730    1.9970 os        1 4JY     -0.318900
     23 N18        -1.9010    0.0150   -1.2630 nz        1 4JY     -0.829600
     24 N19        -0.7150    2.0180   -1.7090 n2        1 4JY     -0.733100
     25 F20         6.0430   -0.9880    2.4730 f         1 4JY     -0.140900
     26 O21         3.1780   -5.4020    4.1390 os        1 4JY     -0.325900
     27 C25         7.3470   -5.4040    0.6950 c3        1 4JY     -0.113100
     28 C26         9.2800   -4.2180    1.7640 c3        1 4JY     -0.113100
     29 N27         5.4730    0.1420    5.2870 na        1 4JY     -0.290900
     30 C28         5.6250    0.5850    6.5930 cc        1 4JY     -0.219600
     31 C29         4.3240    0.6410    7.1570 cd        1 4JY      0.367800
     32 N30         3.3860    0.2280    6.2020 nd        1 4JY     -0.660000
     33 C31         3.9950    1.0580    8.5070 ca        1 4JY     -0.115500
     34 C32         2.8070    0.6400    9.1230 ca        1 4JY     -0.113000
     35 C35         4.5830    2.2840   10.5140 ca        1 4JY     -0.130500
     36 C36         4.8810    1.8870    9.2130 ca        1 4JY     -0.113000
     37 H44        -0.4700    0.1100    3.6160 ha        1 4JY      0.163000
     38 H49         3.9340   -6.9940    3.0140 h1        1 4JY      0.042700
     39 H48         4.7460   -6.7040    4.6350 h1        1 4JY      0.042700
     40 H51         2.5990   -7.3300    5.8090 hc        1 4JY      0.055033
     41 H52         3.1770   -8.6770    4.7310 hc        1 4JY      0.055033
     42 H50         1.7960   -7.6120    4.2120 hc        1 4JY      0.055033
     43 H53         7.6790   -5.2150    2.8490 h1        1 4JY      0.052700
     44 H41         3.1260   -0.2330    1.1410 ha        1 4JY      0.163000
     45 H42         1.8120    0.4130   -0.8250 ha        1 4JY      0.135500
     46 H64         3.1680    2.1790   12.1510 ha        1 4JY      0.137000
     47 H63         1.5820    0.7100   10.9030 ha        1 4JY      0.135500
     48 H37         1.6180   -0.5190    4.5380 hn        1 4JY      0.472800
     49 H38         4.0060    0.1320    2.9560 h1        1 4JY      0.085700
     50 H39         5.6070   -5.5180    2.8700 ha        1 4JY      0.159000
     51 H40         2.4550   -3.0110    4.4660 ha        1 4JY      0.162000
     52 H43        -1.7580    0.7420    1.6240 ha        1 4JY      0.135500
     53 H45        -2.4970    0.3290   -2.0370 hn        1 4JY      0.464800
     54 H47        -0.0190    2.7050   -1.5030 hn        1 4JY      0.485400
     55 H56         6.2570   -5.6330    0.7750 hc        1 4JY      0.053033
     56 H55         7.9160   -6.3610    0.6210 hc        1 4JY      0.053033
     57 H54         7.5130   -4.8120   -0.2370 hc        1 4JY      0.053033
     58 H57         9.9040   -5.1360    1.6510 hc        1 4JY      0.053033
     59 H59         9.6130   -3.6540    2.6680 hc        1 4JY      0.053033
     60 H58         9.4190   -3.5660    0.8690 hc        1 4JY      0.053033
     61 H60         6.1900   -0.0360    4.6290 hn        1 4JY      0.318700
     62 H61         6.5970    0.8170    7.0250 h4        1 4JY      0.191000
     63 H62         2.1030   -0.0090    8.5820 ha        1 4JY      0.135000
     64 H65         5.2830    2.9330   11.0620 ha        1 4JY      0.135500
     65 H66         5.8110    2.2280    8.7360 ha        1 4JY      0.135000
     66 H3         -1.4480   -0.8690   -1.5150 hn        1 4JY      0.464800
     67 H183       -2.4700   -0.1290   -0.4230 hn        1 4JY      0.464800
@<TRIPOS>BOND
     1    1    2 1   
     2    1    8 ar  
     3    1   21 ar  
     4    2   23 1   
     5    2   24 2   
     6    3   20 ar  
     7    3   21 ar  
     8    3   37 1   
     9    4    5 1   
    10    4   26 1   
    11    4   38 1   
    12    4   39 1   
    13    5   40 1   
    14    5   41 1   
    15    5   42 1   
    16    6   22 1   
    17    6   27 1   
    18    6   28 1   
    19    6   43 1   
    20    7    8 ar  
    21    7   20 ar  
    22    7   44 1   
    23    8   45 1   
    24    9   10 ar  
    25    9   35 ar  
    26    9   46 1   
    27   10   34 ar  
    28   10   47 1   
    29   11   12 1   
    30   11   20 1   
    31   11   48 1   
    32   12   13 1   
    33   12   14 1   
    34   12   49 1   
    35   13   15 ar  
    36   13   19 ar  
    37   14   29 1   
    38   14   32 2   
    39   15   16 ar  
    40   15   25 1   
    41   16   17 ar  
    42   16   22 1   
    43   17   18 ar  
    44   17   50 1   
    45   18   19 ar  
    46   18   26 1   
    47   19   51 1   
    48   21   52 1   
    49   23   53 1   
    50   23   66 1   
    51   23   67 1   
    52   24   54 1   
    53   27   55 1   
    54   27   56 1   
    55   27   57 1   
    56   28   58 1   
    57   28   59 1   
    58   28   60 1   
    59   29   30 1   
    60   29   61 1   
    61   30   31 2   
    62   30   62 1   
    63   31   32 1   
    64   31   33 1   
    65   33   34 ar  
    66   33   36 ar  
    67   34   63 1   
    68   35   36 ar  
    69   35   64 1   
    70   36   65 1   
@<TRIPOS>SUBSTRUCTURE
     1 4JY         1 TEMP              0 ****  ****    0 ROOT
