@<TRIPOS>MOLECULE
4JY
   67    70     1     0     0
SMALL
bcc


@<TRIPOS>ATOM
      1 C13        -0.0820    0.5850    0.2730 ca        1 4JY     -0.369900
      2 C16        -0.8390    1.0000   -0.9110 ce        1 4JY      0.618800
      3 C15         0.0240    0.1340    2.6470 ca        1 4JY     -0.215500
      4 C22         3.8130   -6.7190    4.0790 c3        1 4JY      0.127400
      5 C23         2.8270   -7.6530    4.7410 c3        1 4JY     -0.102100
      6 C24         7.8490   -4.5930    1.8950 c3        1 4JY      0.141100
      7 C11         2.0390   -0.0190    1.2700 ca        1 4JY     -0.215500
      8 C12         1.2940    0.3340    0.1620 ca        1 4JY     -0.031500
      9 C34         3.3790    1.8550   11.1230 ca        1 4JY     -0.120000
     10 C33         2.4990    1.0290   10.4250 ca        1 4JY     -0.130500
     11 N1          2.1170   -0.4780    3.6810 nh        1 4JY     -0.729600
     12 C2          3.5590   -0.5610    3.7530 c3        1 4JY      0.265500
     13 C3          4.1070   -1.9550    3.5100 ca        1 4JY     -0.089300
     14 C4          4.0900   -0.0710    5.0860 cc        1 4JY      0.348800
     15 C5          5.3570   -2.0780    2.8670 ca        1 4JY      0.029900
     16 C6          5.9100   -3.3650    2.6380 ca        1 4JY      0.160100
     17 C7          5.2210   -4.5110    3.0500 ca        1 4JY     -0.258000
     18 C8          3.9890   -4.3650    3.6960 ca        1 4JY      0.168100
     19 C9          3.4310   -3.0930    3.9330 ca        1 4JY     -0.154000
     20 C10         1.4310   -0.1240    2.5560 ca        1 4JY      0.273600
     21 C14        -0.7040    0.4800    1.5290 ca        1 4JY     -0.031500
     22 O17         7.1190   -3.3490    1.9920 os        1 4JY     -0.318900
     23 N18        -1.9180   -0.0060   -1.2530 n4        1 4JY     -0.829600
     24 N19        -0.7470    2.0090   -1.6880 n2        1 4JY     -0.733100
     25 F20         6.0400   -0.9740    2.4710 f         1 4JY     -0.140900
     26 O21         3.2140   -5.4130    4.1340 os        1 4JY     -0.325900
     27 C25         7.3780   -5.3750    0.6850 c3        1 4JY     -0.113100
     28 C26         9.3030   -4.1760    1.7540 c3        1 4JY     -0.113100
     29 N27         5.4630    0.1470    5.2870 na        1 4JY     -0.290900
     30 C28         5.6110    0.5910    6.5930 cc        1 4JY     -0.219600
     31 C29         4.3100    0.6380    7.1570 cd        1 4JY      0.367800
     32 N30         3.3750    0.2190    6.2020 nd        1 4JY     -0.660000
     33 C31         3.9790    1.0530    8.5070 ca        1 4JY     -0.115500
     34 C32         2.7930    0.6270    9.1230 ca        1 4JY     -0.113000
     35 C35         4.5590    2.2840   10.5140 ca        1 4JY     -0.130500
     36 C36         4.8590    1.8880    9.2130 ca        1 4JY     -0.113000
     37 H44        -0.4810    0.0710    3.6240 ha        1 4JY      0.163000
     38 H49         3.9820   -6.9970    3.0050 h1        1 4JY      0.042700
     39 H48         4.7920   -6.7050    4.6260 h1        1 4JY      0.042700
     40 H51         3.2400   -8.6900    4.7190 hc        1 4JY      0.055033
     41 H52         2.6520   -7.3500    5.8010 hc        1 4JY      0.055033
     42 H50         1.8490   -7.6360    4.2030 hc        1 4JY      0.055033
     43 H53         7.7120   -5.1880    2.8390 h1        1 4JY      0.052700
     44 H41         3.1130   -0.2320    1.1430 ha        1 4JY      0.163000
     45 H42         1.7920    0.4160   -0.8180 ha        1 4JY      0.135500
     46 H64         3.1440    2.1690   12.1510 ha        1 4JY      0.137000
     47 H63         1.5690    0.6890   10.9040 ha        1 4JY      0.135500
     48 H37         1.6120   -0.5470    4.5400 hn        1 4JY      0.472800
     49 H38         3.9930    0.1280    2.9570 h1        1 4JY      0.085700
     50 H39         5.6430   -5.5080    2.8630 ha        1 4JY      0.159000
     51 H40         2.4710   -3.0300    4.4640 ha        1 4JY      0.162000
     52 H43        -1.7770    0.7050    1.6380 ha        1 4JY      0.135500
     53 H45        -2.5180    0.3090   -2.0230 hn        1 4JY      0.464800
     54 H47        -0.0560    2.7000   -1.4800 hn        1 4JY      0.485400
     55 H56         6.2900   -5.6130    0.7670 hc        1 4JY      0.053033
     56 H55         7.5380   -4.7800   -0.2460 hc        1 4JY      0.053033
     57 H54         7.9540   -6.3280    0.6090 hc        1 4JY      0.053033
     58 H57         9.9340   -5.0880    1.6380 hc        1 4JY      0.053033
     59 H59         9.4350   -3.5210    0.8600 hc        1 4JY      0.053033
     60 H58         9.6320   -3.6110    2.6580 hc        1 4JY      0.053033
     61 H60         6.1800   -0.0260    4.6290 hn        1 4JY      0.318700
     62 H61         6.5820    0.8300    7.0250 h4        1 4JY      0.191000
     63 H62         2.0940   -0.0270    8.5830 ha        1 4JY      0.135000
     64 H65         5.2540    2.9380   11.0610 ha        1 4JY      0.135500
     65 H66         5.7870    2.2350    8.7360 ha        1 4JY      0.135000
     66 H3         -2.4840   -0.1590   -0.4130 hn        1 4JY      0.464800
     67 H183       -1.4600   -0.8850   -1.5120 hn        1 4JY      0.464800
@<TRIPOS>BOND
     1    1    2 1   
     2    1    8 ar  
     3    1   21 ar  
     4    2   23 1   
     5    2   24 2   
     6    3   20 ar  
     7    3   21 ar  
     8    3   37 1   
     9    4    5 1   
    10    4   26 1   
    11    4   38 1   
    12    4   39 1   
    13    5   40 1   
    14    5   41 1   
    15    5   42 1   
    16    6   22 1   
    17    6   27 1   
    18    6   28 1   
    19    6   43 1   
    20    7    8 ar  
    21    7   20 ar  
    22    7   44 1   
    23    8   45 1   
    24    9   10 ar  
    25    9   35 ar  
    26    9   46 1   
    27   10   34 ar  
    28   10   47 1   
    29   11   12 1   
    30   11   20 1   
    31   11   48 1   
    32   12   13 1   
    33   12   14 1   
    34   12   49 1   
    35   13   15 ar  
    36   13   19 ar  
    37   14   29 1   
    38   14   32 2   
    39   15   16 ar  
    40   15   25 1   
    41   16   17 ar  
    42   16   22 1   
    43   17   18 ar  
    44   17   50 1   
    45   18   19 ar  
    46   18   26 1   
    47   19   51 1   
    48   21   52 1   
    49   23   53 1   
    50   23   66 1   
    51   23   67 1   
    52   24   54 1   
    53   27   55 1   
    54   27   56 1   
    55   27   57 1   
    56   28   58 1   
    57   28   59 1   
    58   28   60 1   
    59   29   30 1   
    60   29   61 1   
    61   30   31 2   
    62   30   62 1   
    63   31   32 1   
    64   31   33 1   
    65   33   34 ar  
    66   33   36 ar  
    67   34   63 1   
    68   35   36 ar  
    69   35   64 1   
    70   36   65 1   
@<TRIPOS>SUBSTRUCTURE
     1 4JY         1 TEMP              0 ****  ****    0 ROOT
