@<TRIPOS>MOLECULE
4JZ
   60    63     1     0     0
SMALL
bcc


@<TRIPOS>ATOM
      1 C4          1.7430   -0.3450   -1.2890 c3        1 4JZ     -0.091433
      2 C7          5.3810    0.9630    6.1810 ca        1 4JZ     -0.131500
      3 C6         -8.3020    1.0770    6.0120 ca        1 4JZ     -0.123000
      4 C9          4.5660    1.2520    5.0930 ca        1 4JZ     -0.106500
      5 C13         1.9100    0.1000    1.5610 cc        1 4JZ     -0.327600
      6 C20         3.0270    0.1130    0.7680 cd        1 4JZ      0.082800
      7 C21        -1.6280    0.3230    5.6410 cc        1 4JZ      0.023300
      8 C8          6.2570   -0.9690    5.0380 ca        1 4JZ     -0.131500
      9 C18        -7.4070    0.1270    5.4790 ca        1 4JZ      0.015800
     10 C16         6.2360   -0.1450    6.1680 ca        1 4JZ     -0.070300
     11 C19        -3.8100   -0.2730    5.7000 cd        1 4JZ      0.301600
     12 C1          7.0910   -0.4480    7.3380 c3        1 4JZ     -0.055800
     13 C2          3.9500   -1.4300   -0.9250 c3        1 4JZ     -0.091433
     14 C3          3.8210    1.0140   -1.3960 c3        1 4JZ     -0.091433
     15 C5         -9.6600    0.9050    5.7670 ca        1 4JZ     -0.214300
     16 C10         5.4430   -0.7010    3.9410 ca        1 4JZ     -0.106500
     17 C11       -10.0810   -0.2030    5.0030 ca        1 4JZ      0.354200
     18 C12        -2.7260    0.0500    4.7980 cd        1 4JZ     -0.272300
     19 C14        -7.9200   -0.9520    4.7260 ca        1 4JZ      0.319200
     20 C15        -5.1750   -0.6620    5.2640 c3        1 4JZ      0.109100
     21 C17         4.5920    0.4190    3.9540 ca        1 4JZ      0.092600
     22 C22         2.3350    0.4710    2.9380 cc        1 4JZ      0.715500
     23 C23         0.2710    0.3540    4.1050 c         1 4JZ      0.821500
     24 C24         3.1380   -0.1590   -0.7010 c3        1 4JZ     -0.001800
     25 N25        -2.0940    0.0980    6.9730 na        1 4JZ     -0.038600
     26 N26        -9.2360   -1.1140    4.4920 nb        1 4JZ     -0.636000
     27 N27        -3.3940   -0.1900    6.9950 nc        1 4JZ     -0.488800
     28 N28         4.2010    0.3830    1.5620 na        1 4JZ     -0.441800
     29 N29        -0.3260    0.7020    5.3330 ns        1 4JZ     -0.427100
     30 N30         1.6800    0.5850    4.0630 nf        1 4JZ     -0.729100
     31 N31         3.7620    0.7990    2.8370 na        1 4JZ     -0.355800
     32 O32        -0.4230   -0.0900    3.1620 o         1 4JZ     -0.621100
     33 O33        -6.0760    0.3520    5.7420 os        1 4JZ     -0.308900
     34 H4          1.1260    0.5710   -1.1270 hc        1 4JZ      0.045478
     35 H4A         1.2310   -1.2130   -0.8090 hc        1 4JZ      0.045478
     36 H4B         1.8210   -0.5370   -2.3860 hc        1 4JZ      0.045478
     37 H7          5.3530    1.6190    7.0650 ha        1 4JZ      0.135500
     38 H9          3.8950    2.1250    5.1300 ha        1 4JZ      0.149500
     39 H13         0.8790   -0.1530    1.3090 ha        1 4JZ      0.207000
     40 H8          6.9230   -1.8460    5.0150 ha        1 4JZ      0.135500
     41 H1          8.0230   -0.9820    7.0260 hc        1 4JZ      0.046367
     42 H1A         6.5350   -1.1050    8.0550 hc        1 4JZ      0.046367
     43 H1B         7.3820    0.4880    7.8740 hc        1 4JZ      0.046367
     44 H2          3.9990   -1.6530   -2.0180 hc        1 4JZ      0.045478
     45 H2A         4.9900   -1.3080   -0.5380 hc        1 4JZ      0.045478
     46 H2B         3.4720   -2.2930   -0.4030 hc        1 4JZ      0.045478
     47 H3          3.7780    0.8680   -2.5030 hc        1 4JZ      0.045478
     48 H3A         3.3080    1.9720   -1.1430 hc        1 4JZ      0.045478
     49 H3B         4.8940    1.0850   -1.0970 hc        1 4JZ      0.045478
     50 H5        -10.3960    1.6180    6.1600 ha        1 4JZ      0.143000
     51 H10         5.4790   -1.3750    3.0720 ha        1 4JZ      0.149500
     52 H11       -11.1520   -0.3680    4.7920 h4        1 4JZ      0.022100
     53 H12        -2.7380    0.0650    3.7130 ha        1 4JZ      0.192000
     54 H14        -7.2610   -1.7210    4.2890 h4        1 4JZ      0.025100
     55 H15        -5.4690   -1.6560    5.6970 h1        1 4JZ      0.055700
     56 H15A       -5.2210   -0.6980    4.1430 h1        1 4JZ      0.055700
     57 HN25       -1.6590    0.4310    7.8030 hn        1 4JZ      0.311700
     58 HN28        4.7710    1.1230    1.1720 hn        1 4JZ      0.411800
     59 HN29        0.2660    0.9840    6.0840 hn        1 4JZ      0.330500
     60 H6         -7.9180    1.9210    6.6000 ha        1 4JZ      0.155000
@<TRIPOS>BOND
     1    1   24 1   
     2    1   34 1   
     3    1   35 1   
     4    1   36 1   
     5    2    4 ar  
     6    2   10 ar  
     7    2   37 1   
     8    3    9 ar  
     9    3   15 ar  
    10    3   60 1   
    11    4   21 ar  
    12    4   38 1   
    13    5    6 2   
    14    5   22 1   
    15    5   39 1   
    16    6   24 1   
    17    6   28 1   
    18    7   18 2   
    19    7   25 1   
    20    7   29 1   
    21    8   10 ar  
    22    8   16 ar  
    23    8   40 1   
    24    9   19 ar  
    25    9   33 1   
    26   10   12 1   
    27   11   18 1   
    28   11   20 1   
    29   11   27 2   
    30   12   41 1   
    31   12   42 1   
    32   12   43 1   
    33   13   24 1   
    34   13   44 1   
    35   13   45 1   
    36   13   46 1   
    37   14   24 1   
    38   14   47 1   
    39   14   48 1   
    40   14   49 1   
    41   15   17 ar  
    42   15   50 1   
    43   16   21 ar  
    44   16   51 1   
    45   17   26 ar  
    46   17   52 1   
    47   18   53 1   
    48   19   26 ar  
    49   19   54 1   
    50   20   33 1   
    51   20   55 1   
    52   20   56 1   
    53   21   31 1   
    54   22   30 2   
    55   22   31 1   
    56   23   29 1   
    57   23   30 1   
    58   23   32 2   
    59   25   27 1   
    60   25   57 1   
    61   28   31 1   
    62   28   58 1   
    63   29   59 1   
@<TRIPOS>SUBSTRUCTURE
     1 4JZ         1 TEMP              0 ****  ****    0 ROOT
