@<TRIPOS>MOLECULE
4JZ
   60    63     1     0     0
SMALL
bcc


@<TRIPOS>ATOM
      1 C4         -1.9260   -5.1580   -0.8340 c3        1 4JZ     -0.091433
      2 C7         -5.3730    2.2180    1.2800 ca        1 4JZ     -0.131500
      3 C6          7.9350    1.3850    1.6170 ca        1 4JZ     -0.123000
      4 C9         -4.5340    1.1170    1.4090 ca        1 4JZ     -0.107000
      5 C13        -2.0390   -2.3380   -0.2180 cc        1 4JZ     -0.327600
      6 C20        -3.1500   -3.1340   -0.1310 cd        1 4JZ      0.082800
      7 C21         1.4900    1.7390   -0.2660 cc        1 4JZ      0.025300
      8 C8         -6.4840    1.1770   -0.5880 ca        1 4JZ     -0.131500
      9 C18         7.1990    1.1430    0.4400 ca        1 4JZ      0.016800
     10 C16        -6.3590    2.2600    0.2870 ca        1 4JZ     -0.071300
     11 C19         3.7430    1.7400   -0.4810 cd        1 4JZ      0.299600
     12 C1         -7.2600    3.4290    0.1720 c3        1 4JZ     -0.055800
     13 C2         -4.2370   -4.7470   -1.6520 c3        1 4JZ     -0.091433
     14 C3         -3.8440   -5.3470    0.7340 c3        1 4JZ     -0.091433
     15 C5          9.2870    1.0610    1.6210 ca        1 4JZ     -0.214300
     16 C10        -5.6480    0.0690   -0.4790 ca        1 4JZ     -0.107000
     17 C11         9.8610    0.5110    0.4570 ca        1 4JZ      0.354200
     18 C12         2.5790    0.8830   -0.5440 cd        1 4JZ     -0.276300
     19 C14         7.8580    0.5880   -0.6790 ca        1 4JZ      0.318200
     20 C15         5.1340    1.2840   -0.7290 c3        1 4JZ      0.109100
     21 C17        -4.6670    0.0240    0.5280 ca        1 4JZ      0.092600
     22 C22        -2.4210   -0.9850    0.2720 cc        1 4JZ      0.715500
     23 C23        -0.3700    0.1780    0.0130 c         1 4JZ      0.819500
     24 C24        -3.2910   -4.5870   -0.4670 c3        1 4JZ     -0.001800
     25 N25         2.0590    3.0220   -0.0130 na        1 4JZ     -0.041600
     26 N26         9.1680    0.2770   -0.6710 nb        1 4JZ     -0.637000
     27 N27         3.3780    3.0220   -0.1910 nc        1 4JZ     -0.487800
     28 N28        -4.2880   -2.3610    0.3050 na        1 4JZ     -0.441800
     29 N29         0.1230    1.4780   -0.2150 n         1 4JZ     -0.427100
     30 N30        -1.7550    0.1360    0.3600 nf        1 4JZ     -0.727100
     31 N31        -3.8030   -1.1110    0.7460 na        1 4JZ     -0.355800
     32 O32         0.3760   -0.8210   -0.1030 o         1 4JZ     -0.618100
     33 O33         5.8650    1.4730    0.4950 os        1 4JZ     -0.307900
     34 H4         -1.2120   -5.0420    0.0170 hc        1 4JZ      0.045478
     35 H4A        -2.0250   -6.2440   -1.0750 hc        1 4JZ      0.045478
     36 H4B        -1.5100   -4.6310   -1.7260 hc        1 4JZ      0.045478
     37 H7         -5.2600    3.0680    1.9710 ha        1 4JZ      0.135500
     38 H9         -3.7600    1.1110    2.1940 ha        1 4JZ      0.150000
     39 H13        -1.0350   -2.5760   -0.5720 ha        1 4JZ      0.205000
     40 H8         -7.2500    1.1990   -1.3780 ha        1 4JZ      0.135500
     41 H1         -7.6030    3.5690   -0.8830 hc        1 4JZ      0.046033
     42 H1A        -8.1640    3.2770    0.8160 hc        1 4JZ      0.046033
     43 H1B        -6.7470    4.3640    0.5050 hc        1 4JZ      0.046033
     44 H2         -4.3110   -5.8270   -1.9270 hc        1 4JZ      0.045478
     45 H2A        -5.2570   -4.3730   -1.3980 hc        1 4JZ      0.045478
     46 H2B        -3.8550   -4.1790   -2.5330 hc        1 4JZ      0.045478
     47 H3         -3.2290   -5.1430    1.6430 hc        1 4JZ      0.045478
     48 H3A        -4.9020   -5.0570    0.9380 hc        1 4JZ      0.045478
     49 H3B        -3.8170   -6.4440    0.5260 hc        1 4JZ      0.045478
     50 H5          9.9030    1.2310    2.5140 ha        1 4JZ      0.143000
     51 H10        -5.7700   -0.7630   -1.1900 ha        1 4JZ      0.150000
     52 H11        10.9310    0.2430    0.4270 h4        1 4JZ      0.021100
     53 H12         2.5420   -0.1830   -0.7380 ha        1 4JZ      0.194000
     54 H14         7.3250    0.3800   -1.6230 h4        1 4JZ      0.024100
     55 H15         5.1340    0.1940   -0.9960 h1        1 4JZ      0.054700
     56 H15A        5.6160    1.8850   -1.5470 h1        1 4JZ      0.054700
     57 HN25        1.5690    3.8850    0.0290 hn        1 4JZ      0.314700
     58 HN28       -4.7760   -2.7950    1.0780 hn        1 4JZ      0.411800
     59 HN29       -0.4860    2.2480   -0.0430 hn        1 4JZ      0.328500
     60 H6          7.4370    1.8170    2.4960 ha        1 4JZ      0.156000
@<TRIPOS>BOND
     1    1   24 1   
     2    1   34 1   
     3    1   35 1   
     4    1   36 1   
     5    2    4 ar  
     6    2   10 ar  
     7    2   37 1   
     8    3    9 ar  
     9    3   15 ar  
    10    3   60 1   
    11    4   21 ar  
    12    4   38 1   
    13    5    6 2   
    14    5   22 1   
    15    5   39 1   
    16    6   24 1   
    17    6   28 1   
    18    7   18 2   
    19    7   25 1   
    20    7   29 1   
    21    8   10 ar  
    22    8   16 ar  
    23    8   40 1   
    24    9   19 ar  
    25    9   33 1   
    26   10   12 1   
    27   11   18 1   
    28   11   20 1   
    29   11   27 2   
    30   12   41 1   
    31   12   42 1   
    32   12   43 1   
    33   13   24 1   
    34   13   44 1   
    35   13   45 1   
    36   13   46 1   
    37   14   24 1   
    38   14   47 1   
    39   14   48 1   
    40   14   49 1   
    41   15   17 ar  
    42   15   50 1   
    43   16   21 ar  
    44   16   51 1   
    45   17   26 ar  
    46   17   52 1   
    47   18   53 1   
    48   19   26 ar  
    49   19   54 1   
    50   20   33 1   
    51   20   55 1   
    52   20   56 1   
    53   21   31 1   
    54   22   30 2   
    55   22   31 1   
    56   23   29 1   
    57   23   30 1   
    58   23   32 2   
    59   25   27 1   
    60   25   57 1   
    61   28   31 1   
    62   28   58 1   
    63   29   59 1   
@<TRIPOS>SUBSTRUCTURE
     1 4JZ         1 TEMP              0 ****  ****    0 ROOT
