@<TRIPOS>MOLECULE
4JZ
   60    50     1     0     0
SMALL
bcc


@<TRIPOS>ATOM
      1 C4          0.5790   -1.6860   -4.2440 c3        1 4JZ     -0.209333
      2 C7          6.2790   -0.5400    1.5620 c1        1 4JZ     -0.120000
      3 C6         -7.8520   -1.1820    1.8440 c1        1 4JZ     -0.120000
      4 C9          5.2270   -0.7350    0.6720 c1        1 4JZ     -0.120000
      5 C13         1.5390   -0.5220   -1.6780 c1        1 4JZ     -0.242000
      6 C20         2.3820   -0.7650   -2.6790 c1        1 4JZ      0.007000
      7 C21        -1.8890    0.4700    2.1600 c1        1 4JZ     -0.038000
      8 C8          6.3330    1.7930    0.9890 c1        1 4JZ     -0.130000
      9 C18        -7.5520   -0.1840    2.7350 c1        1 4JZ      0.020000
     10 C16         6.8300    0.7250    1.7190 c1        1 4JZ     -0.063000
     11 C19        -4.0600    0.6070    2.5000 c1        1 4JZ     -0.038000
     12 C1          7.9210    0.8680    2.8180 c3        1 4JZ     -0.181000
     13 C2          2.9530   -1.3460   -5.0750 c3        1 4JZ     -0.209333
     14 C3          1.5070    0.6530   -4.5900 c3        1 4JZ     -0.209333
     15 C5         -9.0710   -1.1910    1.2100 c1        1 4JZ     -0.120000
     16 C10         5.2820    1.5970    0.0990 c1        1 4JZ     -0.123000
     17 C11        -9.9990   -0.1880    1.4720 c1        1 4JZ     -0.091000
     18 C12        -2.9190    1.3370    2.3090 c1        1 4JZ     -0.268000
     19 C14        -8.4800    0.8160    2.9960 c1        1 4JZ     -0.102000
     20 C15        -5.4630    0.9980    2.8620 c2        1 4JZ      0.058000
     21 C17         4.7310    0.3320   -0.0580 c1        1 4JZ      0.010000
     22 C22         2.1440    0.0580   -0.5640 c1        1 4JZ      0.192000
     23 C23         0.1490    0.2100    0.7860 c1        1 4JZ      0.379000
     24 C24         1.8600   -0.7810   -4.1530 c2        1 4JZ     -0.007000
     25 N25        -2.3810   -0.7840    2.2550 n2        1 4JZ     -0.108500
     26 N26        -9.6990    0.8060    2.3610 n1        1 4JZ     -0.126000
     27 N27        -3.7280   -0.6950    2.4660 n2        1 4JZ     -0.108500
     28 N28         3.6980   -0.3880   -2.4090 n3        1 4JZ     -0.154000
     29 N29        -0.4730    0.6330    1.9880 n1        1 4JZ     -0.284000
     30 N30         1.5610    0.4180    0.5960 n2        1 4JZ     -0.299000
     31 N31         3.6320    0.1970   -0.9590 n3        1 4JZ     -0.121000
     32 O32        -0.5110   -0.2870   -0.0940 o         1 4JZ     -0.420000
     33 O33        -6.1990   -0.1650    3.2330 os        1 4JZ     -0.212000
     34 H4          0.3260   -1.8080   -5.1970 hc        1 4JZ      0.085000
     35 H4A         0.7660   -2.5600   -3.8410 hc        1 4JZ      0.085000
     36 H4B        -0.1660   -1.2520   -3.7590 hc        1 4JZ      0.085000
     37 H7          6.6240   -1.2820    2.0700 ha        1 4JZ      0.146000
     38 H6         -7.1980   -1.8880    1.6590 ha        1 4JZ      0.146000
     39 H9          4.8330   -1.6390    0.5590 ha        1 4JZ      0.146000
     40 H13         0.6030   -0.3540   -1.8630 ha        1 4JZ      0.205000
     41 H8          6.7180    2.6760    1.0990 ha        1 4JZ      0.136000
     42 H1          8.7580    1.1290    2.4090 hc        1 4JZ      0.086000
     43 H1A         7.6480    1.5470    3.4610 hc        1 4JZ      0.086000
     44 H1B         8.0340    0.0260    3.2690 hc        1 4JZ      0.086000
     45 H2          3.6190   -0.6390   -5.2700 hc        1 4JZ      0.085000
     46 H2A         3.3990   -2.1050   -4.6290 hc        1 4JZ      0.085000
     47 H2B         2.5410   -1.6560   -5.9250 hc        1 4JZ      0.085000
     48 H3          0.8130    1.0230   -3.9860 hc        1 4JZ      0.085000
     49 H3A         1.1620    0.6390   -5.5220 hc        1 4JZ      0.085000
     50 H3B         2.3150    1.2200   -4.5470 hc        1 4JZ      0.085000
     51 H5         -9.2860   -1.9050    0.5710 ha        1 4JZ      0.146000
     52 H10         4.9310    2.3490   -0.4160 ha        1 4JZ      0.147000
     53 H11       -10.8810   -0.1940    1.0140 ha        1 4JZ      0.157000
     54 H12        -2.8590    2.2850    2.2870 DU        1 4JZ      0.233500
     55 H14        -8.2660    1.5310    3.6340 ha        1 4JZ      0.160000
     56 H15        -5.4430    1.6350    3.6240 h4        1 4JZ      0.104000
     57 H15A       -5.8890    1.4200    2.0980 h4        1 4JZ      0.104000
     58 HN25       -1.9060   -1.5440    2.1910 DU        1 4JZ      0.233500
     59 HN28        4.4240   -0.7010   -2.8120 hn        1 4JZ      0.208000
     60 HN29        0.0490    0.9690    2.6930 hn        1 4JZ      0.263000
@<TRIPOS>BOND
     1    1   24 1   
     2    1   34 1   
     3    1   35 1   
     4    1   36 1   
     5    2    4 1   
     6    2   37 1   
     7    3   15 1   
     8    3   38 1   
     9    4   39 1   
    10    5    6 1   
    11    5   40 1   
    12    6   28 1   
    13    7   18 1   
    14    7   25 1   
    15    8   10 1   
    16    8   41 1   
    17    9   19 1   
    18    9   33 1   
    19   10   12 1   
    20   11   18 1   
    21   11   27 1   
    22   12   42 1   
    23   12   43 1   
    24   12   44 1   
    25   13   24 1   
    26   13   45 1   
    27   13   46 1   
    28   13   47 1   
    29   14   24 1   
    30   14   48 1   
    31   14   49 1   
    32   14   50 1   
    33   15   51 1   
    34   16   21 1   
    35   16   52 1   
    36   17   26 1   
    37   17   53 1   
    38   19   55 1   
    39   20   33 1   
    40   20   56 1   
    41   20   57 1   
    42   21   31 1   
    43   22   30 1   
    44   22   31 1   
    45   23   30 1   
    46   23   32 1   
    47   25   27 1   
    48   28   31 1   
    49   28   59 1   
    50   29   60 1   
@<TRIPOS>SUBSTRUCTURE
     1 4JZ         1 TEMP              0 ****  ****    0 ROOT
