@<TRIPOS>MOLECULE
4JZ
   60    63     1     0     0
SMALL
bcc


@<TRIPOS>ATOM
      1 C4          1.7110   -0.4360   -1.2900 c3        1 4JZ     -0.091433
      2 C7          5.3960    1.0310    6.1270 ca        1 4JZ     -0.131500
      3 C6         -8.2910    1.0950    6.0440 ca        1 4JZ     -0.123000
      4 C9          4.5720    1.2960    5.0380 ca        1 4JZ     -0.106500
      5 C13         1.8950    0.0660    1.5490 cc        1 4JZ     -0.327600
      6 C20         3.0070    0.0670    0.7490 cd        1 4JZ      0.082800
      7 C21        -1.6160    0.3610    5.6480 cc        1 4JZ      0.023300
      8 C8          6.2700   -0.9210    5.0160 ca        1 4JZ     -0.131500
      9 C18        -7.3950    0.1370    5.5280 ca        1 4JZ      0.015800
     10 C16         6.2540   -0.0750    6.1290 ca        1 4JZ     -0.070300
     11 C19        -3.7940   -0.2420    5.7340 cd        1 4JZ      0.301600
     12 C1          7.1180   -0.3520    7.2990 c3        1 4JZ     -0.055800
     13 C2          3.9240   -1.5060   -0.9200 c3        1 4JZ     -0.091433
     14 C3          3.7830    0.9270   -1.4390 c3        1 4JZ     -0.091433
     15 C5         -9.6490    0.9110    5.8120 ca        1 4JZ     -0.214300
     16 C10         5.4480   -0.6770    3.9200 ca        1 4JZ     -0.106500
     17 C11       -10.0700   -0.2160    5.0770 ca        1 4JZ      0.354200
     18 C12        -2.7180    0.0640    4.8180 cd        1 4JZ     -0.272300
     19 C14        -7.9070   -0.9620    4.8020 ca        1 4JZ      0.319200
     20 C15        -5.1600   -0.6470    5.3160 c3        1 4JZ      0.109100
     21 C17         4.5930    0.4410    3.9170 ca        1 4JZ      0.092600
     22 C22         2.3290    0.4660    2.9160 cc        1 4JZ      0.715500
     23 C23         0.2730    0.3660    4.0990 c         1 4JZ      0.821500
     24 C24         3.1090   -0.2340   -0.7160 c3        1 4JZ     -0.001800
     25 N25        -2.0720    0.1650    6.9880 na        1 4JZ     -0.038600
     26 N26        -9.2240   -1.1350    4.5810 nb        1 4JZ     -0.636000
     27 N27        -3.3710   -0.1270    7.0240 nc        1 4JZ     -0.488800
     28 N28         4.1860    0.3560    1.5290 na        1 4JZ     -0.441800
     29 N29        -0.3170    0.7390    5.3230 n         1 4JZ     -0.427100
     30 N30         1.6810    0.6000    4.0420 nf        1 4JZ     -0.728100
     31 N31         3.7550    0.7970    2.7980 na        1 4JZ     -0.355800
     32 O32        -0.4240   -0.1020    3.1700 o         1 4JZ     -0.621100
     33 O33        -6.0630    0.3740    5.7760 os        1 4JZ     -0.308900
     34 H4          1.7820   -0.6510   -2.3830 hc        1 4JZ      0.045478
     35 H4A         1.2050   -1.2970   -0.7900 hc        1 4JZ      0.045478
     36 H4B         1.0920    0.4800   -1.1420 hc        1 4JZ      0.045478
     37 H7          5.3730    1.7040    6.9980 ha        1 4JZ      0.135500
     38 H9          3.8990    2.1670    5.0630 ha        1 4JZ      0.149500
     39 H13         0.8640   -0.1960    1.3100 ha        1 4JZ      0.207000
     40 H8          6.9380   -1.7960    5.0060 ha        1 4JZ      0.135500
     41 H1          7.4100    0.5950    7.8150 hc        1 4JZ      0.046367
     42 H1A         8.0490   -0.8890    6.9910 hc        1 4JZ      0.046367
     43 H1B         6.5690   -0.9960    8.0330 hc        1 4JZ      0.046367
     44 H2          3.4530   -2.3600   -0.3770 hc        1 4JZ      0.045478
     45 H2A         3.9660   -1.7510   -2.0090 hc        1 4JZ      0.045478
     46 H2B         4.9660   -1.3730   -0.5430 hc        1 4JZ      0.045478
     47 H3          3.2670    1.8880   -1.2020 hc        1 4JZ      0.045478
     48 H3A         3.7330    0.7590   -2.5420 hc        1 4JZ      0.045478
     49 H3B         4.8570    1.0090   -1.1480 hc        1 4JZ      0.045478
     50 H5        -10.3860    1.6290    6.1940 ha        1 4JZ      0.143000
     51 H10         5.4790   -1.3680    3.0640 ha        1 4JZ      0.149500
     52 H11       -11.1410   -0.3910    4.8760 h4        1 4JZ      0.022100
     53 H12        -2.7370    0.0540    3.7330 ha        1 4JZ      0.192000
     54 H14        -7.2470   -1.7370    4.3790 h4        1 4JZ      0.025100
     55 H15        -5.2130   -0.7090    4.1960 h1        1 4JZ      0.055700
     56 H15A       -5.4470   -1.6320    5.7740 h1        1 4JZ      0.055700
     57 HN25       -1.6330    0.5200    7.8060 hn        1 4JZ      0.311700
     58 HN28        4.7500    1.0900    1.1200 hn        1 4JZ      0.411800
     59 HN29        0.2790    1.0400    6.0630 hn        1 4JZ      0.330500
     60 H6         -7.9070    1.9540    6.6110 ha        1 4JZ      0.155000
@<TRIPOS>BOND
     1    1   24 1   
     2    1   34 1   
     3    1   35 1   
     4    1   36 1   
     5    2    4 ar  
     6    2   10 ar  
     7    2   37 1   
     8    3    9 ar  
     9    3   15 ar  
    10    3   60 1   
    11    4   21 ar  
    12    4   38 1   
    13    5    6 2   
    14    5   22 1   
    15    5   39 1   
    16    6   24 1   
    17    6   28 1   
    18    7   18 2   
    19    7   25 1   
    20    7   29 1   
    21    8   10 ar  
    22    8   16 ar  
    23    8   40 1   
    24    9   19 ar  
    25    9   33 1   
    26   10   12 1   
    27   11   18 1   
    28   11   20 1   
    29   11   27 2   
    30   12   41 1   
    31   12   42 1   
    32   12   43 1   
    33   13   24 1   
    34   13   44 1   
    35   13   45 1   
    36   13   46 1   
    37   14   24 1   
    38   14   47 1   
    39   14   48 1   
    40   14   49 1   
    41   15   17 ar  
    42   15   50 1   
    43   16   21 ar  
    44   16   51 1   
    45   17   26 ar  
    46   17   52 1   
    47   18   53 1   
    48   19   26 ar  
    49   19   54 1   
    50   20   33 1   
    51   20   55 1   
    52   20   56 1   
    53   21   31 1   
    54   22   30 2   
    55   22   31 1   
    56   23   29 1   
    57   23   30 1   
    58   23   32 2   
    59   25   27 1   
    60   25   57 1   
    61   28   31 1   
    62   28   58 1   
    63   29   59 1   
@<TRIPOS>SUBSTRUCTURE
     1 4JZ         1 TEMP              0 ****  ****    0 ROOT
