@<TRIPOS>MOLECULE
4JZ
   61    64     1     0     0
SMALL
bcc


@<TRIPOS>ATOM
      1 C4          1.8410   -0.7550   -1.7270 c3        1 4JZ     -0.097767
      2 C7          2.8770    1.4260    6.3320 ca        1 4JZ     -0.127500
      3 C6         -6.7970    0.2040    5.4090 ca        1 4JZ     -0.107000
      4 C9          2.2720    1.1630    5.1070 ca        1 4JZ     -0.107500
      5 C13         1.5160   -1.0090    1.1470 cc        1 4JZ     -0.361600
      6 C20         2.4080   -0.0980    0.5810 cd        1 4JZ      0.166800
      7 C21        -1.2460   -2.0260    5.4960 cc        1 4JZ     -0.102700
      8 C8          4.9760    0.5650    5.5060 ca        1 4JZ     -0.127500
      9 C18        -5.4500    0.2830    5.8060 ca        1 4JZ     -0.018200
     10 C16         4.2300    1.1350    6.5450 ca        1 4JZ     -0.036300
     11 C19        -2.6510   -0.8050    6.7660 cd        1 4JZ      0.277600
     12 C1          4.8690    1.4440    7.8440 c3        1 4JZ     -0.069800
     13 C2          4.1990   -0.2560   -1.1100 c3        1 4JZ     -0.097767
     14 C3          2.5210    1.5850   -1.2270 c3        1 4JZ     -0.097767
     15 C5         -7.2320    1.0730    4.4120 ca        1 4JZ     -0.211300
     16 C10         4.3910    0.2870    4.2750 ca        1 4JZ     -0.107500
     17 C11        -6.3140    1.9840    3.8520 ca        1 4JZ      0.374200
     18 C12        -2.5990   -1.9580    5.9010 cd        1 4JZ     -0.190300
     19 C14        -4.6010    1.2290    5.1960 ca        1 4JZ      0.332200
     20 C15        -3.8610   -0.3170    7.4860 c3        1 4JZ      0.098100
     21 C17         3.0320    0.5900    4.0690 ca        1 4JZ      0.066600
     22 C22         1.5400   -0.7810    2.5900 cc        1 4JZ      0.760500
     23 C23        -0.0170   -2.3610    3.3340 c         1 4JZ      0.705500
     24 C24         2.7420    0.1200   -0.8640 c3        1 4JZ     -0.012800
     25 N25        -0.5740   -0.9580    6.1350 na        1 4JZ      0.035400
     26 N26        -5.0260    2.0670    4.2310 nb        1 4JZ     -0.638000
     27 N27        -1.4050   -0.2360    6.8610 nc        1 4JZ     -0.447800
     28 N28         3.0570    0.6130    1.6210 na        1 4JZ     -0.426800
     29 N29        -0.6320   -2.9910    4.6210 n4        1 4JZ     -0.497200
     30 N30         0.9170   -1.4070    3.6150 nf        1 4JZ     -0.799100
     31 N31         2.3790    0.3510    2.8090 na        1 4JZ     -0.315800
     32 O32        -0.4950   -2.8770    2.3170 o         1 4JZ     -0.535100
     33 O33        -5.0470   -0.6340    6.7630 os        1 4JZ     -0.317900
     34 H4          2.0790   -0.5850   -2.8050 hc        1 4JZ      0.055033
     35 H4A         2.0030   -1.8350   -1.4940 hc        1 4JZ      0.055033
     36 H4B         0.7670   -0.5040   -1.5550 hc        1 4JZ      0.055033
     37 H7          2.2830    1.8820    7.1410 ha        1 4JZ      0.155500
     38 H9          1.2100    1.4160    4.9570 ha        1 4JZ      0.152500
     39 H13         0.9070   -1.7620    0.6480 ha        1 4JZ      0.214000
     40 H8          6.0410    0.3310    5.6640 ha        1 4JZ      0.155500
     41 H1          5.3290    2.4650    7.8060 hc        1 4JZ      0.061700
     42 H1A         4.1220    1.4290    8.6750 hc        1 4JZ      0.061700
     43 H1B         5.6770    0.7070    8.0790 hc        1 4JZ      0.061700
     44 H2          4.3840   -1.3190   -0.8220 hc        1 4JZ      0.055033
     45 H2A         4.4320   -0.1370   -2.1960 hc        1 4JZ      0.055033
     46 H2B         4.8860    0.4020   -0.5260 hc        1 4JZ      0.055033
     47 H3          2.6640    1.7180   -2.3280 hc        1 4JZ      0.055033
     48 H3A         3.2520    2.2440   -0.7020 hc        1 4JZ      0.055033
     49 H3B         1.4840    1.9040   -0.9660 hc        1 4JZ      0.055033
     50 H5         -8.2750    1.0550    4.0670 ha        1 4JZ      0.156000
     51 H10         5.0000   -0.1630    3.4750 ha        1 4JZ      0.152500
     52 H11        -6.6280    2.6880    3.0600 h4        1 4JZ      0.033100
     53 H12        -3.4310   -2.6040    5.6350 ha        1 4JZ      0.201000
     54 H14        -3.5420    1.3280    5.4890 h4        1 4JZ      0.022100
     55 H15        -3.7980    0.7820    7.7080 h1        1 4JZ      0.092200
     56 H15A       -3.9820   -0.8950    8.4470 h1        1 4JZ      0.092200
     57 HN25        0.3710   -0.6600    5.9840 hn        1 4JZ      0.361700
     58 HN28        3.2670    1.5900    1.4950 hn        1 4JZ      0.471800
     59 HN29       -1.3610   -3.6510    4.3120 hn        1 4JZ      0.467300
     60 H292        0.0990   -3.5030    5.1270 hn        1 4JZ      0.467300
     61 H6         -7.4720   -0.5250    5.8790 ha        1 4JZ      0.161000
@<TRIPOS>BOND
     1    1   24 1   
     2    1   34 1   
     3    1   35 1   
     4    1   36 1   
     5    2    4 ar  
     6    2   10 ar  
     7    2   37 1   
     8    3    9 ar  
     9    3   15 ar  
    10    3   61 1   
    11    4   21 ar  
    12    4   38 1   
    13    5    6 2   
    14    5   22 1   
    15    5   39 1   
    16    6   24 1   
    17    6   28 1   
    18    7   18 2   
    19    7   25 1   
    20    7   29 1   
    21    8   10 ar  
    22    8   16 ar  
    23    8   40 1   
    24    9   19 ar  
    25    9   33 1   
    26   10   12 1   
    27   11   18 1   
    28   11   20 1   
    29   11   27 2   
    30   12   41 1   
    31   12   42 1   
    32   12   43 1   
    33   13   24 1   
    34   13   44 1   
    35   13   45 1   
    36   13   46 1   
    37   14   24 1   
    38   14   47 1   
    39   14   48 1   
    40   14   49 1   
    41   15   17 ar  
    42   15   50 1   
    43   16   21 ar  
    44   16   51 1   
    45   17   26 ar  
    46   17   52 1   
    47   18   53 1   
    48   19   26 ar  
    49   19   54 1   
    50   20   33 1   
    51   20   55 1   
    52   20   56 1   
    53   21   31 1   
    54   22   30 2   
    55   22   31 1   
    56   23   29 1   
    57   23   30 1   
    58   23   32 2   
    59   25   27 1   
    60   25   57 1   
    61   28   31 1   
    62   28   58 1   
    63   29   59 1   
    64   29   60 1   
@<TRIPOS>SUBSTRUCTURE
     1 4JZ         1 TEMP              0 ****  ****    0 ROOT
