@<TRIPOS>MOLECULE
4K0
   39    43     1     0     0
SMALL
bcc


@<TRIPOS>ATOM
      1 N23        -1.1880    0.6480   -2.0450 n1        1 4K0     -0.343800
      2 C22        -0.5770    0.5160   -1.0640 cg        1 4K0      0.224800
      3 C19         0.1710    0.3550    0.1340 ca        1 4K0      0.003000
      4 C20         1.2860   -0.4940    0.1560 ca        1 4K0     -0.094000
      5 C18        -0.2070    1.0470    1.2940 ca        1 4K0     -0.094000
      6 C17         0.5250    0.8860    2.4670 ca        1 4K0     -0.106500
      7 C16         1.6390    0.0350    2.4910 ca        1 4K0     -0.131500
      8 C21         2.0180   -0.6510    1.3310 ca        1 4K0     -0.106500
      9 C12         2.3890   -0.1320    3.7420 cc        1 4K0      0.308500
     10 N15         3.7290   -0.1250    3.7270 nd        1 4K0     -0.409800
     11 N7          4.3210   -0.2830    4.8980 na        1 4K0     -0.078500
     12 C8          3.5830   -0.4660    6.1630 cd        1 4K0      0.270500
     13 N14         2.1880   -0.4740    6.1650 nd        1 4K0     -0.541000
     14 C13         1.6270   -0.3080    4.9890 cc        1 4K0      0.317900
     15 C11         5.6800   -0.3270    5.2810 cd        1 4K0      0.376800
     16 N10         5.7170   -0.5210    6.6380 nc        1 4K0     -0.357700
     17 N9          4.5210   -0.6050    7.1620 nc        1 4K0     -0.009000
     18 C24         6.8330   -0.1630    4.3500 c3        1 4K0     -0.000500
     19 C25         7.0390    1.2410    3.9700 cc        1 4K0     -0.154400
     20 C26         6.7230    1.8210    2.7380 cd        1 4K0     -0.079100
     21 C1          7.6380    2.2730    4.7820 ca        1 4K0     -0.185100
     22 C6          8.1550    2.3510    6.0780 ca        1 4K0     -0.044000
     23 C5          8.6600    3.5710    6.5030 ca        1 4K0     -0.270300
     24 C2          7.6600    3.4800    3.9650 ca        1 4K0      0.419800
     25 N27         7.0910    3.1640    2.7200 na        1 4K0     -0.284100
     26 N3          8.1560    4.6850    4.3800 nb        1 4K0     -0.670000
     27 C4          8.6370    4.6890    5.6280 ca        1 4K0      0.413200
     28 H20         1.5840   -1.0380   -0.7550 ha        1 4K0      0.153500
     29 H18        -1.0790    1.7180    1.2760 ha        1 4K0      0.153500
     30 H21         2.8940   -1.3180    1.3410 ha        1 4K0      0.151000
     31 H17         0.2320    1.4390    3.3730 ha        1 4K0      0.151000
     32 H13         0.5230   -0.3120    4.9440 h4        1 4K0      0.053100
     33 H241        7.7570   -0.5530    4.8640 hc        1 4K0      0.079700
     34 H242        6.6560   -0.7930    3.4340 hc        1 4K0      0.079700
     35 H26         6.2540    1.3630    1.8640 h4        1 4K0      0.172000
     36 H27         6.9770    3.7920    1.9690 hn        1 4K0      0.311700
     37 H6          8.1510    1.4680    6.7350 ha        1 4K0      0.153000
     38 H5          9.0760    3.6880    7.5120 ha        1 4K0      0.145000
     39 H4          9.0400    5.6610    5.9680 h4        1 4K0      0.022100
@<TRIPOS>BOND
     1    1    2 3   
     2    2    3 1   
     3    3    4 ar  
     4    3    5 ar  
     5    4    8 ar  
     6    4   28 1   
     7    5    6 ar  
     8    5   29 1   
     9    6    7 ar  
    10    6   31 1   
    11    7    8 ar  
    12    7    9 1   
    13    8   30 1   
    14    9   10 2   
    15    9   14 1   
    16   10   11 1   
    17   11   12 1   
    18   11   15 1   
    19   12   13 1   
    20   12   17 2   
    21   13   14 2   
    22   14   32 1   
    23   15   16 2   
    24   15   18 1   
    25   16   17 1   
    26   18   19 1   
    27   18   33 1   
    28   18   34 1   
    29   19   20 2   
    30   19   21 1   
    31   20   25 1   
    32   20   35 1   
    33   21   22 ar  
    34   21   24 ar  
    35   22   23 ar  
    36   22   37 1   
    37   23   27 ar  
    38   23   38 1   
    39   24   25 1   
    40   24   26 ar  
    41   25   36 1   
    42   26   27 ar  
    43   27   39 1   
@<TRIPOS>SUBSTRUCTURE
     1 4K0         1 TEMP              0 ****  ****    0 ROOT
