@<TRIPOS>MOLECULE
4K0
   39    29     1     0     0
SMALL
bcc


@<TRIPOS>ATOM
      1 N23        -1.4450    2.9010   -6.8670 n1        1 4K0     -0.069500
      2 C22        -0.9270    2.9660   -5.8540 c1        1 4K0     -0.093000
      3 C19        -0.2390    3.0540   -4.5090 c1        1 4K0      0.007000
      4 C20        -0.9680    3.3990   -3.3810 c2        1 4K0     -0.093000
      5 C18         1.0960    2.7020   -4.3910 c1        1 4K0     -0.095000
      6 C17         1.7030    2.6960   -3.1450 c1        1 4K0     -0.099000
      7 C16         0.9750    3.0410   -2.0170 c1        1 4K0     -0.024000
      8 C21        -0.3600    3.3920   -2.1350 c1        1 4K0     -0.114000
      9 C12         1.6100    2.9410   -0.6480 c2        1 4K0     -0.062000
     10 N15         1.4140    1.6420   -0.4060 n1        1 4K0      0.023000
     11 N7          0.9990    1.2290    0.8350 n1        1 4K0     -0.069500
     12 C8          0.7910    2.1320    1.8070 c1        1 4K0     -0.093000
     13 N14         0.9920    3.4640    1.5600 n1        1 4K0     -0.015000
     14 C13         1.3960    3.8660    0.3500 c2        1 4K0     -0.082000
     15 C11         0.7490   -0.0080    1.3490 c1        1 4K0     -0.025000
     16 N10         0.3870    0.1410    2.6380 n2        1 4K0     -0.070000
     17 N9          0.4100    1.4600    2.9290 n1        1 4K0     -0.009000
     18 C24         1.1460   -1.4650    1.4530 c2        1 4K0     -0.008000
     19 C25        -0.0810   -2.3360    1.2900 c2        1 4K0     -0.162000
     20 C26        -0.6460   -2.5520    0.0480 c1        1 4K0     -0.052000
     21 C1         -0.6350   -3.2380    2.1720 c1        1 4K0     -0.108000
     22 C6         -0.4340   -3.4590    3.5240 c1        1 4K0     -0.124500
     23 C5         -1.1320   -4.4410    4.1670 c1        1 4K0     -0.124500
     24 C2         -1.5360   -4.0060    1.4800 c1        1 4K0      0.028000
     25 N27        -1.5410   -3.5790    0.1630 n1        1 4K0     -0.198000
     26 N3         -2.2420   -5.0000    2.1320 n1        1 4K0     -0.144000
     27 C4         -2.0440   -5.2180    3.4640 c1        1 4K0     -0.052000
     28 H20        -1.9080    3.6470   -3.4640 ha        1 4K0      0.154000
     29 H18         1.6080    2.4600   -5.1850 ha        1 4K0      0.153000
     30 H21        -0.8730    3.6350   -1.3410 ha        1 4K0      0.148000
     31 H17         2.6440    2.4480   -3.0620 ha        1 4K0      0.154000
     32 H13         1.5600    4.8140    0.1800 h4        1 4K0      0.190000
     33 H241        1.5490   -1.6320    2.3290 ha        1 4K0      0.119000
     34 H242        1.7930   -1.6780    0.7510 ha        1 4K0      0.119000
     35 H26        -0.4330   -2.0650   -0.7710 DU        1 4K0      0.217000
     36 H27        -2.0510   -3.9220   -0.5100 DU        1 4K0      0.217000
     37 H6          0.2070   -2.9130    4.0180 ha        1 4K0      0.149000
     38 H5         -0.9900   -4.5970    5.1210 ha        1 4K0      0.149000
     39 H4         -2.5430   -5.9200    3.9230 ha        1 4K0      0.159000
@<TRIPOS>BOND
     1    1    2 1   
     2    3    4 1   
     3    3    5 1   
     4    4    8 1   
     5    4   28 1   
     6    5   29 1   
     7    6    7 1   
     8    6   31 1   
     9    7    9 1   
    10    8   30 1   
    11    9   10 1   
    12    9   14 1   
    13   11   12 1   
    14   13   14 1   
    15   14   32 1   
    16   15   16 1   
    17   16   17 1   
    18   18   19 1   
    19   18   33 1   
    20   18   34 1   
    21   19   20 1   
    22   19   21 1   
    23   20   25 1   
    24   21   24 1   
    25   22   23 1   
    26   22   37 1   
    27   23   38 1   
    28   26   27 1   
    29   27   39 1   
@<TRIPOS>SUBSTRUCTURE
     1 4K0         1 TEMP              0 ****  ****    0 ROOT
