@<TRIPOS>MOLECULE
4K0
   39    43     1     0     0
SMALL
bcc


@<TRIPOS>ATOM
      1 N23        -7.3490    2.7940    0.5770 n1        1 4K0     -0.343800
      2 C22        -6.4060    2.1210    0.4640 cg        1 4K0      0.224800
      3 C19        -5.2540    1.3000    0.3260 ca        1 4K0      0.003000
      4 C20        -4.5720    1.2500   -0.8970 ca        1 4K0     -0.094000
      5 C18        -4.8000    0.5410    1.4140 ca        1 4K0     -0.094000
      6 C17        -3.6740   -0.2650    1.2760 ca        1 4K0     -0.106500
      7 C16        -2.9910   -0.3180    0.0530 ca        1 4K0     -0.131500
      8 C21        -3.4420    0.4450   -1.0310 ca        1 4K0     -0.106500
      9 C12        -1.8130   -1.1850   -0.0770 cc        1 4K0      0.308500
     10 N15        -0.7140   -0.7350   -0.6990 nd        1 4K0     -0.409800
     11 N7          0.2970   -1.5830   -0.7690 na        1 4K0     -0.078500
     12 C8          0.2510   -2.9500   -0.2170 cd        1 4K0      0.270500
     13 N14        -0.9000   -3.4070    0.4260 nd        1 4K0     -0.541000
     14 C13        -1.8860   -2.5420    0.4880 cc        1 4K0      0.317900
     15 C11         1.5910   -1.4790   -1.3280 cd        1 4K0      0.376800
     16 N10         2.2250   -2.6760   -1.1180 nc        1 4K0     -0.357700
     17 N9          1.4700   -3.5350   -0.4820 nc        1 4K0     -0.009000
     18 C24         2.1360   -0.2610   -1.9940 c3        1 4K0     -0.000500
     19 C25         2.5250    0.7700   -1.0230 cc        1 4K0     -0.154400
     20 C26         1.8320    1.9520   -0.7450 cd        1 4K0     -0.079100
     21 C1          3.7140    0.7740   -0.2030 ca        1 4K0     -0.185100
     22 C6          4.7940   -0.0900   -0.0040 ca        1 4K0     -0.044000
     23 C5          5.7690    0.2890    0.9060 ca        1 4K0     -0.270300
     24 C2          3.6820    2.0140    0.5630 ca        1 4K0      0.419800
     25 N27         2.5150    2.7080    0.2040 na        1 4K0     -0.284100
     26 N3          4.6420    2.3920    1.4610 nb        1 4K0     -0.670000
     27 C4          5.6470    1.5210    1.6010 ca        1 4K0      0.413200
     28 H20        -4.9270    1.8470   -1.7520 ha        1 4K0      0.153500
     29 H18        -5.3330    0.5830    2.3770 ha        1 4K0      0.153500
     30 H21        -2.9090    0.4110   -1.9940 ha        1 4K0      0.151000
     31 H17        -3.3140   -0.8520    2.1360 ha        1 4K0      0.151000
     32 H13        -2.8190   -2.8650    0.9850 h4        1 4K0      0.053100
     33 H241        3.0350   -0.5660   -2.6010 hc        1 4K0      0.079700
     34 H242        1.3620    0.1440   -2.7030 hc        1 4K0      0.079700
     35 H26         0.8870    2.3080   -1.1630 h4        1 4K0      0.172000
     36 H27         2.2370    3.5820    0.5660 hn        1 4K0      0.311700
     37 H6          4.8560   -1.0420   -0.5520 ha        1 4K0      0.153000
     38 H5          6.6380   -0.3530    1.1020 ha        1 4K0      0.145000
     39 H4          6.4260    1.8220    2.3270 h4        1 4K0      0.022100
@<TRIPOS>BOND
     1    1    2 3   
     2    2    3 1   
     3    3    4 ar  
     4    3    5 ar  
     5    4    8 ar  
     6    4   28 1   
     7    5    6 ar  
     8    5   29 1   
     9    6    7 ar  
    10    6   31 1   
    11    7    8 ar  
    12    7    9 1   
    13    8   30 1   
    14    9   10 2   
    15    9   14 1   
    16   10   11 1   
    17   11   12 1   
    18   11   15 1   
    19   12   13 1   
    20   12   17 2   
    21   13   14 2   
    22   14   32 1   
    23   15   16 2   
    24   15   18 1   
    25   16   17 1   
    26   18   19 1   
    27   18   33 1   
    28   18   34 1   
    29   19   20 2   
    30   19   21 1   
    31   20   25 1   
    32   20   35 1   
    33   21   22 ar  
    34   21   24 ar  
    35   22   23 ar  
    36   22   37 1   
    37   23   27 ar  
    38   23   38 1   
    39   24   25 1   
    40   24   26 ar  
    41   25   36 1   
    42   26   27 ar  
    43   27   39 1   
@<TRIPOS>SUBSTRUCTURE
     1 4K0         1 TEMP              0 ****  ****    0 ROOT
