@<TRIPOS>MOLECULE
4K0
   39    43     1     0     0
SMALL
bcc


@<TRIPOS>ATOM
      1 N23        -1.1950    0.6670   -2.0360 n1        1 4K0     -0.343800
      2 C22        -0.5830    0.5320   -1.0560 cg        1 4K0      0.224800
      3 C19         0.1660    0.3680    0.1410 ca        1 4K0      0.003000
      4 C20         1.2790   -0.4840    0.1600 ca        1 4K0     -0.094000
      5 C18        -0.2080    1.0600    1.3020 ca        1 4K0     -0.094000
      6 C17         0.5240    0.8970    2.4740 ca        1 4K0     -0.106500
      7 C16         1.6360    0.0430    2.4960 ca        1 4K0     -0.131500
      8 C21         2.0120   -0.6430    1.3340 ca        1 4K0     -0.106500
      9 C12         2.3870   -0.1280    3.7460 cc        1 4K0      0.308500
     10 N15         3.7270   -0.1240    3.7290 nd        1 4K0     -0.409800
     11 N7          4.3200   -0.2850    4.8990 na        1 4K0     -0.078500
     12 C8          3.5840   -0.4670    6.1650 cd        1 4K0      0.270500
     13 N14         2.1890   -0.4710    6.1680 nd        1 4K0     -0.541000
     14 C13         1.6260   -0.3020    4.9930 cc        1 4K0      0.317900
     15 C11         5.6790   -0.3320    5.2800 cd        1 4K0      0.376800
     16 N10         5.7180   -0.5270    6.6370 nc        1 4K0     -0.357700
     17 N9          4.5230   -0.6090    7.1630 nc        1 4K0     -0.009000
     18 C24         6.8320   -0.1710    4.3480 c3        1 4K0     -0.000500
     19 C25         7.0390    1.2330    3.9660 cc        1 4K0     -0.154400
     20 C26         6.7210    1.8120    2.7350 cd        1 4K0     -0.079100
     21 C1          7.6420    2.2650    4.7770 ca        1 4K0     -0.185100
     22 C6          8.1620    2.3430    6.0710 ca        1 4K0     -0.044000
     23 C5          8.6690    3.5630    6.4940 ca        1 4K0     -0.270300
     24 C2          7.6630    3.4710    3.9590 ca        1 4K0      0.419800
     25 N27         7.0910    3.1550    2.7160 na        1 4K0     -0.284100
     26 N3          8.1630    4.6760    4.3720 nb        1 4K0     -0.670000
     27 C4          8.6470    4.6800    5.6190 ca        1 4K0      0.413200
     28 H20         1.5740   -1.0270   -0.7510 ha        1 4K0      0.153500
     29 H18        -1.0790    1.7340    1.2860 ha        1 4K0      0.153500
     30 H21         2.8860   -1.3130    1.3430 ha        1 4K0      0.151000
     31 H17         0.2330    1.4490    3.3810 ha        1 4K0      0.151000
     32 H13         0.5220   -0.3040    4.9500 h4        1 4K0      0.053100
     33 H241        7.7560   -0.5610    4.8610 hc        1 4K0      0.079700
     34 H242        6.6530   -0.8000    3.4330 hc        1 4K0      0.079700
     35 H26         6.2490    1.3550    1.8620 h4        1 4K0      0.172000
     36 H27         6.9770    3.7830    1.9640 hn        1 4K0      0.311700
     37 H6          8.1580    1.4610    6.7290 ha        1 4K0      0.153000
     38 H5          9.0880    3.6800    7.5020 ha        1 4K0      0.145000
     39 H4          9.0510    5.6520    5.9570 h4        1 4K0      0.022100
@<TRIPOS>BOND
     1    1    2 3   
     2    2    3 1   
     3    3    4 ar  
     4    3    5 ar  
     5    4    8 ar  
     6    4   28 1   
     7    5    6 ar  
     8    5   29 1   
     9    6    7 ar  
    10    6   31 1   
    11    7    8 ar  
    12    7    9 1   
    13    8   30 1   
    14    9   10 2   
    15    9   14 1   
    16   10   11 1   
    17   11   12 1   
    18   11   15 1   
    19   12   13 1   
    20   12   17 2   
    21   13   14 2   
    22   14   32 1   
    23   15   16 2   
    24   15   18 1   
    25   16   17 1   
    26   18   19 1   
    27   18   33 1   
    28   18   34 1   
    29   19   20 2   
    30   19   21 1   
    31   20   25 1   
    32   20   35 1   
    33   21   22 ar  
    34   21   24 ar  
    35   22   23 ar  
    36   22   37 1   
    37   23   27 ar  
    38   23   38 1   
    39   24   25 1   
    40   24   26 ar  
    41   25   36 1   
    42   26   27 ar  
    43   27   39 1   
@<TRIPOS>SUBSTRUCTURE
     1 4K0         1 TEMP              0 ****  ****    0 ROOT
