@<TRIPOS>MOLECULE
4K0
   39    43     1     0     0
SMALL
bcc


@<TRIPOS>ATOM
      1 N23        -1.1820    0.5220   -2.0320 n1        1 4K0     -0.343800
      2 C22        -0.5760    0.4090   -1.0460 cg        1 4K0      0.224800
      3 C19         0.1650    0.2710    0.1600 ca        1 4K0      0.003000
      4 C20         1.2680   -0.5930    0.2100 ca        1 4K0     -0.094000
      5 C18        -0.2070    1.0010    1.2980 ca        1 4K0     -0.094000
      6 C17         0.5180    0.8630    2.4780 ca        1 4K0     -0.106500
      7 C16         1.6200   -0.0030    2.5310 ca        1 4K0     -0.131500
      8 C21         1.9940   -0.7260    1.3910 ca        1 4K0     -0.106500
      9 C12         2.3630   -0.1450    3.7890 cc        1 4K0      0.308500
     10 N15         3.7030   -0.1580    3.7780 nd        1 4K0     -0.409800
     11 N7          4.2880   -0.2910    4.9560 na        1 4K0     -0.078500
     12 C8          3.5440   -0.4280    6.2230 cd        1 4K0      0.270500
     13 N14         2.1490   -0.4160    6.2200 nd        1 4K0     -0.541000
     14 C13         1.5940   -0.2750    5.0370 cc        1 4K0      0.317900
     15 C11         5.6450   -0.3440    5.3460 cd        1 4K0      0.376800
     16 N10         5.6760   -0.5000    6.7070 nc        1 4K0     -0.357700
     17 N9          4.4760   -0.5510    7.2290 nc        1 4K0     -0.009000
     18 C24         6.8040   -0.2240    4.4150 c3        1 4K0     -0.000500
     19 C25         7.0310    1.1670    3.9950 cc        1 4K0     -0.154400
     20 C26         6.7280    1.7160    2.7470 cd        1 4K0     -0.079100
     21 C1          7.6430    2.2120    4.7810 ca        1 4K0     -0.185100
     22 C6          8.1560    2.3200    6.0760 ca        1 4K0     -0.044000
     23 C5          8.6770    3.5440    6.4680 ca        1 4K0     -0.270300
     24 C2          7.6850    3.3950    3.9300 ca        1 4K0      0.419800
     25 N27         7.1160    3.0520    2.6930 na        1 4K0     -0.284100
     26 N3          8.1980    4.6040    4.3130 nb        1 4K0     -0.670000
     27 C4          8.6740    4.6370    5.5620 ca        1 4K0      0.413200
     28 H20         1.5610   -1.1650   -0.6840 ha        1 4K0      0.153500
     29 H18        -1.0710    1.6830    1.2590 ha        1 4K0      0.153500
     30 H21         2.8600   -1.4050    1.4240 ha        1 4K0      0.151000
     31 H17         0.2290    1.4440    3.3680 ha        1 4K0      0.151000
     32 H13         0.4900   -0.2640    4.9890 h4        1 4K0      0.053100
     33 H241        6.6200   -0.8760    3.5170 hc        1 4K0      0.079700
     34 H242        7.7210   -0.6120    4.9430 hc        1 4K0      0.079700
     35 H26         6.2560    1.2400    1.8840 h4        1 4K0      0.172000
     36 H27         7.0140    3.6600    1.9230 hn        1 4K0      0.311700
     37 H6          8.1370    1.4560    6.7580 ha        1 4K0      0.153000
     38 H5          9.0910    3.6830    7.4750 ha        1 4K0      0.145000
     39 H4          9.0900    5.6120    5.8770 h4        1 4K0      0.022100
@<TRIPOS>BOND
     1    1    2 3   
     2    2    3 1   
     3    3    4 ar  
     4    3    5 ar  
     5    4    8 ar  
     6    4   28 1   
     7    5    6 ar  
     8    5   29 1   
     9    6    7 ar  
    10    6   31 1   
    11    7    8 ar  
    12    7    9 1   
    13    8   30 1   
    14    9   10 2   
    15    9   14 1   
    16   10   11 1   
    17   11   12 1   
    18   11   15 1   
    19   12   13 1   
    20   12   17 2   
    21   13   14 2   
    22   14   32 1   
    23   15   16 2   
    24   15   18 1   
    25   16   17 1   
    26   18   19 1   
    27   18   33 1   
    28   18   34 1   
    29   19   20 2   
    30   19   21 1   
    31   20   25 1   
    32   20   35 1   
    33   21   22 ar  
    34   21   24 ar  
    35   22   23 ar  
    36   22   37 1   
    37   23   27 ar  
    38   23   38 1   
    39   24   25 1   
    40   24   26 ar  
    41   25   36 1   
    42   26   27 ar  
    43   27   39 1   
@<TRIPOS>SUBSTRUCTURE
     1 4K0         1 TEMP              0 ****  ****    0 ROOT
