@<TRIPOS>MOLECULE
4K1
   72    75     1     0     0
SMALL
bcc


@<TRIPOS>ATOM
      1 C13        -0.1310    0.3520   -0.6090 ca        1 4K1     -0.041500
      2 C18         5.5990   -5.6210    1.1840 c3        1 4K1      0.133400
      3 C17        -2.4750    0.3190    0.2100 ce        1 4K1      0.600800
      4 C16         0.8320    0.3110    2.0150 ca        1 4K1     -0.194000
      5 C15        -0.5310    0.3310    1.7800 ca        1 4K1     -0.041500
      6 C19         5.9490   -6.2090    2.5290 c3        1 4K1     -0.109100
      7 C21         7.4350    1.2400    1.5320 cc        1 4K1      0.309800
      8 C22         6.9130    2.5020    1.1520 cd        1 4K1     -0.162600
      9 C11         1.7590    0.3260    0.9320 ca        1 4K1      0.228600
     10 C12         1.2380    0.3320   -0.3880 ca        1 4K1     -0.194000
     11 C34        11.2430    0.4730    3.2930 ca        1 4K1     -0.113000
     12 C27         4.7760   -4.2770   -5.2710 c3        1 4K1     -0.115600
     13 C33        11.0110    1.6540    2.5830 ca        1 4K1     -0.062000
     14 C1          4.2340   -1.5910   -1.5350 ca        1 4K1      0.083900
     15 C2          4.4090   -1.1980   -0.1980 ca        1 4K1     -0.102300
     16 C3          4.8570   -2.1270    0.7450 ca        1 4K1     -0.187000
     17 C4          5.2150   -3.4160    0.3310 ca        1 4K1      0.124100
     18 C5          5.0450   -3.8370   -0.9940 ca        1 4K1     -0.235000
     19 C6          4.5420   -2.9300   -1.9300 ca        1 4K1      0.167100
     20 O7          5.8200   -4.1990    1.2980 os        1 4K1     -0.403900
     21 C8          4.1370    0.2370    0.2040 c3        1 4K1      0.248500
     22 N9          3.1140    0.4050    1.2160 nu        1 4K1     -0.747600
     23 C10         5.4260    0.8770    0.6930 cd        1 4K1      0.406800
     24 C14        -1.0270    0.3580    0.4680 ca        1 4K1     -0.325900
     25 N20         6.4910    0.2460    1.2400 nc        1 4K1     -0.727000
     26 N23         5.6510    2.2630    0.6320 na        1 4K1     -0.280900
     27 F24         3.7760   -0.7180   -2.4620 f         1 4K1     -0.120900
     28 O25         4.3130   -3.1820   -3.2510 os        1 4K1     -0.309900
     29 C26         4.6580   -4.4910   -3.7730 c3        1 4K1      0.142100
     30 C28         3.5720   -5.4890   -3.4330 c3        1 4K1     -0.115600
     31 C29         8.7240    0.9660    2.1340 ca        1 4K1     -0.035500
     32 N30        -3.2240   -0.5680   -0.3230 n2        1 4K1     -0.709100
     33 N31        -3.1620    1.5850    0.6640 nz        1 4K1     -0.825600
     34 C32         9.7670    1.8980    2.0080 ca        1 4K1     -0.122000
     35 C35        10.2240   -0.4660    3.4270 ca        1 4K1     -0.085000
     36 C36         8.9700   -0.2210    2.8520 ca        1 4K1     -0.196600
     37 C37         7.8970   -1.2020    3.0760 c         1 4K1      0.612700
     38 N38         7.8470   -2.3180    2.0490 nz        1 4K1     -0.762400
     39 O39         7.0540   -1.2700    3.9530 o         1 4K1     -0.408100
     40 H45        -0.5070    0.3530   -1.6450 ha        1 4K1      0.147500
     41 H49         4.5290   -5.8160    0.9140 h1        1 4K1      0.055700
     42 H48         6.2730   -6.0110    0.3760 h1        1 4K1      0.055700
     43 H47         1.1960    0.2820    3.0550 ha        1 4K1      0.164000
     44 H46        -1.2230    0.3010    2.6370 ha        1 4K1      0.147500
     45 H52         5.2720   -5.8130    3.3230 hc        1 4K1      0.059033
     46 H51         7.0030   -5.9670    2.8060 hc        1 4K1      0.059033
     47 H50         5.8370   -7.3200    2.4780 hc        1 4K1      0.059033
     48 H53         7.3420    3.5030    1.2260 h4        1 4K1      0.208000
     49 H44         1.9100    0.3010   -1.2620 ha        1 4K1      0.164000
     50 H67        12.2280    0.2850    3.7500 ha        1 4K1      0.171000
     51 H58         5.0300   -5.2500   -5.7560 hc        1 4K1      0.059033
     52 H56         3.8110   -3.9010   -5.6890 hc        1 4K1      0.059033
     53 H57         5.5750   -3.5320   -5.4960 hc        1 4K1      0.059033
     54 H66        11.8190    2.3990    2.4790 ha        1 4K1      0.170000
     55 H40         4.9310   -1.8580    1.8090 ha        1 4K1      0.153000
     56 H41         5.2990   -4.8660   -1.2870 ha        1 4K1      0.169000
     57 H42         3.8090    0.8100   -0.7210 h1        1 4K1      0.100700
     58 H43         3.3810    0.1240    2.1370 hn        1 4K1      0.438800
     59 H54         5.0230    2.9410    0.2800 hn        1 4K1      0.326700
     60 H55         5.6500   -4.8070   -3.3490 h1        1 4K1      0.049700
     61 H61         3.4530   -5.5870   -2.3270 hc        1 4K1      0.059033
     62 H59         3.8380   -6.4870   -3.8590 hc        1 4K1      0.059033
     63 H60         2.5960   -5.1640   -3.8660 hc        1 4K1      0.059033
     64 H62        -2.8090   -1.4250   -0.6280 hn        1 4K1      0.489400
     65 H64        -2.8170    2.3610    0.0890 hn        1 4K1      0.469800
     66 H65         9.5950    2.8300    1.4460 ha        1 4K1      0.157000
     67 H68        10.4020   -1.3870    4.0050 ha        1 4K1      0.150000
     68 H70         7.2650   -2.0200    1.2490 hn        1 4K1      0.472467
     69 H69         7.4070   -3.1620    2.4420 hn        1 4K1      0.472467
     70 H1         -4.1850    1.5240    0.5770 hn        1 4K1      0.469800
     71 H313       -2.9090    1.7520    1.6430 hn        1 4K1      0.469800
     72 H383        8.7870   -2.5340    1.7140 hn        1 4K1      0.472467
@<TRIPOS>BOND
     1    1   10 ar  
     2    1   24 ar  
     3    1   40 1   
     4    2    6 1   
     5    2   20 1   
     6    2   41 1   
     7    2   42 1   
     8    3   24 1   
     9    3   32 2   
    10    3   33 1   
    11    4    5 ar  
    12    4    9 ar  
    13    4   43 1   
    14    5   24 ar  
    15    5   44 1   
    16    6   45 1   
    17    6   46 1   
    18    6   47 1   
    19    7    8 2   
    20    7   25 1   
    21    7   31 1   
    22    8   26 1   
    23    8   48 1   
    24    9   10 ar  
    25    9   22 1   
    26   10   49 1   
    27   11   13 ar  
    28   11   35 ar  
    29   11   50 1   
    30   12   29 1   
    31   12   51 1   
    32   12   52 1   
    33   12   53 1   
    34   13   34 ar  
    35   13   54 1   
    36   14   15 ar  
    37   14   19 ar  
    38   14   27 1   
    39   15   16 ar  
    40   15   21 1   
    41   16   17 ar  
    42   16   55 1   
    43   17   18 ar  
    44   17   20 1   
    45   18   19 ar  
    46   18   56 1   
    47   19   28 1   
    48   21   22 1   
    49   21   23 1   
    50   21   57 1   
    51   22   58 1   
    52   23   25 2   
    53   23   26 1   
    54   26   59 1   
    55   28   29 1   
    56   29   30 1   
    57   29   60 1   
    58   30   61 1   
    59   30   62 1   
    60   30   63 1   
    61   31   34 ar  
    62   31   36 ar  
    63   32   64 1   
    64   33   65 1   
    65   33   70 1   
    66   33   71 1   
    67   34   66 1   
    68   35   36 ar  
    69   35   67 1   
    70   36   37 1   
    71   37   38 1   
    72   37   39 2   
    73   38   68 1   
    74   38   69 1   
    75   38   72 1   
@<TRIPOS>SUBSTRUCTURE
     1 4K1         1 TEMP              0 ****  ****    0 ROOT
