@<TRIPOS>MOLECULE
4K1
   72    75     1     0     0
SMALL
bcc


@<TRIPOS>ATOM
      1 C13        -0.1070    0.3820   -0.6680 ca        1 4K1     -0.041500
      2 C18         5.5630   -5.6280    1.1920 c3        1 4K1      0.133400
      3 C17        -2.4630    0.3620    0.1180 ce        1 4K1      0.600800
      4 C16         0.8190    0.3310    1.9680 ca        1 4K1     -0.194000
      5 C15        -0.5400    0.3600    1.7140 ca        1 4K1     -0.041500
      6 C19         5.8910   -6.2210    2.5410 c3        1 4K1     -0.109100
      7 C21         7.4340    1.2200    1.5750 cc        1 4K1      0.309800
      8 C22         6.9250    2.4860    1.1910 cd        1 4K1     -0.162600
      9 C11         1.7620    0.3420    0.8980 ca        1 4K1      0.228600
     10 C12         1.2580    0.3540   -0.4290 ca        1 4K1     -0.194000
     11 C34        11.2150    0.4280    3.3820 ca        1 4K1     -0.113000
     12 C27         4.8330   -4.2700   -5.2720 c3        1 4K1     -0.115600
     13 C33        10.9990    1.6120    2.6720 ca        1 4K1     -0.062000
     14 C1          4.2580   -1.5870   -1.5380 ca        1 4K1      0.083900
     15 C2          4.4170   -1.1960   -0.1980 ca        1 4K1     -0.102300
     16 C3          4.8470   -2.1290    0.7480 ca        1 4K1     -0.187000
     17 C4          5.2030   -3.4200    0.3370 ca        1 4K1      0.124100
     18 C5          5.0480   -3.8380   -0.9900 ca        1 4K1     -0.235000
     19 C6          4.5630   -2.9270   -1.9320 ca        1 4K1      0.167100
     20 O7          5.7900   -4.2080    1.3110 os        1 4K1     -0.403900
     21 C8          4.1490    0.2390    0.2020 c3        1 4K1      0.248500
     22 N9          3.1130    0.4120    1.2000 nh        1 4K1     -0.747600
     23 C10         5.4350    0.8710    0.7100 cd        1 4K1      0.406800
     24 C14        -1.0180    0.3920    0.3960 ca        1 4K1     -0.325900
     25 N20         6.4890    0.2330    1.2680 nc        1 4K1     -0.727000
     26 N23         5.6680    2.2560    0.6550 na        1 4K1     -0.280900
     27 F24         3.8170   -0.7100   -2.4710 f         1 4K1     -0.120900
     28 O25         4.3490   -3.1760   -3.2560 os        1 4K1     -0.309900
     29 C26         4.6940   -4.4860   -3.7750 c3        1 4K1      0.142100
     30 C28         3.5990   -5.4790   -3.4510 c3        1 4K1     -0.115600
     31 C29         8.7140    0.9380    2.1920 ca        1 4K1     -0.035500
     32 N30        -3.2090   -0.5180   -0.4260 n2        1 4K1     -0.709100
     33 N31        -3.1470    1.6320    0.5650 n4        1 4K1     -0.825600
     34 C32         9.7630    1.8640    2.0820 ca        1 4K1     -0.122000
     35 C35        10.1890   -0.5050    3.5020 ca        1 4K1     -0.085000
     36 C36         8.9440   -0.2510    2.9110 ca        1 4K1     -0.196600
     37 C37         7.8620   -1.2260    3.1200 c         1 4K1      0.612700
     38 N38         7.8190   -2.3410    2.0900 n4        1 4K1     -0.762400
     39 O39         7.0080   -1.2910    3.9860 o         1 4K1     -0.408100
     40 H45        -0.4690    0.3880   -1.7100 ha        1 4K1      0.147500
     41 H49         4.4950   -5.8160    0.9080 h1        1 4K1      0.055700
     42 H48         6.2440   -6.0220    0.3920 h1        1 4K1      0.055700
     43 H47         1.1690    0.2970    3.0130 ha        1 4K1      0.164000
     44 H46        -1.2440    0.3320    2.5630 ha        1 4K1      0.147500
     45 H52         5.7730   -7.3310    2.4860 hc        1 4K1      0.059033
     46 H51         6.9420   -5.9850    2.8320 hc        1 4K1      0.059033
     47 H50         5.2060   -5.8220    3.3270 hc        1 4K1      0.059033
     48 H53         7.3580    3.4850    1.2730 h4        1 4K1      0.208000
     49 H44         1.9420    0.3200   -1.2940 ha        1 4K1      0.164000
     50 H67        12.1930    0.2340    3.8520 ha        1 4K1      0.171000
     51 H58         5.6400   -3.5290   -5.4840 hc        1 4K1      0.059033
     52 H56         5.0890   -5.2440   -5.7550 hc        1 4K1      0.059033
     53 H57         3.8770   -3.8880   -5.7020 hc        1 4K1      0.059033
     54 H66        11.8120    2.3530    2.5790 ha        1 4K1      0.170000
     55 H40         4.9090   -1.8620    1.8140 ha        1 4K1      0.153000
     56 H41         5.3000   -4.8680   -1.2820 ha        1 4K1      0.169000
     57 H42         3.8360    0.8150   -0.7270 h1        1 4K1      0.100700
     58 H43         3.3660    0.1270    2.1240 hn        1 4K1      0.438800
     59 H54         5.0480    2.9380    0.2960 hn        1 4K1      0.326700
     60 H55         5.6790   -4.8080   -3.3390 h1        1 4K1      0.049700
     61 H61         2.6300   -5.1470   -3.8970 hc        1 4K1      0.059033
     62 H59         3.8650   -6.4770   -3.8750 hc        1 4K1      0.059033
     63 H60         3.4640   -5.5770   -2.3480 hc        1 4K1      0.059033
     64 H62        -2.7960   -1.3770   -0.7270 hn        1 4K1      0.489400
     65 H64        -2.9060    1.7960    1.5480 hn        1 4K1      0.469800
     66 H65         9.6050    2.7980    1.5190 ha        1 4K1      0.157000
     67 H68        10.3540   -1.4280    4.0800 ha        1 4K1      0.150000
     68 H70         7.2480   -2.0380    1.2840 hn        1 4K1      0.472467
     69 H69         7.3700   -3.1820    2.4770 hn        1 4K1      0.472467
     70 H1         -4.1690    1.5780    0.4640 hn        1 4K1      0.469800
     71 H313       -2.7900    2.4060   -0.0030 hn        1 4K1      0.469800
     72 H383        8.7610   -2.5620    1.7680 hn        1 4K1      0.472467
@<TRIPOS>BOND
     1    1   10 ar  
     2    1   24 ar  
     3    1   40 1   
     4    2    6 1   
     5    2   20 1   
     6    2   41 1   
     7    2   42 1   
     8    3   24 1   
     9    3   32 2   
    10    3   33 1   
    11    4    5 ar  
    12    4    9 ar  
    13    4   43 1   
    14    5   24 ar  
    15    5   44 1   
    16    6   45 1   
    17    6   46 1   
    18    6   47 1   
    19    7    8 2   
    20    7   25 1   
    21    7   31 1   
    22    8   26 1   
    23    8   48 1   
    24    9   10 ar  
    25    9   22 1   
    26   10   49 1   
    27   11   13 ar  
    28   11   35 ar  
    29   11   50 1   
    30   12   29 1   
    31   12   51 1   
    32   12   52 1   
    33   12   53 1   
    34   13   34 ar  
    35   13   54 1   
    36   14   15 ar  
    37   14   19 ar  
    38   14   27 1   
    39   15   16 ar  
    40   15   21 1   
    41   16   17 ar  
    42   16   55 1   
    43   17   18 ar  
    44   17   20 1   
    45   18   19 ar  
    46   18   56 1   
    47   19   28 1   
    48   21   22 1   
    49   21   23 1   
    50   21   57 1   
    51   22   58 1   
    52   23   25 2   
    53   23   26 1   
    54   26   59 1   
    55   28   29 1   
    56   29   30 1   
    57   29   60 1   
    58   30   61 1   
    59   30   62 1   
    60   30   63 1   
    61   31   34 ar  
    62   31   36 ar  
    63   32   64 1   
    64   33   65 1   
    65   33   70 1   
    66   33   71 1   
    67   34   66 1   
    68   35   36 ar  
    69   35   67 1   
    70   36   37 1   
    71   37   38 1   
    72   37   39 2   
    73   38   68 1   
    74   38   69 1   
    75   38   72 1   
@<TRIPOS>SUBSTRUCTURE
     1 4K1         1 TEMP              0 ****  ****    0 ROOT
