@<TRIPOS>MOLECULE
4K2
   35    37     1     0     0
SMALL
bcc


@<TRIPOS>ATOM
      1 C12         0.0730   -0.2460   -0.0420 ca        1 4K2     -0.115000
      2 C18         3.8880    0.1710    2.9090 ca        1 4K2     -0.246300
      3 C14         1.4340   -0.2640    0.1420 ca        1 4K2     -0.117000
      4 C15         3.4010   -0.0470    1.6460 ca        1 4K2     -0.080000
      5 C11        -0.7960   -0.0040    1.0440 ca        1 4K2     -0.123000
      6 C13         2.9540    0.3920    3.9710 ca        1 4K2      0.414200
      7 C8          1.9930   -0.0460    1.4260 ca        1 4K2     -0.136300
      8 C5          1.1400    0.1880    2.5500 ca        1 4K2      0.390600
      9 C4         -0.2770    0.1960    2.3070 ca        1 4K2      0.087800
     10 C1         -1.2060    1.4960    4.0650 c         1 4K2      0.738100
     11 C19        -1.1690    0.9670    7.9960 c3        1 4K2     -0.078400
     12 C16        -0.8150    2.2670    7.3030 c3        1 4K2     -0.109900
     13 C17        -1.2800   -0.1690    7.0020 c3        1 4K2     -0.109900
     14 C9         -1.7850    2.5650    6.1590 c3        1 4K2      0.071000
     15 C10        -2.2480    0.1860    5.8710 c3        1 4K2      0.071000
     16 N6          1.6420    0.4020    3.8190 nb        1 4K2     -0.651000
     17 N2         -1.9800    1.4610    5.2300 n         1 4K2     -0.396800
     18 O7         -0.6870    2.4850    3.5310 o         1 4K2     -0.554000
     19 O3         -1.1750    0.2840    3.3670 os        1 4K2     -0.364200
     20 H1         -0.3610   -0.4120   -1.0400 ha        1 4K2      0.139000
     21 H2          4.9640    0.1830    3.1260 ha        1 4K2      0.145000
     22 H3          2.1140   -0.4450   -0.7050 ha        1 4K2      0.136000
     23 H4          4.0730   -0.2220    0.7920 ha        1 4K2      0.140000
     24 H5         -1.8850    0.0180    0.8860 ha        1 4K2      0.153000
     25 H6          3.3270    0.5690    4.9970 h4        1 4K2      0.022100
     26 H8         -0.3860    0.7230    8.7610 hc        1 4K2      0.042200
     27 H9         -0.8590    3.1150    8.0330 hc        1 4K2      0.054700
     28 H10         0.2320    2.2110    6.9060 hc        1 4K2      0.054700
     29 H11        -0.2700   -0.4030    6.5760 hc        1 4K2      0.054700
     30 H12        -1.6570   -1.0920    7.5130 hc        1 4K2      0.054700
     31 H13        -1.4290    3.4700    5.5910 h1        1 4K2      0.067700
     32 H14        -2.8030    2.7900    6.5890 h1        1 4K2      0.067700
     33 H15        -3.2900    0.2650    6.2960 h1        1 4K2      0.067700
     34 H16        -2.2430   -0.6360    5.1020 h1        1 4K2      0.067700
     35 H7         -2.1440    1.0860    8.5380 hc        1 4K2      0.042200
@<TRIPOS>BOND
     1    1    3 ar  
     2    1    5 ar  
     3    1   20 1   
     4    2    4 ar  
     5    2    6 ar  
     6    2   21 1   
     7    3    7 ar  
     8    3   22 1   
     9    4    7 ar  
    10    4   23 1   
    11    5    9 ar  
    12    5   24 1   
    13    6   16 ar  
    14    6   25 1   
    15    7    8 ar  
    16    8    9 ar  
    17    8   16 ar  
    18    9   19 1   
    19   10   17 1   
    20   10   18 2   
    21   10   19 1   
    22   11   12 1   
    23   11   13 1   
    24   11   26 1   
    25   11   35 1   
    26   12   14 1   
    27   12   27 1   
    28   12   28 1   
    29   13   15 1   
    30   13   29 1   
    31   13   30 1   
    32   14   17 1   
    33   14   31 1   
    34   14   32 1   
    35   15   17 1   
    36   15   33 1   
    37   15   34 1   
@<TRIPOS>SUBSTRUCTURE
     1 4K2         1 TEMP              0 ****  ****    0 ROOT
