@<TRIPOS>MOLECULE
4K2
   35    37     1     0     0
SMALL
bcc


@<TRIPOS>ATOM
      1 C12         0.0830   -0.2480   -0.0420 ca        1 4K2     -0.115000
      2 C18         3.8920    0.1900    2.9150 ca        1 4K2     -0.246300
      3 C14         1.4440   -0.2590    0.1440 ca        1 4K2     -0.117000
      4 C15         3.4080   -0.0310    1.6510 ca        1 4K2     -0.080000
      5 C11        -0.7890   -0.0100    1.0440 ca        1 4K2     -0.123000
      6 C13         2.9550    0.4060    3.9760 ca        1 4K2      0.414200
      7 C8          2.0000   -0.0370    1.4290 ca        1 4K2     -0.136300
      8 C5          1.1450    0.1920    2.5510 ca        1 4K2      0.390600
      9 C4         -0.2720    0.1930    2.3070 ca        1 4K2      0.087800
     10 C1         -1.2110    1.4900    4.0630 c         1 4K2      0.738100
     11 C19        -1.1740    0.9640    7.9940 c3        1 4K2     -0.078400
     12 C16        -0.8280    2.2650    7.3000 c3        1 4K2     -0.109900
     13 C17        -1.2780   -0.1740    7.0010 c3        1 4K2     -0.109900
     14 C9         -1.7990    2.5560    6.1550 c3        1 4K2      0.071000
     15 C10        -2.2460    0.1740    5.8690 c3        1 4K2      0.071000
     16 N6          1.6430    0.4100    3.8220 nb        1 4K2     -0.651000
     17 N2         -1.9860    1.4510    5.2260 n         1 4K2     -0.396800
     18 O7         -0.6970    2.4810    3.5280 o         1 4K2     -0.554000
     19 O3         -1.1720    0.2770    3.3650 os        1 4K2     -0.364200
     20 H1         -0.3480   -0.4170   -1.0400 ha        1 4K2      0.139000
     21 H2          4.9670    0.2070    3.1340 ha        1 4K2      0.145000
     22 H3          2.1270   -0.4360   -0.7010 ha        1 4K2      0.136000
     23 H4          4.0820   -0.2030    0.7990 ha        1 4K2      0.140000
     24 H5         -1.8770    0.0060    0.8840 ha        1 4K2      0.153000
     25 H6          3.3260    0.5860    5.0020 h4        1 4K2      0.022100
     26 H8         -2.1500    1.0780    8.5360 hc        1 4K2      0.042200
     27 H9          0.2200    2.2160    6.9040 hc        1 4K2      0.054700
     28 H10        -0.8770    3.1140    8.0290 hc        1 4K2      0.054700
     29 H11        -0.2660   -0.4020    6.5760 hc        1 4K2      0.054700
     30 H12        -1.6490   -1.0980    7.5130 hc        1 4K2      0.054700
     31 H13        -1.4470    3.4630    5.5860 h1        1 4K2      0.067700
     32 H14        -2.8180    2.7760    6.5840 h1        1 4K2      0.067700
     33 H15        -3.2890    0.2480    6.2930 h1        1 4K2      0.067700
     34 H16        -2.2360   -0.6480    5.1010 h1        1 4K2      0.067700
     35 H7         -0.3910    0.7260    8.7600 hc        1 4K2      0.042200
@<TRIPOS>BOND
     1    1    3 ar  
     2    1    5 ar  
     3    1   20 1   
     4    2    4 ar  
     5    2    6 ar  
     6    2   21 1   
     7    3    7 ar  
     8    3   22 1   
     9    4    7 ar  
    10    4   23 1   
    11    5    9 ar  
    12    5   24 1   
    13    6   16 ar  
    14    6   25 1   
    15    7    8 ar  
    16    8    9 ar  
    17    8   16 ar  
    18    9   19 1   
    19   10   17 1   
    20   10   18 2   
    21   10   19 1   
    22   11   12 1   
    23   11   13 1   
    24   11   26 1   
    25   11   35 1   
    26   12   14 1   
    27   12   27 1   
    28   12   28 1   
    29   13   15 1   
    30   13   29 1   
    31   13   30 1   
    32   14   17 1   
    33   14   31 1   
    34   14   32 1   
    35   15   17 1   
    36   15   33 1   
    37   15   34 1   
@<TRIPOS>SUBSTRUCTURE
     1 4K2         1 TEMP              0 ****  ****    0 ROOT
