@<TRIPOS>MOLECULE
4K3
   23    23     1     0     0
SMALL
bcc


@<TRIPOS>ATOM
      1 C12        -0.1970   -0.1120    0.0040 ca        1 4K3     -0.157000
      2 C10         1.1330    0.2770   -0.1270 ca        1 4K3     -0.104000
      3 C11        -0.7160   -0.3600    1.2740 ca        1 4K3     -0.104000
      4 C9          1.9520    0.4200    0.9910 ca        1 4K3     -0.170000
      5 C8          0.0810   -0.2240    2.4040 ca        1 4K3     -0.170000
      6 C6          1.4370    0.1720    2.2800 ca        1 4K3      0.068600
      7 C3          4.0750    0.7100    4.9890 c3        1 4K3     -0.147400
      8 C5          5.5220    1.1300    4.9870 c3        1 4K3      0.016700
      9 C2          3.5310    0.6700    3.5660 c         1 4K3      0.667100
     10 N1          2.2000    0.2950    3.4530 n         1 4K3     -0.472100
     11 O7          4.2470    0.9560    2.5910 o         1 4K3     -0.589100
     12 S4          6.0520    1.1440    6.6790 sh        1 4K3     -0.387900
     13 H1         -0.8340   -0.2220   -0.8850 ha        1 4K3      0.133000
     14 H2          1.5520    0.4750   -1.1250 ha        1 4K3      0.133500
     15 H3         -1.7670   -0.6680    1.3880 ha        1 4K3      0.133500
     16 H4          3.0010    0.7300    0.8530 ha        1 4K3      0.149500
     17 H5         -0.3540   -0.4260    3.3940 ha        1 4K3      0.149500
     18 H6          3.9730   -0.3070    5.4550 hc        1 4K3      0.080700
     19 H7          5.6340    2.1410    4.5250 h1        1 4K3      0.080200
     20 H8          1.7170    0.0870    4.2990 hn        1 4K3      0.315500
     21 H9          7.3060    1.5220    6.4990 hs        1 4K3      0.212800
     22 H10         3.4680    1.4330    5.5980 hc        1 4K3      0.080700
     23 H11         6.1340    0.4170    4.3830 h1        1 4K3      0.080200
@<TRIPOS>BOND
     1    1    2 ar  
     2    1    3 ar  
     3    1   13 1   
     4    2    4 ar  
     5    2   14 1   
     6    3    5 ar  
     7    3   15 1   
     8    4    6 ar  
     9    4   16 1   
    10    5    6 ar  
    11    5   17 1   
    12    6   10 1   
    13    7    8 1   
    14    7    9 1   
    15    7   18 1   
    16    7   22 1   
    17    8   12 1   
    18    8   19 1   
    19    8   23 1   
    20    9   10 1   
    21    9   11 2   
    22   10   20 1   
    23   12   21 1   
@<TRIPOS>SUBSTRUCTURE
     1 4K3         1 TEMP              0 ****  ****    0 ROOT
