@<TRIPOS>MOLECULE
4K3
   23    23     1     0     0
SMALL
bcc


@<TRIPOS>ATOM
      1 C12        -0.1910   -0.1120   -0.0020 ca        1 4K3     -0.157000
      2 C10         1.1370    0.2860   -0.1290 ca        1 4K3     -0.104000
      3 C11        -0.7100   -0.3710    1.2660 ca        1 4K3     -0.104000
      4 C9          1.9540    0.4290    0.9900 ca        1 4K3     -0.170000
      5 C8          0.0860   -0.2360    2.3970 ca        1 4K3     -0.170000
      6 C6          1.4390    0.1680    2.2770 ca        1 4K3      0.068600
      7 C3          4.0720    0.7070    4.9920 c3        1 4K3     -0.147400
      8 C5          5.5160    1.1360    4.9940 c3        1 4K3      0.016700
      9 C2          3.5290    0.6720    3.5690 c         1 4K3      0.667100
     10 N1          2.2010    0.2890    3.4520 ns        1 4K3     -0.472100
     11 O7          4.2440    0.9690    2.5950 o         1 4K3     -0.589100
     12 S4          6.0440    1.1430    6.6860 sh        1 4K3     -0.387900
     13 H1         -0.8260   -0.2200   -0.8920 ha        1 4K3      0.133000
     14 H2          1.5560    0.4940   -1.1260 ha        1 4K3      0.133500
     15 H3         -1.7580   -0.6860    1.3770 ha        1 4K3      0.133500
     16 H4          3.0010    0.7450    0.8550 ha        1 4K3      0.149500
     17 H5         -0.3490   -0.4480    3.3860 ha        1 4K3      0.149500
     18 H6          3.4600    1.4220    5.6050 hc        1 4K3      0.080700
     19 H7          5.6210    2.1510    4.5390 h1        1 4K3      0.080200
     20 H8          1.7180    0.0730    4.2960 hn        1 4K3      0.315500
     21 H9          7.2960    1.5300    6.5090 hs        1 4K3      0.212800
     22 H10         3.9760   -0.3140    5.4510 hc        1 4K3      0.080700
     23 H11         6.1330    0.4310    4.3850 h1        1 4K3      0.080200
@<TRIPOS>BOND
     1    1    2 ar  
     2    1    3 ar  
     3    1   13 1   
     4    2    4 ar  
     5    2   14 1   
     6    3    5 ar  
     7    3   15 1   
     8    4    6 ar  
     9    4   16 1   
    10    5    6 ar  
    11    5   17 1   
    12    6   10 1   
    13    7    8 1   
    14    7    9 1   
    15    7   18 1   
    16    7   22 1   
    17    8   12 1   
    18    8   19 1   
    19    8   23 1   
    20    9   10 1   
    21    9   11 2   
    22   10   20 1   
    23   12   21 1   
@<TRIPOS>SUBSTRUCTURE
     1 4K3         1 TEMP              0 ****  ****    0 ROOT
