@<TRIPOS>MOLECULE
4K4
   80    77     1     0     0
SMALL
bcc


@<TRIPOS>ATOM
      1 C4         -0.3710   -0.0450   -0.4430 c2        1 4K4     -0.012000
      2 C5         -0.1690   -1.0750   -1.3530 c2        1 4K4      0.012000
      3 C6         -0.0510   -2.4650   -0.8360 c2        1 4K4      0.068000
      4 N1         -0.2190   -2.6200    0.5550 na        1 4K4     -0.265000
      5 N3         -0.4340   -0.2480    0.9410 n2        1 4K4     -0.234000
      6 CAU         7.4440    1.2810    6.1280 c3        1 4K4     -0.273500
      7 CAS        10.0810   -2.7280    8.5410 c1        1 4K4      0.121000
      8 NBL         9.9100   -1.8200    9.2770 n2        1 4K4     -0.333000
      9 CAB        10.2880    2.4280    8.2740 c3        1 4K4     -0.273500
     10 CAT         9.6750   -0.7530   10.1530 c3        1 4K4      0.040000
     11 CAV         8.2730   -0.6090   10.7110 c2        1 4K4     -0.101000
     12 NBN         7.2910   -1.3660   10.3920 n2        1 4K4     -0.166000
     13 CBK         5.9760   -1.1430   10.9380 c3        1 4K4     -0.118000
     14 CAP         5.3590   -1.6100    7.1990 c3        1 4K4     -0.299000
     15 CAR         4.1720   -1.1940    7.9400 c1        1 4K4     -0.038000
     16 CAO         5.4800   -2.2910   11.8040 c3        1 4K4     -0.205000
     17 CAQ         1.8530   -1.0870    8.3560 c1        1 4K4     -0.028000
     18 NBM         2.8880   -1.4640    7.5750 n         1 4K4     -0.184000
     19 OAE         3.0160   -3.3330    6.1860 o         1 4K4     -0.264000
     20 CBB         1.6160   -1.5590    5.3320 c3        1 4K4      0.045000
     21 CAN         0.2190   -1.4950    5.8540 c2        1 4K4     -0.208000
     22 CBE        -0.8810   -1.3300    5.0990 c2        1 4K4      0.044000
     23 OAZ        -2.1720   -1.2720    5.6020 os        1 4K4     -0.219000
     24 CAA        -2.3120   -1.3910    7.0140 c3        1 4K4     -0.078000
     25 CAI         2.1160   -0.2650    4.9500 c1        1 4K4     -0.199000
     26 CAJ         2.5170    0.8070    4.6020 c1        1 4K4     -0.160000
     27 CBC        -0.9680   -1.1080    3.6360 c2        1 4K4      0.070000
     28 C2         -0.3240   -1.5000    1.3920 c2        1 4K4      0.185000
     29 NBP        -0.5080    1.3330   -0.8750 na        1 4K4     -0.076000
     30 CAD        -1.5130    2.1260   -0.5930 c1        1 4K4     -0.123000
     31 CBH         0.6600    1.8620   -1.5220 c2        1 4K4      0.051000
     32 CAL         1.2070    3.1140   -0.8890 c3        1 4K4     -0.227000
     33 CAH         1.6810    3.0480    0.4740 c1        1 4K4     -0.052000
     34 CAG         3.4460    2.3630   -2.8220 c1        1 4K4      0.209000
     35 CAK         2.3750    1.7680   -3.3010 c2        1 4K4     -0.438000
     36 CBG         1.1740    1.2960   -2.6450 c2        1 4K4     -0.068000
     37 CBF         0.5170    0.1800   -3.3860 c2        1 4K4      0.353000
     38 OAF         0.5130    0.1490   -4.6340 o         1 4K4     -0.349000
     39 NBO        -0.0990   -0.8750   -2.7290 ns        1 4K4     -0.308000
     40 CAC         0.1860   -3.5400   -1.6220 c2        1 4K4     -0.318000
     41 H1         -0.0360   -3.5190    0.9460 hn        1 4K4      0.260000
     42 H2          6.9820    1.5600    7.1010 hc        1 4K4      0.068875
     43 H3          6.6460    1.0440    5.3910 hc        1 4K4      0.068875
     44 H4          8.0960    0.3910    6.2690 hc        1 4K4      0.068875
     45 H5          8.0540    2.1310    5.7510 hc        1 4K4      0.068875
     46 H7         11.1610    1.7400    8.2330 hc        1 4K4      0.068875
     47 H8          9.4290    1.9730    7.7310 hc        1 4K4      0.068875
     48 H9         10.5580    3.3940    7.7930 hc        1 4K4      0.068875
     49 H10        10.0060    2.6110    9.3340 hc        1 4K4      0.068875
     50 H11         9.9180    0.2170    9.6170 h1        1 4K4      0.108500
     51 H12         8.2140    0.2450   11.4230 h4        1 4K4      0.105000
     52 H13        10.3730   -0.8520   11.0390 h1        1 4K4      0.108500
     53 H15         5.9020   -0.1880   11.5390 h1        1 4K4      0.097000
     54 H16         5.9930   -2.2120    7.9090 hc        1 4K4      0.128333
     55 H17         5.2890   -1.0350   10.0420 h1        1 4K4      0.097000
     56 H18         5.9420   -0.6820    6.9440 hc        1 4K4      0.128333
     57 H19         5.1970   -2.2080    6.2680 hc        1 4K4      0.128333
     58 H20         2.1480   -0.5330    9.2740 ha        1 4K4      0.067000
     59 H21         5.4970   -3.2560   11.2440 hc        1 4K4      0.080000
     60 H22         6.1070   -2.4030   12.7210 hc        1 4K4      0.080000
     61 H23         4.4290   -2.0750   12.1140 hc        1 4K4      0.080000
     62 H24         0.1400   -1.5580    6.9590 ha        1 4K4      0.191000
     63 H25        -1.9280   -2.3800    7.3650 h1        1 4K4      0.091667
     64 H26        -1.7830   -0.5560    7.5340 h1        1 4K4      0.091667
     65 H27        -3.4190   -1.3180    7.1680 h1        1 4K4      0.091667
     66 H28         1.6600   -2.2460    4.4290 hc        1 4K4      0.161000
     67 H29        -1.7180   -0.3310    3.3610 h4        1 4K4      0.157000
     68 H30         2.8700    1.7580    4.2860 ha        1 4K4      0.234000
     69 H31        -0.4700    3.3140    1.3600 ha        1 4K4      0.010000
     70 H32        -0.0970    3.7580    1.7180 ha        1 4K4      0.010000
     71 H33        -2.3670    1.6800   -0.0450 ha        1 4K4      0.070000
     72 H34         0.3740    3.8930   -0.8940 hc        1 4K4      0.183000
     73 H35         2.0370    3.5580   -1.5160 hc        1 4K4      0.183000
     74 H36         1.6400    2.0770    0.9890 ha        1 4K4      0.053000
     75 H37         2.3940    1.5690   -4.4060 ha        1 4K4      0.231000
     76 H38        -0.4640   -1.6050   -3.3080 hn        1 4K4      0.254000
     77 H39         0.2800   -4.5560   -1.2190 ha        1 4K4      0.133000
     78 H40         0.3070   -3.4740   -2.7070 ha        1 4K4      0.133000
     79 NAY        -0.2510   -1.7820    2.8010 n2        1 4K4     -0.169000
     80 CBA         2.5400   -2.2110    6.3680 c2        1 4K4      0.291000
@<TRIPOS>BOND
     1    1    2 1   
     2    1    5 1   
     3    1   29 1   
     4    2    3 1   
     5    2   39 1   
     6    3    4 1   
     7    3   40 1   
     8    4   28 1   
     9    4   41 1   
    10    5   28 1   
    11    6   42 1   
    12    6   43 1   
    13    6   44 1   
    14    6   45 1   
    15    7    8 1   
    16    8   10 1   
    17    9   46 1   
    18    9   47 1   
    19    9   48 1   
    20    9   49 1   
    21   10   11 1   
    22   10   50 1   
    23   10   52 1   
    24   11   12 1   
    25   11   51 1   
    26   12   13 1   
    27   13   16 1   
    28   13   53 1   
    29   13   55 1   
    30   14   15 1   
    31   14   54 1   
    32   14   56 1   
    33   14   57 1   
    34   15   18 1   
    35   16   59 1   
    36   16   60 1   
    37   16   61 1   
    38   17   18 1   
    39   17   58 1   
    40   18   80 1   
    41   19   80 1   
    42   20   21 1   
    43   20   25 1   
    44   20   66 1   
    45   20   80 1   
    46   21   22 1   
    47   21   62 1   
    48   22   23 1   
    49   22   27 1   
    50   23   24 1   
    51   24   63 1   
    52   24   64 1   
    53   24   65 1   
    54   25   26 1   
    55   26   68 1   
    56   27   67 1   
    57   27   79 1   
    58   28   79 1   
    59   29   30 1   
    60   29   31 1   
    61   30   71 1   
    62   31   32 1   
    63   31   36 1   
    64   32   33 1   
    65   32   72 1   
    66   32   73 1   
    67   33   74 1   
    68   34   35 1   
    69   35   36 1   
    70   35   75 1   
    71   36   37 1   
    72   37   38 1   
    73   37   39 1   
    74   39   76 1   
    75   40   77 1   
    76   40   78 1   
    77   69   70 1   
@<TRIPOS>SUBSTRUCTURE
     1 4K4         1 TEMP              0 ****  ****    0 ROOT
