@<TRIPOS>MOLECULE
4K4
   80    78     1     0     0
SMALL
bcc


@<TRIPOS>ATOM
      1 C4          0.3560   -0.0530   -0.2410 c2        1 4K4      0.063000
      2 C5          1.7090    0.1630   -0.6170 c2        1 4K4     -0.075000
      3 C6          2.7300    0.0320    0.4140 c1        1 4K4     -0.048000
      4 N1          2.3290   -0.2390    1.6610 n3        1 4K4     -0.144000
      5 N3         -0.0040   -0.2990    1.0750 n2        1 4K4     -0.221000
      6 CAU         7.9540   -2.2590    6.2580 c3        1 4K4     -0.272000
      7 CAS         7.4210   -4.0820   11.7320 c1        1 4K4      0.122000
      8 NBL         8.2100   -3.2280   11.5210 n2        1 4K4     -0.333000
      9 CAB        11.1550   -2.0020    8.1850 c3        1 4K4     -0.272000
     10 CAT         9.1210   -2.1950   11.2700 c3        1 4K4      0.041000
     11 CAV         8.5500   -0.8450   10.8850 c2        1 4K4     -0.102000
     12 NBN         7.3000   -0.5690   10.8720 n2        1 4K4     -0.166000
     13 CBK         6.8330    0.7340   10.4740 c3        1 4K4     -0.119000
     14 CAP         4.7320   -1.6310    8.3520 c3        1 4K4     -0.295000
     15 CAR         4.3770   -0.2280    8.1740 c1        1 4K4     -0.044000
     16 CAO         6.1440    1.4980   11.5950 c3        1 4K4     -0.204000
     17 CAQ         2.9370    1.5830    7.7170 c1        1 4K4     -0.022000
     18 NBM         3.1500    0.2510    7.8300 n         1 4K4     -0.183000
     19 OAE         1.8000   -1.6020    8.2590 o         1 4K4     -0.291000
     20 CBB         1.0560   -0.1690    6.4890 c2        1 4K4     -0.116000
     21 CAN        -0.1030   -1.0280    6.3300 c2        1 4K4     -0.045000
     22 CBE        -0.7090   -1.4090    5.1920 c2        1 4K4     -0.118000
     23 OAZ        -1.8550   -2.2770    5.2640 os        1 4K4     -0.041000
     24 CAA        -2.7580   -2.1920    6.1580 c1        1 4K4     -0.008000
     25 CAI         1.2570    0.9370    5.8010 c1        1 4K4      0.022000
     26 CAJ         1.4260    2.0250    5.1180 c2        1 4K4     -0.159000
     27 CBC        -0.3710   -1.2080    3.7810 c2        1 4K4      0.067000
     28 C2          0.9630   -0.3830    2.0070 c2        1 4K4      0.075000
     29 NBP        -0.6690   -0.0630   -1.2480 na        1 4K4     -0.196000
     30 CAD        -1.8770   -0.8010   -0.9580 c3        1 4K4     -0.097000
     31 CBH        -0.8400    1.2020   -1.8810 c2        1 4K4      0.053000
     32 CAL        -2.1940    1.9070   -1.7360 c3        1 4K4     -0.124000
     33 CAH        -2.0180    3.3760   -1.9940 c2        1 4K4     -0.123000
     34 CAG        -1.1410    3.5930   -2.9590 c1        1 4K4     -0.173000
     35 CAK        -0.1900    2.8600   -3.5280 c2        1 4K4     -0.038000
     36 CBG         0.1650    1.7190   -2.6710 c2        1 4K4     -0.120000
     37 CBF         1.4860    1.0820   -2.7900 c2        1 4K4      0.197000
     38 OAF         2.0100    1.3020   -4.0510 os        1 4K4     -0.216000
     39 NBO         2.1700    0.4130   -1.9050 n2        1 4K4     -0.192000
     40 CAC         3.3040    0.7710   -4.3460 c3        1 4K4     -0.064000
     41 H1          3.0240   -0.3450    2.3720 hn        1 4K4      0.270000
     42 H2          7.4210   -1.2850    6.3240 hc        1 4K4      0.068250
     43 H3          8.1320   -2.5120    5.1910 hc        1 4K4      0.068250
     44 H4          7.3350   -3.0540    6.7290 hc        1 4K4      0.068250
     45 H5          8.9290   -2.1840    6.7900 hc        1 4K4      0.068250
     46 H7         10.6990   -3.0150    8.2440 hc        1 4K4      0.068250
     47 H8         11.3800   -1.7600    7.1230 hc        1 4K4      0.068250
     48 H9         12.0950   -1.9830    8.7770 hc        1 4K4      0.068250
     49 H10         9.8070   -2.5140   10.4250 h1        1 4K4      0.108000
     50 H11        10.4430   -1.2500    8.5920 hc        1 4K4      0.068250
     51 H12         9.3620   -0.1320   10.6150 h4        1 4K4      0.105000
     52 H13         9.7520   -2.0340   12.1950 h1        1 4K4      0.108000
     53 H15         7.6520    1.3890   10.0530 h1        1 4K4      0.097000
     54 H16         4.9780   -1.7650    9.4440 hc        1 4K4      0.129000
     55 H17         6.0840    0.5490    9.6420 h1        1 4K4      0.097000
     56 H18         5.6790   -1.8160    7.7750 hc        1 4K4      0.129000
     57 H19         3.9690   -2.3970    8.0650 hc        1 4K4      0.129000
     58 H20         3.8380    2.2080    7.9060 ha        1 4K4      0.064000
     59 H21         5.2980    0.9080   12.0250 hc        1 4K4      0.080333
     60 H22         6.8600    1.7390   12.4170 hc        1 4K4      0.080333
     61 H23         5.7400    2.4520   11.1810 hc        1 4K4      0.080333
     62 H24        -0.4970   -1.4180    7.2940 ha        1 4K4      0.157000
     63 H25        -1.9980   -3.8730    7.6720 ha        1 4K4      0.005500
     64 H26        -1.5920   -3.3800    7.9010 ha        1 4K4      0.005500
     65 H27        -2.7200   -1.4190    6.9540 ha        1 4K4      0.042000
     66 H28         1.0490    2.9980    5.4710 ha        1 4K4      0.161500
     67 H29        -1.0860   -1.7160    3.0900 h4        1 4K4      0.155000
     68 H30         1.9600    2.0350    4.1550 ha        1 4K4      0.161500
     69 H31        -1.5870   -1.8380   -0.6450 h1        1 4K4      0.087667
     70 H32        -2.5070   -0.3420   -0.1480 h1        1 4K4      0.087667
     71 H33        -2.4830   -0.8590   -1.9010 h1        1 4K4      0.087667
     72 H34        -2.5740    1.7890   -0.6860 hc        1 4K4      0.120500
     73 H35        -2.9270    1.4150   -2.4290 hc        1 4K4      0.120500
     74 H36        -2.5030    4.1130   -1.3490 ha        1 4K4      0.156000
     75 H37         0.2560    2.9560   -4.5220 ha        1 4K4      0.178000
     76 H38         4.0730    1.2100   -3.6670 h1        1 4K4      0.091667
     77 H39         3.4700    1.0960   -5.4050 h1        1 4K4      0.091667
     78 H40         3.2990   -0.3420   -4.2660 h1        1 4K4      0.091667
     79 NAY         0.6670   -0.5360    3.4000 n2        1 4K4     -0.178000
     80 CBA         1.9820   -0.5870    7.5760 c2        1 4K4      0.330000
@<TRIPOS>BOND
     1    1    2 1   
     2    1    5 1   
     3    1   29 1   
     4    2    3 1   
     5    2   39 1   
     6    3    4 1   
     7    4   28 1   
     8    4   41 1   
     9    5   28 1   
    10    6   42 1   
    11    6   43 1   
    12    6   44 1   
    13    6   45 1   
    14    7    8 1   
    15    8   10 1   
    16    9   46 1   
    17    9   47 1   
    18    9   48 1   
    19    9   50 1   
    20   10   11 1   
    21   10   49 1   
    22   10   52 1   
    23   11   12 1   
    24   11   51 1   
    25   12   13 1   
    26   13   16 1   
    27   13   53 1   
    28   13   55 1   
    29   14   15 1   
    30   14   54 1   
    31   14   56 1   
    32   14   57 1   
    33   15   18 1   
    34   16   59 1   
    35   16   60 1   
    36   16   61 1   
    37   17   18 1   
    38   17   58 1   
    39   18   80 1   
    40   19   80 1   
    41   20   21 1   
    42   20   25 1   
    43   20   80 1   
    44   21   22 1   
    45   21   62 1   
    46   22   23 1   
    47   22   27 1   
    48   23   24 1   
    49   24   65 1   
    50   25   26 1   
    51   26   66 1   
    52   26   68 1   
    53   27   67 1   
    54   27   79 1   
    55   28   79 1   
    56   29   30 1   
    57   29   31 1   
    58   30   69 1   
    59   30   70 1   
    60   30   71 1   
    61   31   32 1   
    62   31   36 1   
    63   32   33 1   
    64   32   72 1   
    65   32   73 1   
    66   33   34 1   
    67   33   74 1   
    68   34   35 1   
    69   35   36 1   
    70   35   75 1   
    71   36   37 1   
    72   37   38 1   
    73   37   39 1   
    74   38   40 1   
    75   40   76 1   
    76   40   77 1   
    77   40   78 1   
    78   63   64 1   
@<TRIPOS>SUBSTRUCTURE
     1 4K4         1 TEMP              0 ****  ****    0 ROOT
