@<TRIPOS>MOLECULE
4K5
   53    56     1     0     0
SMALL
bcc


@<TRIPOS>ATOM
      1 C4         -0.0730   -0.0620    0.0210 ca        1 4K5      0.779200
      2 C5          1.3530    0.1310    0.0250 ca        1 4K5     -0.540900
      3 C6          1.9810    0.2490    1.2770 ca        1 4K5      0.540200
      4 N1          1.3360    0.2090    2.4440 nb        1 4K5     -0.767000
      5 N3         -0.7720   -0.1030    1.2030 nb        1 4K5     -0.809000
      6 CAL        -2.8090   -0.3240   -2.6500 cx        1 4K5     -0.144900
      7 CAM        -2.9670    0.8750   -1.7640 cx        1 4K5     -0.144900
      8 CBD        -2.1480   -0.3120   -1.2860 cx        1 4K5      0.165500
      9 NAS        -0.7300   -0.2700   -1.1770 nh        1 4K5     -0.820900
     10 CBF         2.1560    0.1980   -1.2470 c3        1 4K5      0.714200
     11 FAE         2.1080   -0.9390   -2.0220 f         1 4K5     -0.241633
     12 FAF         1.7580    1.1870   -2.1200 f         1 4K5     -0.241633
     13 FAD         3.4990    0.4280   -1.0750 f         1 4K5     -0.241633
     14 C2         -0.0490    0.0440    2.3690 ca        1 4K5      0.925900
     15 NAR        -0.8110    0.0920    3.5530 nh        1 4K5     -0.692300
     16 CAY        -0.2260   -0.1120    4.8240 ca        1 4K5      0.144600
     17 CAZ        -0.7060   -1.1450    5.6870 ca        1 4K5      0.081100
     18 CAI        -0.1900   -1.3000    6.9730 ca        1 4K5     -0.133000
     19 OAT        -1.7170   -1.9370    5.1720 os        1 4K5     -0.339900
     20 CAA        -2.0610   -3.0950    5.9280 c3        1 4K5      0.115700
     21 CAH         0.7730    0.7440    5.3080 ca        1 4K5     -0.122000
     22 CAW         1.2940    0.5740    6.6050 ca        1 4K5      0.126900
     23 FAC         2.2640    1.4180    7.0340 f         1 4K5     -0.133900
     24 CBA         0.8110   -0.4470    7.4410 ca        1 4K5     -0.139600
     25 CAV         1.3920   -0.7100    8.7930 c         1 4K5      0.676700
     26 OAB         2.0760   -1.7340    8.9910 o         1 4K5     -0.588100
     27 NBE         1.0920    0.1490    9.8390 n         1 4K5     -0.457800
     28 CAN         1.7700    0.0070   11.1130 c3        1 4K5      0.052500
     29 CAJ         2.6010    1.2410   11.4900 c3        1 4K5      0.102900
     30 OAU         1.8460    2.4430   11.3750 os        1 4K5     -0.411600
     31 CAK         1.2920    2.6150   10.0770 c3        1 4K5      0.102900
     32 CAO         0.4190    1.4160    9.6720 c3        1 4K5      0.052500
     33 H1          3.0810    0.3830    1.3410 h4        1 4K5      0.045100
     34 H3         -3.6630   -1.0090   -2.8000 hc        1 4K5      0.079450
     35 H4         -2.4610    1.8150   -2.0460 hc        1 4K5      0.079450
     36 H5         -3.9380    1.0650   -1.2720 hc        1 4K5      0.079450
     37 H6         -2.5960   -0.9510   -0.4900 h1        1 4K5      0.115700
     38 H7         -0.2230   -0.0550   -2.0090 hn        1 4K5      0.444800
     39 H8         -1.7400   -0.2830    3.4720 hn        1 4K5      0.457800
     40 H9         -0.5460   -2.1080    7.6310 ha        1 4K5      0.161000
     41 H10        -2.7980   -3.6200    5.2690 h1        1 4K5      0.051700
     42 H11        -1.1630   -3.7350    6.1070 h1        1 4K5      0.051700
     43 H12        -2.5370   -2.8000    6.8950 h1        1 4K5      0.051700
     44 H13         1.1750    1.5590    4.6840 ha        1 4K5      0.178000
     45 H14         0.9780   -0.1510   11.9000 h1        1 4K5      0.067700
     46 H15         2.4420   -0.8960   11.0910 h1        1 4K5      0.067700
     47 H16         2.8870    1.1950   12.5730 h1        1 4K5      0.059950
     48 H17         3.5210    1.3140   10.8510 h1        1 4K5      0.059950
     49 H18         0.6620    3.5390   10.1620 h1        1 4K5      0.059950
     50 H19         2.1140    2.7730    9.3290 h1        1 4K5      0.059950
     51 H20        -0.4980    1.4010   10.3290 h1        1 4K5      0.067700
     52 H21         0.0900    1.5560    8.6060 h1        1 4K5      0.067700
     53 H2         -2.1920   -0.2340   -3.5620 hc        1 4K5      0.079450
@<TRIPOS>BOND
     1    1    2 ar  
     2    1    5 ar  
     3    1    9 1   
     4    2    3 ar  
     5    2   10 1   
     6    3    4 ar  
     7    3   33 1   
     8    4   14 ar  
     9    5   14 ar  
    10    6    7 1   
    11    6    8 1   
    12    6   34 1   
    13    6   53 1   
    14    7    8 1   
    15    7   35 1   
    16    7   36 1   
    17    8    9 1   
    18    8   37 1   
    19    9   38 1   
    20   10   11 1   
    21   10   12 1   
    22   10   13 1   
    23   14   15 1   
    24   15   16 1   
    25   15   39 1   
    26   16   17 ar  
    27   16   21 ar  
    28   17   18 ar  
    29   17   19 1   
    30   18   24 ar  
    31   18   40 1   
    32   19   20 1   
    33   20   41 1   
    34   20   42 1   
    35   20   43 1   
    36   21   22 ar  
    37   21   44 1   
    38   22   23 1   
    39   22   24 ar  
    40   24   25 1   
    41   25   26 2   
    42   25   27 1   
    43   27   28 1   
    44   27   32 1   
    45   28   29 1   
    46   28   45 1   
    47   28   46 1   
    48   29   30 1   
    49   29   47 1   
    50   29   48 1   
    51   30   31 1   
    52   31   32 1   
    53   31   49 1   
    54   31   50 1   
    55   32   51 1   
    56   32   52 1   
@<TRIPOS>SUBSTRUCTURE
     1 4K5         1 TEMP              0 ****  ****    0 ROOT
