@<TRIPOS>MOLECULE
4K5
   53    56     1     0     0
SMALL
bcc


@<TRIPOS>ATOM
      1 C4         -0.0560   -0.0680    0.0200 ca        1 4K5      0.779200
      2 C5          1.3710    0.1140    0.0300 ca        1 4K5     -0.540900
      3 C6          1.9960    0.2290    1.2840 ca        1 4K5      0.540200
      4 N1          1.3450    0.1970    2.4480 nb        1 4K5     -0.767000
      5 N3         -0.7590   -0.1010    1.1990 nb        1 4K5     -0.809000
      6 CAL        -2.7830   -0.3130   -2.6620 cx        1 4K5     -0.144900
      7 CAM        -2.9350    0.8900   -1.7790 cx        1 4K5     -0.144900
      8 CBD        -2.1280   -0.3030   -1.2950 cx        1 4K5      0.165500
      9 NAS        -0.7100   -0.2730   -1.1800 nu        1 4K5     -0.820900
     10 CBF         2.1810    0.1730   -1.2390 c3        1 4K5      0.714200
     11 FAE         2.1270   -0.9650   -2.0120 f         1 4K5     -0.241633
     12 FAF         1.7940    1.1630   -2.1150 f         1 4K5     -0.241633
     13 FAD         3.5250    0.3930   -1.0620 f         1 4K5     -0.241633
     14 C2         -0.0400    0.0420    2.3690 ca        1 4K5      0.925900
     15 NAR        -0.8070    0.0980    3.5500 nu        1 4K5     -0.692300
     16 CAY        -0.2280   -0.1080    4.8220 ca        1 4K5      0.144600
     17 CAZ        -0.7200   -1.1370    5.6860 ca        1 4K5      0.081100
     18 CAI        -0.2100   -1.2930    6.9740 ca        1 4K5     -0.133000
     19 OAT        -1.7350   -1.9210    5.1680 os        1 4K5     -0.339900
     20 CAA        -2.0910   -3.0750    5.9240 c3        1 4K5      0.115700
     21 CAH         0.7750    0.7400    5.3100 ca        1 4K5     -0.122000
     22 CAW         1.2900    0.5680    6.6090 ca        1 4K5      0.126900
     23 FAC         2.2640    1.4060    7.0410 f         1 4K5     -0.133900
     24 CBA         0.7950   -0.4470    7.4450 ca        1 4K5     -0.139600
     25 CAV         1.3690   -0.7130    8.7990 c         1 4K5      0.676700
     26 OAB         2.0450   -1.7420    9.0010 o         1 4K5     -0.588100
     27 NBE         1.0720    0.1510    9.8430 n         1 4K5     -0.457800
     28 CAN         1.7440    0.0050   11.1190 c3        1 4K5      0.052500
     29 CAJ         2.5830    1.2340   11.4980 c3        1 4K5      0.102900
     30 OAU         1.8380    2.4410   11.3780 os        1 4K5     -0.411600
     31 CAK         1.2900    2.6160   10.0770 c3        1 4K5      0.102900
     32 CAO         0.4090    1.4230    9.6710 c3        1 4K5      0.052500
     33 H1          3.0960    0.3550    1.3520 h4        1 4K5      0.045100
     34 H3         -2.1620   -0.2300   -3.5720 hc        1 4K5      0.079450
     35 H4         -2.4190    1.8250   -2.0620 hc        1 4K5      0.079450
     36 H5         -3.9060    1.0890   -1.2910 hc        1 4K5      0.079450
     37 H6         -2.5840   -0.9360   -0.4990 h1        1 4K5      0.115700
     38 H7         -0.1980   -0.0630   -2.0100 hn        1 4K5      0.444800
     39 H8         -1.7380   -0.2700    3.4650 hn        1 4K5      0.457800
     40 H9         -0.5760   -2.0980    7.6320 ha        1 4K5      0.161000
     41 H10        -2.8300   -3.5950    5.2630 h1        1 4K5      0.051700
     42 H11        -1.1990   -3.7210    6.1080 h1        1 4K5      0.051700
     43 H12        -2.5690   -2.7750    6.8880 h1        1 4K5      0.051700
     44 H13         1.1860    1.5510    4.6860 ha        1 4K5      0.178000
     45 H14         0.9480   -0.1460   11.9040 h1        1 4K5      0.067700
     46 H15         2.4090   -0.9030   11.1020 h1        1 4K5      0.067700
     47 H16         3.5050    1.2980   10.8630 h1        1 4K5      0.059950
     48 H17         2.8640    1.1870   12.5820 h1        1 4K5      0.059950
     49 H18         0.6660    3.5440   10.1580 h1        1 4K5      0.059950
     50 H19         2.1160    2.7650    9.3330 h1        1 4K5      0.059950
     51 H20         0.0860    1.5630    8.6030 h1        1 4K5      0.067700
     52 H21        -0.5110    1.4150   10.3240 h1        1 4K5      0.067700
     53 H2         -3.6410   -0.9910   -2.8130 hc        1 4K5      0.079450
@<TRIPOS>BOND
     1    1    2 ar  
     2    1    5 ar  
     3    1    9 1   
     4    2    3 ar  
     5    2   10 1   
     6    3    4 ar  
     7    3   33 1   
     8    4   14 ar  
     9    5   14 ar  
    10    6    7 1   
    11    6    8 1   
    12    6   34 1   
    13    6   53 1   
    14    7    8 1   
    15    7   35 1   
    16    7   36 1   
    17    8    9 1   
    18    8   37 1   
    19    9   38 1   
    20   10   11 1   
    21   10   12 1   
    22   10   13 1   
    23   14   15 1   
    24   15   16 1   
    25   15   39 1   
    26   16   17 ar  
    27   16   21 ar  
    28   17   18 ar  
    29   17   19 1   
    30   18   24 ar  
    31   18   40 1   
    32   19   20 1   
    33   20   41 1   
    34   20   42 1   
    35   20   43 1   
    36   21   22 ar  
    37   21   44 1   
    38   22   23 1   
    39   22   24 ar  
    40   24   25 1   
    41   25   26 2   
    42   25   27 1   
    43   27   28 1   
    44   27   32 1   
    45   28   29 1   
    46   28   45 1   
    47   28   46 1   
    48   29   30 1   
    49   29   47 1   
    50   29   48 1   
    51   30   31 1   
    52   31   32 1   
    53   31   49 1   
    54   31   50 1   
    55   32   51 1   
    56   32   52 1   
@<TRIPOS>SUBSTRUCTURE
     1 4K5         1 TEMP              0 ****  ****    0 ROOT
