@<TRIPOS>MOLECULE
4K6
   48    51     1     0     0
SMALL
bcc


@<TRIPOS>ATOM
      1 O           4.0040    3.2780   -0.0380 o         1 4K6     -0.447100
      2 C11         3.2730    2.3880   -0.4640 c         1 4K6      0.576700
      3 C12         2.7430    1.2440    0.2650 ca        1 4K6     -0.234600
      4 C17         1.8540    0.2990   -0.2720 ca        1 4K6     -0.028000
      5 C16         1.4050   -0.7620    0.4970 ca        1 4K6     -0.173000
      6 C15         1.8330   -0.9190    1.8430 ca        1 4K6      0.128800
      7 N3          1.3830   -1.9840    2.6130 na        1 4K6     -0.311800
      8 C19         1.7230   -2.3030    3.9590 cc        1 4K6      0.385900
      9 N5          1.0610   -3.4210    4.3160 nd        1 4K6     -0.307500
     10 N4          0.3170   -3.8460    3.2940 nd        1 4K6     -0.307500
     11 C18         0.4750   -3.0160    2.2430 cc        1 4K6      0.385900
     12 C14         2.7290    0.0410    2.3770 ca        1 4K6     -0.173000
     13 C13         3.1720    1.0990    1.6000 ca        1 4K6     -0.028000
     14 N2          2.9250    2.5290   -1.9300 n4        1 4K6     -0.679800
     15 C10         1.6430    3.2730   -2.1070 c3        1 4K6      0.126800
     16 C9          1.2840    3.5350   -3.5660 c3        1 4K6     -0.116700
     17 C8          1.0980    2.2740   -4.3430 cc        1 4K6      0.371800
     18 N1          0.3240    2.2110   -5.5130 na        1 4K6     -0.246300
     19 C3          0.4080    0.8920   -5.9750 ca        1 4K6     -0.063200
     20 C2         -0.1450    0.2420   -7.0850 ca        1 4K6     -0.126000
     21 N           1.6630    1.0810   -4.0300 nd        1 4K6     -0.664100
     22 C4          1.2540    0.1880   -5.0310 ca        1 4K6      0.073400
     23 C5          1.5270   -1.1730   -5.2350 ca        1 4K6     -0.083000
     24 C6          0.9750   -1.8080   -6.3390 ca        1 4K6     -0.069300
     25 C7          1.2560   -3.2450   -6.5730 c3        1 4K6     -0.060800
     26 C1          0.1440   -1.1060   -7.2580 ca        1 4K6     -0.032300
     27 C          -0.4210   -1.8290   -8.4220 c3        1 4K6     -0.065800
     28 H17         1.4840    0.3670   -1.3090 ha        1 4K6      0.165000
     29 H16         0.7080   -1.4860    0.0450 ha        1 4K6      0.168500
     30 H19         2.4130   -1.7170    4.5740 h5        1 4K6      0.083600
     31 H18        -0.0010   -3.0950    1.2620 h5        1 4K6      0.083600
     32 H15         3.0870   -0.0390    3.4170 ha        1 4K6      0.168500
     33 H14         3.8700    1.8390    2.0310 ha        1 4K6      0.165000
     34 H13         2.8460    1.5950   -2.3730 hn        1 4K6      0.476800
     35 H11         0.8280    2.6660   -1.6150 hx        1 4K6      0.110200
     36 H12         1.7430    4.2610   -1.5680 hx        1 4K6      0.110200
     37 H9          2.0750    4.1590   -4.0650 hc        1 4K6      0.098200
     38 H10         0.3310    4.1350   -3.5640 hc        1 4K6      0.098200
     39 H          -0.1650    2.9540   -5.9400 hn        1 4K6      0.320700
     40 H4         -0.7850    0.7810   -7.7980 ha        1 4K6      0.152000
     41 H5          2.1720   -1.7220   -4.5320 ha        1 4K6      0.147000
     42 H7          0.3000   -3.8290   -6.5870 hc        1 4K6      0.055033
     43 H8          1.9170   -3.6680   -5.7780 hc        1 4K6      0.055033
     44 H6          1.7610   -3.3840   -7.5620 hc        1 4K6      0.055033
     45 H1         -1.0510   -1.1580   -9.0570 hc        1 4K6      0.058367
     46 H2         -1.0550   -2.6840   -8.0750 hc        1 4K6      0.058367
     47 H3          0.4040   -2.2440   -9.0560 hc        1 4K6      0.058367
     48 H22         3.6770    3.0460   -2.4020 hn        1 4K6      0.476800
@<TRIPOS>BOND
     1    1    2 2   
     2    2    3 1   
     3    2   14 1   
     4    3    4 ar  
     5    3   13 ar  
     6    4    5 ar  
     7    4   28 1   
     8    5    6 ar  
     9    5   29 1   
    10    6    7 1   
    11    6   12 ar  
    12    7    8 1   
    13    7   11 1   
    14    8    9 2   
    15    8   30 1   
    16    9   10 1   
    17   10   11 2   
    18   11   31 1   
    19   12   13 ar  
    20   12   32 1   
    21   13   33 1   
    22   14   15 1   
    23   14   34 1   
    24   14   48 1   
    25   15   16 1   
    26   15   35 1   
    27   15   36 1   
    28   16   17 1   
    29   16   37 1   
    30   16   38 1   
    31   17   18 1   
    32   17   21 2   
    33   18   19 1   
    34   18   39 1   
    35   19   20 ar  
    36   19   22 ar  
    37   20   26 ar  
    38   20   40 1   
    39   21   22 1   
    40   22   23 ar  
    41   23   24 ar  
    42   23   41 1   
    43   24   25 1   
    44   24   26 ar  
    45   25   42 1   
    46   25   43 1   
    47   25   44 1   
    48   26   27 1   
    49   27   45 1   
    50   27   46 1   
    51   27   47 1   
@<TRIPOS>SUBSTRUCTURE
     1 4K6         1 TEMP              0 ****  ****    0 ROOT
