@<TRIPOS>MOLECULE
4K6
   48    51     1     0     0
SMALL
bcc


@<TRIPOS>ATOM
      1 O           4.1540    3.2130   -0.1250 o         1 4K6     -0.447100
      2 C11         3.3880    2.3410   -0.5270 c         1 4K6      0.576700
      3 C12         2.8430    1.2190    0.2230 ca        1 4K6     -0.234600
      4 C17         1.9140    0.2960   -0.2850 ca        1 4K6     -0.028000
      5 C16         1.4530   -0.7460    0.5020 ca        1 4K6     -0.173000
      6 C15         1.9080   -0.9060    1.8390 ca        1 4K6      0.128800
      7 N3          1.4460   -1.9520    2.6270 na        1 4K6     -0.311800
      8 C19         1.8050   -2.2680    3.9690 cc        1 4K6      0.385900
      9 N5          1.1210   -3.3650    4.3490 nd        1 4K6     -0.307500
     10 N4          0.3450   -3.7790    3.3460 nd        1 4K6     -0.307500
     11 C18         0.5040   -2.9630    2.2850 cc        1 4K6      0.385900
     12 C14         2.8440    0.0320    2.3440 ca        1 4K6     -0.173000
     13 C13         3.2980    1.0700    1.5490 ca        1 4K6     -0.028000
     14 N2          3.0100    2.4820   -1.9850 ny        1 4K6     -0.679800
     15 C10         1.7460    3.2620   -2.1390 c3        1 4K6      0.126800
     16 C9          1.3620    3.5230   -3.5910 c3        1 4K6     -0.116700
     17 C8          1.1210    2.2630   -4.3540 cc        1 4K6      0.371800
     18 N1          0.3180    2.2130   -5.5060 na        1 4K6     -0.246300
     19 C3          0.3540    0.8890   -5.9590 ca        1 4K6     -0.063200
     20 C2         -0.2430    0.2470   -7.0510 ca        1 4K6     -0.126000
     21 N           1.6580    1.0560   -4.0440 nd        1 4K6     -0.664100
     22 C4          1.2010    0.1680   -5.0280 ca        1 4K6      0.073400
     23 C5          1.4300   -1.2030   -5.2280 ca        1 4K6     -0.083000
     24 C6          0.8350   -1.8290   -6.3140 ca        1 4K6     -0.069300
     25 C7          1.0680   -3.2750   -6.5430 c3        1 4K6     -0.060800
     26 C1          0.0030   -1.1100   -7.2190 ca        1 4K6     -0.032300
     27 C          -0.6100   -1.8250   -8.3640 c3        1 4K6     -0.065800
     28 H17         1.5220    0.3670   -1.3140 ha        1 4K6      0.165000
     29 H16         0.7250   -1.4530    0.0720 ha        1 4K6      0.168500
     30 H19         2.5220   -1.6960    4.5650 h5        1 4K6      0.083600
     31 H18         0.0070   -3.0380    1.3140 h5        1 4K6      0.083600
     32 H15         3.2230   -0.0520    3.3760 ha        1 4K6      0.168500
     33 H14         4.0280    1.7940    1.9580 ha        1 4K6      0.165000
     34 H13         3.7660    2.9730   -2.4780 hn        1 4K6      0.476800
     35 H11         0.9260    2.6820   -1.6240 hx        1 4K6      0.110200
     36 H12         1.8870    4.2500   -1.6110 hx        1 4K6      0.110200
     37 H9          2.1590    4.1200   -4.1140 hc        1 4K6      0.098200
     38 H10         0.4270    4.1510   -3.5730 hc        1 4K6      0.098200
     39 H          -0.1590    2.9660   -5.9270 hn        1 4K6      0.320700
     40 H4         -0.8840    0.7990   -7.7520 ha        1 4K6      0.152000
     41 H5          2.0750   -1.7640   -4.5360 ha        1 4K6      0.147000
     42 H7          1.5460   -3.4360   -7.5430 hc        1 4K6      0.055033
     43 H8          0.0960   -3.8310   -6.5300 hc        1 4K6      0.055033
     44 H6          1.7340   -3.7120   -5.7600 hc        1 4K6      0.055033
     45 H1         -1.2340   -1.1410   -8.9900 hc        1 4K6      0.058367
     46 H2          0.1870   -2.2680   -9.0130 hc        1 4K6      0.058367
     47 H3         -1.2600   -2.6590   -7.9950 hc        1 4K6      0.058367
     48 H22         2.8940    1.5470   -2.4190 hn        1 4K6      0.476800
@<TRIPOS>BOND
     1    1    2 2   
     2    2    3 1   
     3    2   14 1   
     4    3    4 ar  
     5    3   13 ar  
     6    4    5 ar  
     7    4   28 1   
     8    5    6 ar  
     9    5   29 1   
    10    6    7 1   
    11    6   12 ar  
    12    7    8 1   
    13    7   11 1   
    14    8    9 2   
    15    8   30 1   
    16    9   10 1   
    17   10   11 2   
    18   11   31 1   
    19   12   13 ar  
    20   12   32 1   
    21   13   33 1   
    22   14   15 1   
    23   14   34 1   
    24   14   48 1   
    25   15   16 1   
    26   15   35 1   
    27   15   36 1   
    28   16   17 1   
    29   16   37 1   
    30   16   38 1   
    31   17   18 1   
    32   17   21 2   
    33   18   19 1   
    34   18   39 1   
    35   19   20 ar  
    36   19   22 ar  
    37   20   26 ar  
    38   20   40 1   
    39   21   22 1   
    40   22   23 ar  
    41   23   24 ar  
    42   23   41 1   
    43   24   25 1   
    44   24   26 ar  
    45   25   42 1   
    46   25   43 1   
    47   25   44 1   
    48   26   27 1   
    49   27   45 1   
    50   27   46 1   
    51   27   47 1   
@<TRIPOS>SUBSTRUCTURE
     1 4K6         1 TEMP              0 ****  ****    0 ROOT
