@<TRIPOS>MOLECULE
4K7
   60    60     1     0     0
SMALL
bcc


@<TRIPOS>ATOM
      1 C1          2.6830    0.4970    1.6350 c1        1 4K7     -0.125000
      2 C2         -0.7990    0.5690    4.3620 c1        1 4K7     -0.553000
      3 C3          3.6390    0.5900    0.9190 c1        1 4K7     -0.293000
      4 C4          0.1660    0.3590    3.5700 c1        1 4K7      0.112000
      5 C5         10.3260   -0.7330   -4.1830 ca        1 4K7     -0.107000
      6 C6         10.2690    0.2250   -3.1750 ca        1 4K7     -0.110000
      7 C7          9.9000   -2.4760   -2.5630 ca        1 4K7     -0.113000
      8 C8         -1.7980    0.8070    5.2000 c2        1 4K7      0.216000
      9 C9          4.7790    0.7550    0.0710 c3        1 4K7     -0.054000
     10 C10        10.1420   -2.0860   -3.8820 ca        1 4K7     -0.057000
     11 C11        10.0200   -0.1590   -1.8510 ca        1 4K7     -0.062000
     12 C12         9.8370   -1.5170   -1.5490 ca        1 4K7     -0.074000
     13 C13         5.6650   -2.8550   -0.3710 c2        1 4K7      0.321000
     14 C14         4.1460   -5.4230   -0.7520 c3        1 4K7     -0.202000
     15 C15         5.2960   -6.1270   -1.4440 c3        1 4K7     -0.166000
     16 C16         7.7220   -6.1540   -2.0160 c3        1 4K7     -0.208000
     17 C17         4.5650   -4.7770    0.5700 c3        1 4K7     -0.092000
     18 C18         6.9060   -4.8470   -0.0430 c3        1 4K7     -0.105000
     19 C19         8.5280   -3.9800   -6.3690 c2        1 4K7     -0.104000
     20 C20         6.4380   -4.0550   -2.3480 c3        1 4K7     -0.022000
     21 C21         6.5870   -5.3020   -1.4770 c3        1 4K7     -0.111000
     22 C22        -3.1700    0.3070    5.0220 c3        1 4K7     -0.254000
     23 C23         5.0900   -0.4990   -0.7510 c3        1 4K7     -0.048000
     24 N25         5.8150   -4.0110    0.4690 n3        1 4K7     -0.193000
     25 N26         5.1770   -1.6940    0.0770 n7        1 4K7     -0.192000
     26 N27         8.9700   -3.7960   -5.1860 n2        1 4K7     -0.212000
     27 O28         6.1010   -2.8180   -1.6590 os        1 4K7     -0.199000
     28 Cl1         9.9470    1.0260   -0.6440 cl        1 4K7      0.021000
     29 Cl2         9.5450   -2.0260    0.0480 cl        1 4K7     -0.012000
     30 H1          7.5730   -4.5260   -6.4840 h4        1 4K7      0.120500
     31 H2         -1.6250    1.4250    6.1070 ha        1 4K7      0.131000
     32 H3          1.8240    0.4140    2.2820 ha        1 4K7      0.283000
     33 H4          5.6770    1.0420    0.6870 hc        1 4K7      0.128000
     34 H7          9.7710   -3.5440   -2.3260 ha        1 4K7      0.147000
     35 H8          4.9950   -6.3870   -2.4930 hc        1 4K7      0.111000
     36 H9          3.3270   -6.1610   -0.5440 hc        1 4K7      0.108500
     37 H10         3.7220   -4.6370   -1.4320 hc        1 4K7      0.108500
     38 H11         5.5130   -7.0930   -0.9120 hc        1 4K7      0.111000
     39 H12         7.5060   -6.4610   -3.0680 hc        1 4K7      0.099000
     40 H13         7.8420   -7.0730   -1.3930 hc        1 4K7      0.099000
     41 H14         4.7490   -5.5700    1.3500 h1        1 4K7      0.130000
     42 H15         3.7490   -4.1010    0.9470 h1        1 4K7      0.130000
     43 H16         7.0140   -5.7330    0.6420 h1        1 4K7      0.142500
     44 H17         7.8640   -4.2550   -0.0170 h1        1 4K7      0.142500
     45 H18         8.6830   -5.5840   -1.9990 hc        1 4K7      0.099000
     46 H19         9.0050   -3.6540   -7.3130 h4        1 4K7      0.120500
     47 H20         7.4100   -3.7840   -2.8550 h1        1 4K7      0.148000
     48 H21         5.6190   -4.1790   -3.1060 h1        1 4K7      0.148000
     49 H22        -3.2800   -0.3220    4.1050 hc        1 4K7      0.121667
     50 H23        -3.8770    1.1750    4.9500 hc        1 4K7      0.121667
     51 H24        -3.4660   -0.3030    5.9160 hc        1 4K7      0.121667
     52 H25         4.5970    1.5910   -0.6650 hc        1 4K7      0.128000
     53 H26         4.2780   -0.6690   -1.5170 h1        1 4K7      0.128000
     54 H29         6.0690   -0.3610   -1.2950 h1        1 4K7      0.128000
     55 C24        10.2300   -3.1250   -4.9630 c3        1 4K7     -0.074000
     56 H5         10.5240   -0.4180   -5.2200 ha        1 4K7      0.151000
     57 H27        10.6510   -2.6470   -5.8970 h1        1 4K7      0.102500
     58 H28        10.9680   -3.9170   -4.6340 h1        1 4K7      0.102500
     59 H262        4.8600   -1.6190    1.0300 hn        1 4K7      0.295000
     60 H6         10.4250    1.2890   -3.4160 ha        1 4K7      0.163000
@<TRIPOS>BOND
     1    1    3 1   
     2    1   32 1   
     3    2    4 1   
     4    2    8 1   
     5    3    9 1   
     6    5    6 1   
     7    5   10 1   
     8    5   56 1   
     9    6   11 1   
    10    6   60 1   
    11    7   10 1   
    12    7   12 1   
    13    7   34 1   
    14    8   22 1   
    15    8   31 1   
    16    9   23 1   
    17    9   33 1   
    18    9   52 1   
    19   10   55 1   
    20   11   12 1   
    21   11   28 1   
    22   12   29 1   
    23   13   24 1   
    24   13   25 1   
    25   13   27 1   
    26   14   15 1   
    27   14   17 1   
    28   14   36 1   
    29   14   37 1   
    30   15   21 1   
    31   15   35 1   
    32   15   38 1   
    33   16   21 1   
    34   16   39 1   
    35   16   40 1   
    36   16   45 1   
    37   17   24 1   
    38   17   41 1   
    39   17   42 1   
    40   18   21 1   
    41   18   24 1   
    42   18   43 1   
    43   18   44 1   
    44   19   26 1   
    45   19   30 1   
    46   19   46 1   
    47   20   21 1   
    48   20   27 1   
    49   20   47 1   
    50   20   48 1   
    51   22   49 1   
    52   22   50 1   
    53   22   51 1   
    54   23   25 1   
    55   23   53 1   
    56   23   54 1   
    57   25   59 1   
    58   26   55 1   
    59   55   57 1   
    60   55   58 1   
@<TRIPOS>SUBSTRUCTURE
     1 4K7         1 TEMP              0 ****  ****    0 ROOT
