@<TRIPOS>MOLECULE
4K7
   60    63     1     0     0
SMALL
bcc


@<TRIPOS>ATOM
      1 C1         -0.1130   -0.0200   -0.1310 ca        1 4K7     -0.128000
      2 C2          0.1320    0.5390    2.2100 ca        1 4K7     -0.128000
      3 C3          1.2570   -0.2480   -0.2210 ca        1 4K7     -0.093500
      4 C4          1.5020    0.3120    2.1230 ca        1 4K7     -0.093500
      5 C5          9.9310   -1.6460   -4.4120 ca        1 4K7     -0.100000
      6 C6         11.0590   -1.2480   -5.1230 ca        1 4K7     -0.119000
      7 C7         10.3200   -3.9420   -5.0650 ca        1 4K7     -0.115000
      8 C8         -0.6890    0.3740    1.0850 ca        1 4K7     -0.013300
      9 C9          2.0710   -0.0840    0.9060 ca        1 4K7     -0.206300
     10 C10         9.5570   -2.9930   -4.3820 ca        1 4K7     -0.092300
     11 C11        11.8260   -2.1940   -5.8140 ca        1 4K7      0.025400
     12 C12        11.4530   -3.5460   -5.7840 ca        1 4K7      0.015400
     13 C13         5.4150   -1.9470    1.0410 c         1 4K7      0.615100
     14 C14         5.1530   -5.2540    0.1990 c3        1 4K7     -0.107400
     15 C15         6.5920   -5.5810   -0.1420 c3        1 4K7     -0.079400
     16 C16         8.9450   -4.7120   -0.3910 c3        1 4K7     -0.091400
     17 C17         5.0820   -4.3910    1.4580 c3        1 4K7      0.052000
     18 C18         7.2980   -3.4700    1.0160 c3        1 4K7      0.073000
     19 C19         9.4930   -3.8440   -1.5330 c3        1 4K7      0.151800
     20 C20         7.1400   -3.5150   -1.5230 c3        1 4K7      0.165800
     21 C21         7.4610   -4.3360   -0.2460 c3        1 4K7     -0.092000
     22 C22        -2.1460    0.6110    1.1840 c3        1 4K7     -0.075800
     23 C23         3.5420   -0.2760    0.8000 c3        1 4K7      0.187100
     24 N25         5.9050   -3.1930    1.3850 n         1 4K7     -0.391800
     25 N26         3.9050   -1.6980    1.1350 n4        1 4K7     -0.666800
     26 N27         8.3830   -3.1760   -2.2140 n3        1 4K7     -0.717600
     27 O28         6.0810   -0.9400    0.7790 o         1 4K7     -0.486100
     28 CL1        13.1920   -1.6810   -6.6730 cl        1 4K7     -0.051400
     29 CL2        12.3540   -4.7230   -6.6050 cl        1 4K7     -0.056400
     30 H1         -0.7480   -0.1400   -1.0230 ha        1 4K7      0.158000
     31 H2         -0.3120    0.8600    3.1660 ha        1 4K7      0.158000
     32 H3          1.7000   -0.5360   -1.1880 ha        1 4K7      0.138500
     33 H4          2.1380    0.4670    3.0090 ha        1 4K7      0.138500
     34 H7         10.0310   -5.0050   -5.0460 ha        1 4K7      0.149000
     35 H8          4.6640   -4.7290   -0.6630 hc        1 4K7      0.063700
     36 H9          4.5830   -6.2010    0.3890 hc        1 4K7      0.063700
     37 H10         7.0160   -6.2530    0.6520 hc        1 4K7      0.069200
     38 H11         6.6260   -6.1470   -1.1110 hc        1 4K7      0.069200
     39 H12         9.5160   -4.5260    0.5520 hc        1 4K7      0.063200
     40 H13         9.0480   -5.7980   -0.6420 hc        1 4K7      0.063200
     41 H14         4.0120   -4.1530    1.7000 h1        1 4K7      0.070200
     42 H15         5.4930   -4.9850    2.3290 h1        1 4K7      0.070200
     43 H16         7.8560   -2.4990    0.8770 h1        1 4K7      0.100200
     44 H17         7.7340   -4.0170    1.9010 h1        1 4K7      0.100200
     45 H18        10.1090   -4.4670   -2.2380 h1        1 4K7      0.065200
     46 H19        10.1570   -3.0350   -1.1200 h1        1 4K7      0.065200
     47 H20         6.4270   -4.0920   -2.1780 h1        1 4K7      0.036700
     48 H21         6.6440   -2.5420   -1.2540 h1        1 4K7      0.036700
     49 H22        -2.3680    1.4460    1.8950 hc        1 4K7      0.065367
     50 H23        -2.6560   -0.3130    1.5610 hc        1 4K7      0.065367
     51 H24        -2.5830    0.8700    0.1870 hc        1 4K7      0.065367
     52 H25         3.9160   -0.0660   -0.2440 hx        1 4K7      0.119200
     53 H26         4.1020    0.3950    1.5140 hx        1 4K7      0.119200
     54 H29         3.5820   -1.9030    2.0870 hn        1 4K7      0.451300
     55 C24         8.3170   -3.4170   -3.6500 c3        1 4K7      0.212100
     56 H5          9.3330   -0.8990   -3.8680 ha        1 4K7      0.147000
     57 H27         8.1030   -4.5020   -3.8850 h1        1 4K7      0.042700
     58 H28         7.4510   -2.8070   -4.0430 h1        1 4K7      0.042700
     59 H262        3.4160   -2.3260    0.4890 hn        1 4K7      0.451300
     60 H6         11.3510   -0.1850   -5.1450 ha        1 4K7      0.157000
@<TRIPOS>BOND
     1    1    3 ar  
     2    1    8 ar  
     3    1   30 1   
     4    2    4 ar  
     5    2    8 ar  
     6    2   31 1   
     7    3    9 ar  
     8    3   32 1   
     9    4    9 ar  
    10    4   33 1   
    11    5    6 ar  
    12    5   10 ar  
    13    5   56 1   
    14    6   11 ar  
    15    6   60 1   
    16    7   10 ar  
    17    7   12 ar  
    18    7   34 1   
    19    8   22 1   
    20    9   23 1   
    21   10   55 1   
    22   11   12 ar  
    23   11   28 1   
    24   12   29 1   
    25   13   24 1   
    26   13   25 1   
    27   13   27 2   
    28   14   15 1   
    29   14   17 1   
    30   14   35 1   
    31   14   36 1   
    32   15   21 1   
    33   15   37 1   
    34   15   38 1   
    35   16   19 1   
    36   16   21 1   
    37   16   39 1   
    38   16   40 1   
    39   17   24 1   
    40   17   41 1   
    41   17   42 1   
    42   18   21 1   
    43   18   24 1   
    44   18   43 1   
    45   18   44 1   
    46   19   26 1   
    47   19   45 1   
    48   19   46 1   
    49   20   21 1   
    50   20   26 1   
    51   20   47 1   
    52   20   48 1   
    53   22   49 1   
    54   22   50 1   
    55   22   51 1   
    56   23   25 1   
    57   23   52 1   
    58   23   53 1   
    59   25   54 1   
    60   25   59 1   
    61   26   55 1   
    62   55   57 1   
    63   55   58 1   
@<TRIPOS>SUBSTRUCTURE
     1 4K7         1 TEMP              0 ****  ****    0 ROOT
