@<TRIPOS>MOLECULE
4K8
   19    20     1     0     0
SMALL
bcc


@<TRIPOS>ATOM
      1 C10         0.0320   -0.2340   -0.0020 ca        1 4K8     -0.094000
      2 O01        -3.3610    1.0270    5.2870 o         1 4K8     -0.807300
      3 C02        -2.8720   -0.0820    4.9550 c         1 4K8      0.826100
      4 O03        -2.9110   -1.1480    5.6180 o         1 4K8     -0.807300
      5 C04        -2.0960   -0.1240    3.6160 ca        1 4K8      0.391800
      6 C05        -0.7300    0.1590    3.6310 ca        1 4K8     -0.249300
      7 C06         0.0100    0.1290    2.4260 ca        1 4K8     -0.006000
      8 C07         1.4060    0.4060    2.3610 ca        1 4K8     -0.124000
      9 C08         2.0690    0.3610    1.1610 ca        1 4K8     -0.137000
     10 C09         1.3770    0.0380   -0.0340 ca        1 4K8     -0.168000
     11 C11        -0.6770   -0.1940    1.2250 ca        1 4K8     -0.187300
     12 C12        -2.0790   -0.4660    1.3290 ca        1 4K8      0.394200
     13 N13        -2.7670   -0.4370    2.4600 nb        1 4K8     -0.638000
     14 H1         -0.5170   -0.4850   -0.9210 ha        1 4K8      0.117000
     15 H3         -0.2340    0.4040    4.5790 ha        1 4K8      0.144000
     16 H4          1.9330    0.6550    3.2930 ha        1 4K8      0.126000
     17 H5          3.1460    0.5740    1.1080 ha        1 4K8      0.112000
     18 H6          1.9340    0.0100   -0.9800 ha        1 4K8      0.112000
     19 H7         -2.6430   -0.7210    0.4140 h4        1 4K8     -0.004900
@<TRIPOS>BOND
     1    1   10 ar  
     2    1   11 ar  
     3    1   14 1   
     4    2    3 1   
     5    3    4 1   
     6    3    5 1   
     7    5    6 ar  
     8    5   13 ar  
     9    6    7 ar  
    10    6   15 1   
    11    7    8 ar  
    12    7   11 ar  
    13    8    9 ar  
    14    8   16 1   
    15    9   10 ar  
    16    9   17 1   
    17   10   18 1   
    18   11   12 ar  
    19   12   13 ar  
    20   12   19 1   
@<TRIPOS>SUBSTRUCTURE
     1 4K8         1 TEMP              0 ****  ****    0 ROOT
