@<TRIPOS>MOLECULE
4K9
   39    36     1     0     0
SMALL
bcc


@<TRIPOS>ATOM
      1 C2         -0.0050    0.4190   -0.8580 c2        1 4K9     -0.166000
      2 C3          1.6170   -0.4750    1.2030 c1        1 4K9      0.053000
      3 C4          0.1710   -0.3320    1.5270 c3        1 4K9     -0.204000
      4 C10        -4.3490    0.7460    0.1310 c2        1 4K9     -0.034000
      5 C1          3.7470   -1.4010    1.8730 c1        1 4K9      0.423000
      6 C5         -0.5960    0.1970    0.3290 c2        1 4K9     -0.050000
      7 C6         -2.0490   -0.8050    4.0260 c1        1 4K9     -0.232500
      8 C7         -2.6920    0.2040    3.9600 c1        1 4K9     -0.232500
      9 C8         -0.3450   -1.5410    2.1460 c1        1 4K9     -0.092000
     10 O2         -9.0140   -1.1340    0.8720 o         1 4K9     -0.462400
     11 O1         -9.2520    0.3050   -1.0350 o         1 4K9     -0.462400
     12 N1         -9.7160    1.4280    1.3870 n9        1 4K9     -0.488000
     13 C13        -7.2090    0.4790    0.3390 c2        1 4K9     -1.230000
     14 C12        -6.3120   -0.0770    1.3100 c2        1 4K9      0.055000
     15 C11        -4.9540    0.0960    1.2980 c2        1 4K9     -0.201000
     16 C14        -6.6980    1.6200   -0.5150 c3        1 4K9     -0.035000
     17 C15        -5.2790    1.5130   -0.4030 c1        1 4K9      0.206000
     18 N          -1.9720    0.4360    0.5970 ns        1 4K9     -0.299000
     19 C           2.4380   -1.2420    2.0550 c2        1 4K9     -0.574000
     20 H1         -0.5330    0.7940   -1.7460 ha        1 4K9      0.159000
     21 H2          0.1700    0.4770    2.3420 hc        1 4K9      0.192000
     22 H3          1.0720    0.2220   -0.9830 ha        1 4K9      0.159000
     23 H4         -2.2210    0.5430    1.5580 hn        1 4K9      0.242000
     24 H5         -1.2310    2.1250    3.0610 ha        1 4K9      0.001000
     25 H6         -0.7460    2.5970    3.0220 ha        1 4K9      0.001000
     26 H7         -1.4680   -1.7000    4.1060 ha        1 4K9      0.240000
     27 H8         -1.1430   -2.0850    1.6190 ha        1 4K9      0.056000
     28 H9         -3.2430    1.1110    3.9580 ha        1 4K9      0.240000
     29 H10       -10.2010    0.9280    2.1150 hn        1 4K9      0.207333
     30 H11        -9.1040    2.1040    1.8050 hn        1 4K9      0.207333
     31 H12        -4.2910   -0.2520    2.1050 ha        1 4K9      0.201000
     32 H13        -6.7480   -0.7430    2.0840 ha        1 4K9      0.183000
     33 H14        -7.0490    1.5260   -1.5900 hc        1 4K9      0.172500
     34 H15        -7.0540    2.6220   -0.1380 hc        1 4K9      0.172500
     35 H16         1.9960   -1.7660    2.9420 ha        1 4K9      0.216000
     36 C9         -2.9460    0.5130   -0.3600 c2        1 4K9      0.357000
     37 S          -8.6180   -0.0620    0.1210 s4        1 4K9      2.116800
     38 O          -2.7770    0.4060   -1.5870 o         1 4K9     -0.303000
     39 H131      -10.3930    1.9040    0.8140 hn        1 4K9      0.207333
@<TRIPOS>BOND
     1    1    6 1   
     2    1   20 1   
     3    1   22 1   
     4    2    3 1   
     5    2   19 1   
     6    3    6 1   
     7    3    9 1   
     8    3   21 1   
     9    4   15 1   
    10    4   17 1   
    11    4   36 1   
    12    5   19 1   
    13    6   18 1   
    14    7    8 1   
    15    7   26 1   
    16    8   28 1   
    17    9   27 1   
    18   10   37 1   
    19   11   37 1   
    20   12   29 1   
    21   12   30 1   
    22   12   39 1   
    23   13   14 1   
    24   13   16 1   
    25   13   37 1   
    26   14   15 1   
    27   14   32 1   
    28   15   31 1   
    29   16   17 1   
    30   16   33 1   
    31   16   34 1   
    32   18   23 1   
    33   18   36 1   
    34   19   35 1   
    35   24   25 1   
    36   36   38 1   
@<TRIPOS>SUBSTRUCTURE
     1 4K9         1 TEMP              0 ****  ****    0 ROOT
