@<TRIPOS>MOLECULE
4K9
   39    41     1     0     0
SMALL
bcc


@<TRIPOS>ATOM
      1 C2          0.0130   -0.5760    0.0660 ca        1 4K9     -0.116000
      2 C3          1.4250    0.1120    2.3700 ca        1 4K9     -0.115000
      3 C4          0.0280    0.2020    2.3770 ca        1 4K9     -0.095300
      4 C10        -4.3070    0.4120    0.1290 ca        1 4K9      0.010400
      5 C1          1.4010   -0.6540    0.0870 ca        1 4K9     -0.113000
      6 C5         -0.6920   -0.1430    1.2080 ca        1 4K9      0.023600
      7 C6         -2.7430   -0.0960    2.5130 c3        1 4K9      0.085000
      8 C7         -2.1140    0.9080    3.4760 c3        1 4K9     -0.099400
      9 C8         -0.6380    0.6220    3.6400 c3        1 4K9     -0.038100
     10 O2         -9.2850   -0.7030   -0.5310 o         1 4K9     -0.563300
     11 O1         -9.1890    1.6810   -0.8800 o         1 4K9     -0.563300
     12 N1         -9.2360    0.8140    1.5130 n4        1 4K9     -0.786500
     13 C13        -7.1170    0.4950   -0.0760 ca        1 4K9     -0.555500
     14 C12        -6.4350   -0.7250    0.1440 ca        1 4K9      0.008500
     15 C11        -5.0530   -0.7690    0.2490 ca        1 4K9     -0.123000
     16 C14        -6.3400    1.6720   -0.1860 ca        1 4K9      0.008500
     17 C15        -4.9580    1.6350   -0.0850 ca        1 4K9     -0.123000
     18 N          -2.1200   -0.0960    1.2020 n         1 4K9     -0.346000
     19 C           2.1120   -0.3100    1.2360 ca        1 4K9     -0.119000
     20 H1         -0.5270   -0.8410   -0.8580 ha        1 4K9      0.155000
     21 H2          1.9820    0.3820    3.2810 ha        1 4K9      0.142000
     22 H3          1.9380   -0.9900   -0.8140 ha        1 4K9      0.147000
     23 H4         -2.6230   -1.1350    2.9380 h1        1 4K9      0.051200
     24 H5         -3.8440    0.1170    2.4200 h1        1 4K9      0.051200
     25 H6         -2.2650    1.9530    3.0990 hc        1 4K9      0.056200
     26 H7         -2.6320    0.8270    4.4660 hc        1 4K9      0.056200
     27 H8         -0.4990   -0.1960    4.4000 hc        1 4K9      0.065700
     28 H9         -0.1270    1.5370    4.0460 hc        1 4K9      0.065700
     29 H10        -9.8340    0.0520    1.8280 hn        1 4K9      0.454467
     30 H11        -8.4470    0.8770    2.1480 hn        1 4K9      0.454467
     31 H12        -7.0150   -1.6650    0.2050 ha        1 4K9      0.171500
     32 H13        -4.5380   -1.7330    0.4060 ha        1 4K9      0.188000
     33 H14        -6.8450    2.6360   -0.3880 ha        1 4K9      0.171500
     34 H15        -4.3640    2.5580   -0.2060 ha        1 4K9      0.188000
     35 H16         3.2110   -0.3700    1.2470 ha        1 4K9      0.147000
     36 C9         -2.8010    0.3720    0.0850 c         1 4K9      0.642700
     37 S          -8.6950    0.5240   -0.3200 sy        1 4K9      1.494200
     38 O          -2.2540    0.6870   -0.9860 o         1 4K9     -0.537100
     39 H131       -9.7700    1.6780    1.5890 hn        1 4K9      0.454467
@<TRIPOS>BOND
     1    1    5 ar  
     2    1    6 ar  
     3    1   20 1   
     4    2    3 ar  
     5    2   19 ar  
     6    2   21 1   
     7    3    6 ar  
     8    3    9 1   
     9    4   15 ar  
    10    4   17 ar  
    11    4   36 1   
    12    5   19 ar  
    13    5   22 1   
    14    6   18 1   
    15    7    8 1   
    16    7   18 1   
    17    7   23 1   
    18    7   24 1   
    19    8    9 1   
    20    8   25 1   
    21    8   26 1   
    22    9   27 1   
    23    9   28 1   
    24   10   37 2   
    25   11   37 2   
    26   12   29 1   
    27   12   30 1   
    28   12   37 1   
    29   12   39 1   
    30   13   14 ar  
    31   13   16 ar  
    32   13   37 1   
    33   14   15 ar  
    34   14   31 1   
    35   15   32 1   
    36   16   17 ar  
    37   16   33 1   
    38   17   34 1   
    39   18   36 1   
    40   19   35 1   
    41   36   38 2   
@<TRIPOS>SUBSTRUCTURE
     1 4K9         1 TEMP              0 ****  ****    0 ROOT
