@<TRIPOS>MOLECULE
4KA
   15    16     1     0     0
SMALL
bcc


@<TRIPOS>ATOM
      1 C1          0.0380   -0.4980    0.0020 cc        1 4KA      0.160300
      2 C2          0.6410    0.8750    0.0170 cc        1 4KA     -0.242600
      3 N3         -1.6000    1.1030   -0.0060 nd        1 4KA     -0.502800
      4 N4         -0.4280    1.7930    0.1170 na        1 4KA      0.020400
      5 C5         -1.4030   -0.2260   -0.0050 cc        1 4KA      0.334300
      6 N6          2.1540   -0.7440    0.0790 na        1 4KA     -0.015600
      7 N7          1.0100   -1.4330    0.0390 nd        1 4KA     -0.451800
      8 C8          2.0120    0.6580    0.0700 cd        1 4KA     -0.136300
      9 C9         -2.4430   -1.2700   -0.0070 c3        1 4KA     -0.131400
     10 H1         -0.3910    2.6160   -0.4560 hn        1 4KA      0.277700
     11 H2          3.0190   -1.2340    0.0650 hn        1 4KA      0.321700
     12 H3          2.8690    1.3260    0.1080 h4        1 4KA      0.187000
     13 H4         -2.3730   -1.8650    0.9390 hc        1 4KA      0.059033
     14 H5         -3.4710   -0.8360   -0.0820 hc        1 4KA      0.059033
     15 H6         -2.2760   -1.9580   -0.8730 hc        1 4KA      0.059033
@<TRIPOS>BOND
     1    1    2 1   
     2    1    5 1   
     3    1    7 2   
     4    2    4 1   
     5    2    8 2   
     6    3    4 1   
     7    3    5 2   
     8    4   10 1   
     9    5    9 1   
    10    6    7 1   
    11    6    8 1   
    12    6   11 1   
    13    8   12 1   
    14    9   13 1   
    15    9   14 1   
    16    9   15 1   
@<TRIPOS>SUBSTRUCTURE
     1 4KA         1 TEMP              0 ****  ****    0 ROOT
