@<TRIPOS>MOLECULE
4KA
   15    16     1     0     0
SMALL
bcc


@<TRIPOS>ATOM
      1 C1         -0.0080    0.0240   -0.0120 cc        1 4KA      0.160300
      2 C2          1.4890   -0.0430    0.0400 cc        1 4KA     -0.242600
      3 N3          0.7190   -0.0990    2.1560 nd        1 4KA     -0.502800
      4 N4          1.8450   -0.2230    1.3950 na        1 4KA      0.020400
      5 C5         -0.3910   -0.0250    1.4020 cc        1 4KA      0.334300
      6 N6          0.6890    0.0220   -2.0270 na        1 4KA     -0.015600
      7 N7         -0.4270    0.0640   -1.2940 nd        1 4KA     -0.451800
      8 C8          1.8890   -0.0440   -1.2900 cd        1 4KA     -0.136300
      9 C9         -1.7830    0.0000    1.8860 c3        1 4KA     -0.131400
     10 H1          2.6220    0.3080    1.7470 hn        1 4KA      0.277700
     11 H2          0.6260    0.0870   -3.0160 hn        1 4KA      0.321700
     12 H3          2.8620   -0.0920   -1.7730 h4        1 4KA      0.187000
     13 H4         -1.8380    0.0200    3.0020 hc        1 4KA      0.059033
     14 H5         -2.2990    0.9070    1.4820 hc        1 4KA      0.059033
     15 H6         -2.3200   -0.9100    1.5160 hc        1 4KA      0.059033
@<TRIPOS>BOND
     1    1    2 1   
     2    1    5 1   
     3    1    7 2   
     4    2    4 1   
     5    2    8 2   
     6    3    4 1   
     7    3    5 2   
     8    4   10 1   
     9    5    9 1   
    10    6    7 1   
    11    6    8 1   
    12    6   11 1   
    13    8   12 1   
    14    9   13 1   
    15    9   14 1   
    16    9   15 1   
@<TRIPOS>SUBSTRUCTURE
     1 4KA         1 TEMP              0 ****  ****    0 ROOT
