@<TRIPOS>MOLECULE
4KA
   15    12     1     0     0
SMALL
bcc


@<TRIPOS>ATOM
      1 C1         -0.2030    0.0050   -0.2930 c2        1 4KA     -0.160500
      2 C2          1.1470    0.0050   -0.2930 c2        1 4KA     -0.160500
      3 N3          0.4620    0.0050    1.8140 n2        1 4KA     -0.115000
      4 N4          1.5690    0.0050    1.0090 n2        1 4KA     -0.071500
      5 C5         -0.6290    0.0050    1.0240 c1        1 4KA     -0.067500
      6 N6          0.4830    0.0050   -2.4000 n2        1 4KA     -0.115000
      7 N7         -0.6250    0.0050   -1.5940 n2        1 4KA     -0.071500
      8 C8          1.5730    0.0050   -1.6090 c1        1 4KA     -0.067500
      9 C9         -2.0670   -0.0110    1.4930 c2        1 4KA     -0.155000
     10 H1          2.4370    0.0050    1.2910 DU        1 4KA      0.229000
     11 H2          0.4820    0.0050   -3.3120 DU        1 4KA      0.229000
     12 H3          2.5010    0.0050   -1.9120 DU        1 4KA      0.229000
     13 H4         -2.0920    0.0170    2.4680 ha        1 4KA      0.098333
     14 H5         -2.5350    0.7660    1.1330 ha        1 4KA      0.098333
     15 H6         -2.5030   -0.8270    1.1800 ha        1 4KA      0.098333
@<TRIPOS>BOND
     1    1    2 1   
     2    1    5 1   
     3    1    7 1   
     4    2    4 1   
     5    2    8 1   
     6    3    4 1   
     7    3    5 1   
     8    6    7 1   
     9    6    8 1   
    10    9   13 1   
    11    9   14 1   
    12    9   15 1   
@<TRIPOS>SUBSTRUCTURE
     1 4KA         1 TEMP              0 ****  ****    0 ROOT
