@<TRIPOS>MOLECULE
4KB
   41    43     1     0     0
SMALL
bcc


@<TRIPOS>ATOM
      1 C3         -0.0190   -0.1700   -0.0680 ca        1 4KB     -0.132000
      2 C4          1.3620    0.0340   -0.0040 ca        1 4KB     -0.126300
      3 C9          3.9700   -0.9400    2.0510 c         1 4KB      0.638700
      4 C10         3.1620   -1.6370    3.1120 ca        1 4KB      0.012400
      5 C5          1.9740    0.3360    1.3340 c3        1 4KB      0.126300
      6 C6          4.1150    0.7040    0.2470 c3        1 4KB      0.071000
      7 C7          3.6230    0.1850   -1.1050 c3        1 4KB     -0.062100
      8 C8          2.1480    0.0000   -1.1630 ca        1 4KB     -0.066300
      9 O           5.1490   -1.3030    1.8820 o         1 4KB     -0.555100
     10 C11         2.6660   -2.9250    2.8660 ca        1 4KB     -0.123000
     11 C12         2.0210   -3.6190    3.8780 ca        1 4KB      0.008000
     12 C15         2.9930   -1.0470    4.3720 ca        1 4KB     -0.123000
     13 C14         2.3500   -1.7490    5.3800 ca        1 4KB      0.008000
     14 C13         1.8580   -3.0580    5.1650 ca        1 4KB     -0.555500
     15 S           1.0790   -3.8450    6.3160 sy        1 4KB      1.494200
     16 N1          2.6030   -4.7370    7.0870 n4        1 4KB     -0.787500
     17 O1          0.6910   -3.0840    7.3970 o         1 4KB     -0.565300
     18 O2          0.3590   -4.9440    5.9010 o         1 4KB     -0.565300
     19 N           3.4110    0.1420    1.3900 n         1 4KB     -0.422800
     20 C18         1.5420   -0.2380   -2.4030 ca        1 4KB     -0.166000
     21 C17         0.1650   -0.4440   -2.4760 ca        1 4KB      0.063100
     22 O17        -0.5100   -0.6930   -3.6500 oh        1 4KB     -0.507100
     23 C16        -0.6260   -0.4120   -1.3030 ca        1 4KB      0.120100
     24 O16        -1.9820   -0.6240   -1.3100 oh        1 4KB     -0.489100
     25 H1         -0.6430   -0.1350    0.8370 ha        1 4KB      0.151000
     26 H2          1.7830    1.4270    1.5700 h1        1 4KB      0.064700
     27 H3          1.4660   -0.2790    2.1300 h1        1 4KB      0.064700
     28 H4          5.2170    0.4910    0.3490 h1        1 4KB      0.081700
     29 H5          3.9610    1.8210    0.2970 h1        1 4KB      0.081700
     30 H6          4.1190   -0.7980   -1.3330 hc        1 4KB      0.071200
     31 H7          3.9490    0.9140   -1.8950 hc        1 4KB      0.071200
     32 H8          2.7950   -3.3840    1.8700 ha        1 4KB      0.186500
     33 H9          1.6130   -4.6280    3.6720 ha        1 4KB      0.171500
     34 H10         3.3750   -0.0280    4.5590 ha        1 4KB      0.186500
     35 H11         2.2050   -1.2720    6.3690 ha        1 4KB      0.171500
     36 H12         2.4790   -5.7480    7.0460 hn        1 4KB      0.456800
     37 H13         3.4700   -4.5100    6.6100 hn        1 4KB      0.456800
     38 H14         2.1540   -0.2610   -3.3170 ha        1 4KB      0.147000
     39 H15         0.1150   -0.6020   -4.3840 ho        1 4KB      0.439000
     40 H16        -2.2710   -0.7080   -2.2340 ho        1 4KB      0.447000
     41 H131        2.7060   -4.4780    8.0670 hn        1 4KB      0.456800
@<TRIPOS>BOND
     1    1    2 ar  
     2    1   23 ar  
     3    1   25 1   
     4    2    5 1   
     5    2    8 ar  
     6    3    4 1   
     7    3    9 2   
     8    3   19 1   
     9    4   10 ar  
    10    4   12 ar  
    11    5   19 1   
    12    5   26 1   
    13    5   27 1   
    14    6    7 1   
    15    6   19 1   
    16    6   28 1   
    17    6   29 1   
    18    7    8 1   
    19    7   30 1   
    20    7   31 1   
    21    8   20 ar  
    22   10   11 ar  
    23   10   32 1   
    24   11   14 ar  
    25   11   33 1   
    26   12   13 ar  
    27   12   34 1   
    28   13   14 ar  
    29   13   35 1   
    30   14   15 1   
    31   15   16 1   
    32   15   17 2   
    33   15   18 2   
    34   16   36 1   
    35   16   37 1   
    36   16   41 1   
    37   20   21 ar  
    38   20   38 1   
    39   21   22 1   
    40   21   23 ar  
    41   22   39 1   
    42   23   24 1   
    43   24   40 1   
@<TRIPOS>SUBSTRUCTURE
     1 4KB         1 TEMP              0 ****  ****    0 ROOT
