@<TRIPOS>MOLECULE
4KB
   41    43     1     0     0
SMALL
bcc


@<TRIPOS>ATOM
      1 C3         -0.0300   -0.2880   -0.1010 ca        1 4KB     -0.132000
      2 C4          1.3440   -0.0480   -0.0280 ca        1 4KB     -0.126300
      3 C9          3.9590   -0.9290    2.0600 c         1 4KB      0.638700
      4 C10         3.1600   -1.6340    3.1230 ca        1 4KB      0.012400
      5 C5          1.9370    0.2870    1.3110 c3        1 4KB      0.126300
      6 C6          4.0770    0.6970    0.2370 c3        1 4KB      0.071000
      7 C7          3.6100    0.1490   -1.1120 c3        1 4KB     -0.062100
      8 C8          2.1410   -0.0750   -1.1800 ca        1 4KB     -0.066300
      9 O           5.1480   -1.2630    1.9050 o         1 4KB     -0.555100
     10 C11         2.7020   -2.9370    2.8900 ca        1 4KB     -0.123000
     11 C12         2.0670   -3.6350    3.9050 ca        1 4KB      0.008000
     12 C15         2.9620   -1.0310    4.3730 ca        1 4KB     -0.123000
     13 C14         2.3290   -1.7370    5.3840 ca        1 4KB      0.008000
     14 C13         1.8750   -3.0610    5.1830 ca        1 4KB     -0.555500
     15 S           1.1070   -3.8540    6.3370 sy        1 4KB      1.494200
     16 N1          2.6470   -4.6930    7.1360 nz        1 4KB     -0.787500
     17 O1          0.6860   -3.0890    7.4030 o         1 4KB     -0.565300
     18 O2          0.4220   -4.9780    5.9310 o         1 4KB     -0.565300
     19 N           3.3780    0.1310    1.3810 n         1 4KB     -0.422800
     20 C18         1.5520   -0.3450   -2.4220 ca        1 4KB     -0.166000
     21 C17         0.1810   -0.5870   -2.5040 ca        1 4KB      0.063100
     22 O17        -0.4770   -0.8670   -3.6800 oh        1 4KB     -0.507100
     23 C16        -0.6210   -0.5610   -1.3390 ca        1 4KB      0.120100
     24 O16        -1.9700   -0.8070   -1.3540 oh        1 4KB     -0.489100
     25 H1         -0.6630   -0.2580    0.7980 ha        1 4KB      0.151000
     26 H2          1.4380   -0.3320    2.1100 h1        1 4KB      0.064700
     27 H3          1.7160    1.3750    1.5320 h1        1 4KB      0.064700
     28 H4          3.8930    1.8090    0.2720 h1        1 4KB      0.081700
     29 H5          5.1830    0.5140    0.3510 h1        1 4KB      0.081700
     30 H6          3.9240    0.8760   -1.9090 hc        1 4KB      0.071200
     31 H7          4.1330   -0.8240   -1.3240 hc        1 4KB      0.071200
     32 H8          2.8540   -3.4070    1.9020 ha        1 4KB      0.186500
     33 H9          1.6900   -4.6580    3.7090 ha        1 4KB      0.171500
     34 H10         3.3130    0.0010    4.5500 ha        1 4KB      0.186500
     35 H11         2.1600   -1.2510    6.3650 ha        1 4KB      0.171500
     36 H12         2.5510   -5.7070    7.1080 hn        1 4KB      0.456800
     37 H13         2.7330   -4.4170    8.1120 hn        1 4KB      0.456800
     38 H14         2.1720   -0.3630   -3.3310 ha        1 4KB      0.147000
     39 H15         0.1520   -0.7700   -4.4100 ho        1 4KB      0.439000
     40 H16        -2.2490   -0.9100   -2.2790 ho        1 4KB      0.447000
     41 H131        3.5120   -4.4480    6.6640 hn        1 4KB      0.456800
@<TRIPOS>BOND
     1    1    2 ar  
     2    1   23 ar  
     3    1   25 1   
     4    2    5 1   
     5    2    8 ar  
     6    3    4 1   
     7    3    9 2   
     8    3   19 1   
     9    4   10 ar  
    10    4   12 ar  
    11    5   19 1   
    12    5   26 1   
    13    5   27 1   
    14    6    7 1   
    15    6   19 1   
    16    6   28 1   
    17    6   29 1   
    18    7    8 1   
    19    7   30 1   
    20    7   31 1   
    21    8   20 ar  
    22   10   11 ar  
    23   10   32 1   
    24   11   14 ar  
    25   11   33 1   
    26   12   13 ar  
    27   12   34 1   
    28   13   14 ar  
    29   13   35 1   
    30   14   15 1   
    31   15   16 1   
    32   15   17 2   
    33   15   18 2   
    34   16   36 1   
    35   16   37 1   
    36   16   41 1   
    37   20   21 ar  
    38   20   38 1   
    39   21   22 1   
    40   21   23 ar  
    41   22   39 1   
    42   23   24 1   
    43   24   40 1   
@<TRIPOS>SUBSTRUCTURE
     1 4KB         1 TEMP              0 ****  ****    0 ROOT
