@<TRIPOS>MOLECULE
4KC
   39    41     1     0     0
SMALL
bcc


@<TRIPOS>ATOM
      1 C3          0.0160   -0.3540   -0.2990 ca        1 4KC     -0.122000
      2 C4          1.3730   -0.0690   -0.1180 ca        1 4KC     -0.129300
      3 C9          3.9260   -0.8450    2.1200 c         1 4KC      0.637700
      4 C10         3.1240   -1.6140    3.1360 ca        1 4KC      0.013400
      5 C5          1.8680    0.2370    1.2660 c3        1 4KC      0.125300
      6 C6          4.0360    0.8100    0.3250 c3        1 4KC      0.071000
      7 C7          3.6870    0.2570   -1.0570 c3        1 4KC     -0.066100
      8 C8          2.2360   -0.0270   -1.2210 ca        1 4KC     -0.067300
      9 O           5.1430   -1.0930    2.0310 o         1 4KC     -0.557100
     10 C11         2.7830   -2.9480    2.8770 ca        1 4KC     -0.123500
     11 C12         2.1580   -3.7010    3.8590 ca        1 4KC      0.008000
     12 C15         2.8150   -1.0360    4.3750 ca        1 4KC     -0.123500
     13 C14         2.1930   -1.7960    5.3530 ca        1 4KC      0.008000
     14 C13         1.8610   -3.1520    5.1280 ca        1 4KC     -0.556500
     15 S           1.1090   -4.0140    6.2430 sy        1 4KC      1.493200
     16 N1          2.6750   -4.7310    7.1060 nz        1 4KC     -0.787500
     17 O1          0.5810   -3.2930    7.2920 o         1 4KC     -0.565800
     18 O2          0.5350   -5.1860    5.8010 o         1 4KC     -0.565800
     19 N           3.3100    0.1760    1.4150 n         1 4KC     -0.423800
     20 C18         1.7250   -0.2770   -2.5010 ca        1 4KC     -0.120000
     21 C17         0.3730   -0.5610   -2.6780 ca        1 4KC     -0.110000
     22 C16        -0.4830   -0.6000   -1.5760 ca        1 4KC     -0.122000
     23 H1         -0.6610   -0.3760    0.5690 ha        1 4KC      0.129000
     24 H2          1.3720   -0.4550    2.0040 h1        1 4KC      0.061700
     25 H3          1.5580    1.2940    1.5250 h1        1 4KC      0.061700
     26 H4          5.1440    0.7000    0.5020 h1        1 4KC      0.081700
     27 H5          3.7750    1.9070    0.3650 h1        1 4KC      0.081700
     28 H6          4.2640   -0.6900   -1.2420 hc        1 4KC      0.072200
     29 H7          4.0210    1.0050   -1.8250 hc        1 4KC      0.072200
     30 H8          3.0210   -3.3980    1.8970 ha        1 4KC      0.187000
     31 H9          1.8750   -4.7500    3.6430 ha        1 4KC      0.171500
     32 H10         3.0740    0.0200    4.5710 ha        1 4KC      0.187000
     33 H11         1.9390   -1.3320    6.3250 ha        1 4KC      0.171500
     34 H12         2.6630   -5.7490    7.0700 hn        1 4KC      0.456800
     35 H13         3.5370   -4.4130    6.6740 hn        1 4KC      0.456800
     36 H14         2.4000   -0.2430   -3.3710 ha        1 4KC      0.144000
     37 H15        -0.0210   -0.7520   -3.6880 ha        1 4KC      0.146000
     38 H16        -1.5520   -0.8200   -1.7160 ha        1 4KC      0.143000
     39 H131        2.6960   -4.4560    8.0860 hn        1 4KC      0.456800
@<TRIPOS>BOND
     1    1    2 ar  
     2    1   22 ar  
     3    1   23 1   
     4    2    5 1   
     5    2    8 ar  
     6    3    4 1   
     7    3    9 2   
     8    3   19 1   
     9    4   10 ar  
    10    4   12 ar  
    11    5   19 1   
    12    5   24 1   
    13    5   25 1   
    14    6    7 1   
    15    6   19 1   
    16    6   26 1   
    17    6   27 1   
    18    7    8 1   
    19    7   28 1   
    20    7   29 1   
    21    8   20 ar  
    22   10   11 ar  
    23   10   30 1   
    24   11   14 ar  
    25   11   31 1   
    26   12   13 ar  
    27   12   32 1   
    28   13   14 ar  
    29   13   33 1   
    30   14   15 1   
    31   15   16 1   
    32   15   17 2   
    33   15   18 2   
    34   16   34 1   
    35   16   35 1   
    36   16   39 1   
    37   20   21 ar  
    38   20   36 1   
    39   21   22 ar  
    40   21   37 1   
    41   22   38 1   
@<TRIPOS>SUBSTRUCTURE
     1 4KC         1 TEMP              0 ****  ****    0 ROOT
