@<TRIPOS>MOLECULE
4KC
   39    41     1     0     0
SMALL
bcc


@<TRIPOS>ATOM
      1 C3          0.0020   -0.3520   -0.2880 ca        1 4KC     -0.122000
      2 C4          1.3650   -0.0860   -0.1280 ca        1 4KC     -0.129300
      3 C9          3.9340   -0.8730    2.0900 c         1 4KC      0.637700
      4 C10         3.1330   -1.6140    3.1260 ca        1 4KC      0.013400
      5 C5          1.8830    0.2300    1.2460 c3        1 4KC      0.125300
      6 C6          4.0480    0.7550    0.2700 c3        1 4KC      0.071000
      7 C7          3.6730    0.1890   -1.1000 c3        1 4KC     -0.066100
      8 C8          2.2160   -0.0740   -1.2420 ca        1 4KC     -0.067300
      9 O           5.1450   -1.1430    1.9890 o         1 4KC     -0.557100
     10 C11         2.7670   -2.9460    2.8900 ca        1 4KC     -0.123500
     11 C12         2.1420   -3.6760    3.8900 ca        1 4KC      0.008000
     12 C15         2.8490   -1.0140    4.3600 ca        1 4KC     -0.123500
     13 C14         2.2270   -1.7510    5.3560 ca        1 4KC      0.008000
     14 C13         1.8690   -3.1040    5.1550 ca        1 4KC     -0.556500
     15 S           1.1180   -3.9380    6.2910 sy        1 4KC      1.493200
     16 N1          2.6820   -4.6690    7.1440 n4        1 4KC     -0.787500
     17 O1          0.6150   -3.1940    7.3360 o         1 4KC     -0.565800
     18 O2          0.5200   -5.1060    5.8730 o         1 4KC     -0.565800
     19 N           3.3260    0.1480    1.3780 n         1 4KC     -0.423800
     20 C18         1.6850   -0.3330   -2.5120 ca        1 4KC     -0.120000
     21 C17         0.3270   -0.5970   -2.6680 ca        1 4KC     -0.110000
     22 C16        -0.5170   -0.6060   -1.5550 ca        1 4KC     -0.122000
     23 H1         -0.6640   -0.3500    0.5880 ha        1 4KC      0.129000
     24 H2          1.3850   -0.4440    1.9990 h1        1 4KC      0.061700
     25 H3          1.5940    1.2960    1.4940 h1        1 4KC      0.061700
     26 H4          5.1560    0.6290    0.4350 h1        1 4KC      0.081700
     27 H5          3.8050    1.8570    0.2980 h1        1 4KC      0.081700
     28 H6          4.2320   -0.7700   -1.2780 hc        1 4KC      0.072200
     29 H7          4.0100    0.9210   -1.8820 hc        1 4KC      0.072200
     30 H8          2.9850   -3.4130    1.9130 ha        1 4KC      0.187000
     31 H9          1.8390   -4.7220    3.6920 ha        1 4KC      0.171500
     32 H10         3.1260    0.0400    4.5380 ha        1 4KC      0.187000
     33 H11         1.9920   -1.2690    6.3250 ha        1 4KC      0.171500
     34 H12         3.5440   -4.3710    6.6970 hn        1 4KC      0.456800
     35 H13         2.6540   -5.6870    7.1230 hn        1 4KC      0.456800
     36 H14         2.3490   -0.3220   -3.3900 ha        1 4KC      0.144000
     37 H15        -0.0830   -0.7950   -3.6710 ha        1 4KC      0.146000
     38 H16        -1.5910   -0.8100   -1.6800 ha        1 4KC      0.143000
     39 H131        2.7200   -4.3810    8.1210 hn        1 4KC      0.456800
@<TRIPOS>BOND
     1    1    2 ar  
     2    1   22 ar  
     3    1   23 1   
     4    2    5 1   
     5    2    8 ar  
     6    3    4 1   
     7    3    9 2   
     8    3   19 1   
     9    4   10 ar  
    10    4   12 ar  
    11    5   19 1   
    12    5   24 1   
    13    5   25 1   
    14    6    7 1   
    15    6   19 1   
    16    6   26 1   
    17    6   27 1   
    18    7    8 1   
    19    7   28 1   
    20    7   29 1   
    21    8   20 ar  
    22   10   11 ar  
    23   10   30 1   
    24   11   14 ar  
    25   11   31 1   
    26   12   13 ar  
    27   12   32 1   
    28   13   14 ar  
    29   13   33 1   
    30   14   15 1   
    31   15   16 1   
    32   15   17 2   
    33   15   18 2   
    34   16   34 1   
    35   16   35 1   
    36   16   39 1   
    37   20   21 ar  
    38   20   36 1   
    39   21   22 ar  
    40   21   37 1   
    41   22   38 1   
@<TRIPOS>SUBSTRUCTURE
     1 4KC         1 TEMP              0 ****  ****    0 ROOT
