@<TRIPOS>MOLECULE
4KD
   47    46     1     0     0
SMALL
bcc


@<TRIPOS>ATOM
      1 C3         -2.0580    0.9830   -1.1470 c2        1 4KD     -0.164000
      2 C4         -2.6860   -0.0940   -0.3480 c3        1 4KD     -0.176000
      3 C9          3.4830   -2.3140    1.6590 c2        1 4KD      0.439000
      4 C10         3.0260   -2.6450    2.9060 c1        1 4KD     -0.502000
      5 C5          1.1410   -2.0870    0.9300 c2        1 4KD      0.042000
      6 C6          2.8540   -1.1410   -0.4730 cx        1 4KD     -0.091000
      7 C7          2.9210   -1.7990   -1.8530 cx        1 4KD     -0.113000
      8 C8          1.9480   -0.7390   -1.5780 cu        1 4KD     -0.099000
      9 O           4.6200   -2.3210    1.1830 o         1 4KD     -0.271000
     10 C11         4.3920   -6.2740    5.5200 c2        1 4KD     -0.148000
     11 C12         3.8400   -5.1620    5.8810 c1        1 4KD      0.060000
     12 C15         2.7140   -3.0000    4.0400 c1        1 4KD      0.154000
     13 C14         2.3700   -3.3110    5.2930 c2        1 4KD     -0.423000
     14 C13         3.2600   -4.0230    6.2000 c2        1 4KD     -0.782000
     15 S           3.3960   -3.2320    7.6050 s6        1 4KD      2.790000
     16 N1          3.9830   -1.5660    6.9000 nz        1 4KD     -0.501000
     17 O1          2.2230   -2.8380    8.2200 o         1 4KD     -0.860000
     18 O2          4.4860   -3.5710    8.3860 o         1 4KD     -0.860000
     19 N           2.3940   -1.8490    0.7010 n         1 4KD     -0.064000
     20 C18         1.0270    0.0500   -1.9740 c1        1 4KD     -0.119000
     21 C17         0.0780    0.8450   -2.4040 c2        1 4KD      0.091000
     22 C16        -1.4020    0.5270   -2.4260 c3        1 4KD      0.113000
     23 H1         -1.5270   -0.5880   -2.5630 h1        1 4KD      0.138000
     24 H2         -3.1310    0.3060    0.5970 hc        1 4KD      0.084000
     25 H3         -3.4990   -0.5870   -0.9400 hc        1 4KD      0.084000
     26 H4          3.6900   -0.4540   -0.1880 h1        1 4KD      0.195000
     27 H5          0.3510   -1.7500    0.2260 h4        1 4KD      0.189500
     28 H6          2.5620   -2.8360   -1.9940 hc        1 4KD      0.150000
     29 H7          3.8140   -1.5800   -2.4730 hc        1 4KD      0.150000
     30 H8          5.3510   -6.3110    4.9730 ha        1 4KD      0.190000
     31 H9          3.9420   -7.2560    5.7500 ha        1 4KD      0.190000
     32 H10         0.8320   -2.6340    1.8480 h4        1 4KD      0.189500
     33 H11         1.3250   -3.1950    5.6200 ha        1 4KD      0.170000
     34 H12         3.8150   -1.5330    5.8920 hn        1 4KD      0.252333
     35 H13         4.9730   -1.4180    7.0720 hn        1 4KD      0.252333
     36 H14        -1.9280   -0.8730   -0.0810 hc        1 4KD      0.084000
     37 O4          0.3240    2.1250   -2.9370 os        1 4KD     -0.149000
     38 O3         -2.0100    1.0760   -3.5750 oh        1 4KD     -0.289000
     39 C1          1.5870    2.5350   -2.9610 c1        1 4KD     -0.013000
     40 C2         -2.0990    2.2710   -0.7960 c2        1 4KD     -0.182000
     41 H15         2.0430    1.9690   -5.1960 ha        1 4KD      0.007500
     42 H16         1.5730    3.5610   -3.4140 ha        1 4KD      0.057000
     43 H17         2.3630    1.4710   -4.8620 ha        1 4KD      0.007500
     44 H18        -2.6000    2.6190    0.1170 ha        1 4KD      0.127000
     45 H19        -2.0110    2.0390   -3.4840 ho        1 4KD      0.218000
     46 H20        -1.6340    3.0570   -1.4080 ha        1 4KD      0.127000
     47 H131        3.4680   -0.8000    7.3270 hn        1 4KD      0.252333
@<TRIPOS>BOND
     1    1    2 1   
     2    1   22 1   
     3    1   40 1   
     4    2   24 1   
     5    2   25 1   
     6    2   36 1   
     7    3    4 1   
     8    3    9 1   
     9    3   19 1   
    10    4   12 1   
    11    5   19 1   
    12    5   27 1   
    13    5   32 1   
    14    6    7 1   
    15    6    8 1   
    16    6   19 1   
    17    6   26 1   
    18    7    8 1   
    19    7   28 1   
    20    7   29 1   
    21    8   20 1   
    22   10   11 1   
    23   10   30 1   
    24   10   31 1   
    25   11   14 1   
    26   12   13 1   
    27   13   14 1   
    28   13   33 1   
    29   14   15 1   
    30   15   16 1   
    31   15   17 1   
    32   15   18 1   
    33   16   34 1   
    34   16   35 1   
    35   16   47 1   
    36   20   21 1   
    37   21   22 1   
    38   21   37 1   
    39   22   23 1   
    40   22   38 1   
    41   37   39 1   
    42   38   45 1   
    43   39   42 1   
    44   40   44 1   
    45   40   46 1   
    46   41   43 1   
@<TRIPOS>SUBSTRUCTURE
     1 4KD         1 TEMP              0 ****  ****    0 ROOT
