@<TRIPOS>MOLECULE
4KD
   47    49     1     0     0
SMALL
bcc


@<TRIPOS>ATOM
      1 C3         -0.0290   -0.0560   -0.0460 ca        1 4KD     -0.175000
      2 C4          1.3560    0.1400    0.0510 ca        1 4KD     -0.134300
      3 C9          3.9620   -0.8410    2.1210 c         1 4KD      0.637700
      4 C10         3.1600   -1.5870    3.1540 ca        1 4KD      0.014400
      5 C5          1.9440    0.4040    1.4070 c3        1 4KD      0.129300
      6 C6          4.0900    0.8390    0.3520 c3        1 4KD      0.071000
      7 C7          3.6270    0.3260   -1.0130 c3        1 4KD     -0.062100
      8 C8          2.1550    0.1300   -1.0930 ca        1 4KD     -0.061300
      9 O           5.1530   -1.1690    1.9640 o         1 4KD     -0.557100
     10 C11         2.6480   -2.8550    2.8490 ca        1 4KD     -0.123500
     11 C12         2.0250   -3.6020    3.8360 ca        1 4KD      0.007500
     12 C15         3.0210   -1.0640    4.4470 ca        1 4KD     -0.123500
     13 C14         2.3980   -1.8180    5.4300 ca        1 4KD      0.007500
     14 C13         1.8970   -3.1120    5.1570 ca        1 4KD     -0.557500
     15 S           1.1500   -3.9620    6.2830 sy        1 4KD      1.493200
     16 N1          2.6910   -4.9000    6.9570 n4        1 4KD     -0.787500
     17 O1          0.7950   -3.2620    7.4160 o         1 4KD     -0.566300
     18 O2          0.4120   -5.0320    5.8270 o         1 4KD     -0.566300
     19 N           3.3840    0.2400    1.4760 n         1 4KD     -0.421800
     20 C18         1.5700   -0.0900   -2.3500 ca        1 4KD     -0.182000
     21 C17         0.1960   -0.2880   -2.4600 ca        1 4KD      0.128100
     22 C16        -0.6170   -0.2690   -1.2880 ca        1 4KD      0.109100
     23 H1         -0.6460   -0.0300    0.8640 ha        1 4KD      0.137000
     24 H2          1.4420   -0.2570    2.1700 h1        1 4KD      0.060200
     25 H3          1.7260    1.4780    1.6860 h1        1 4KD      0.060200
     26 H4          5.1950    0.6530    0.4660 h1        1 4KD      0.081700
     27 H5          3.9050    1.9490    0.4170 h1        1 4KD      0.081700
     28 H6          4.1360   -0.6490   -1.2430 hc        1 4KD      0.070700
     29 H7          3.9580    1.0660   -1.7910 hc        1 4KD      0.070700
     30 H8          2.7500   -3.2590    1.8260 ha        1 4KD      0.187000
     31 H9          1.6070   -4.5960    3.5860 ha        1 4KD      0.171500
     32 H10         3.4130   -0.0590    4.6810 ha        1 4KD      0.187000
     33 H11         2.2790   -1.3960    6.4470 ha        1 4KD      0.171500
     34 H12         3.5440   -4.6470    6.4680 hn        1 4KD      0.456800
     35 H13         2.8240   -4.6970    7.9460 hn        1 4KD      0.456800
     36 H14         2.2100   -0.0960   -3.2440 ha        1 4KD      0.150000
     37 O4         -0.4790   -0.5160   -3.6360 os        1 4KD     -0.295900
     38 O3         -1.9590   -0.4990   -1.4990 os        1 4KD     -0.295900
     39 C1          0.3030   -0.4850   -4.8270 c3        1 4KD      0.106700
     40 C2         -2.8200   -0.2210   -0.4000 c3        1 4KD      0.109700
     41 H15        -0.4540   -0.6650   -5.6330 h1        1 4KD      0.051367
     42 H16         1.0690   -1.2980   -4.8160 h1        1 4KD      0.051367
     43 H17         0.7880    0.5130   -4.9560 h1        1 4KD      0.051367
     44 H18        -3.8430   -0.3500   -0.8360 h1        1 4KD      0.046367
     45 H19        -2.6750    0.8230   -0.0310 h1        1 4KD      0.046367
     46 H20        -2.6490   -0.9550    0.4250 h1        1 4KD      0.046367
     47 H131        2.5620   -5.9060    6.8610 hn        1 4KD      0.456800
@<TRIPOS>BOND
     1    1    2 ar  
     2    1   22 ar  
     3    1   23 1   
     4    2    5 1   
     5    2    8 ar  
     6    3    4 1   
     7    3    9 2   
     8    3   19 1   
     9    4   10 ar  
    10    4   12 ar  
    11    5   19 1   
    12    5   24 1   
    13    5   25 1   
    14    6    7 1   
    15    6   19 1   
    16    6   26 1   
    17    6   27 1   
    18    7    8 1   
    19    7   28 1   
    20    7   29 1   
    21    8   20 ar  
    22   10   11 ar  
    23   10   30 1   
    24   11   14 ar  
    25   11   31 1   
    26   12   13 ar  
    27   12   32 1   
    28   13   14 ar  
    29   13   33 1   
    30   14   15 1   
    31   15   16 1   
    32   15   17 2   
    33   15   18 2   
    34   16   34 1   
    35   16   35 1   
    36   16   47 1   
    37   20   21 ar  
    38   20   36 1   
    39   21   22 ar  
    40   21   37 1   
    41   22   38 1   
    42   37   39 1   
    43   38   40 1   
    44   39   41 1   
    45   39   42 1   
    46   39   43 1   
    47   40   44 1   
    48   40   45 1   
    49   40   46 1   
@<TRIPOS>SUBSTRUCTURE
     1 4KD         1 TEMP              0 ****  ****    0 ROOT
