@<TRIPOS>MOLECULE
4KE
   38    39     1     0     0
SMALL
bcc


@<TRIPOS>ATOM
      1 C01         0.5430    0.9500    0.5800 c3        1 4KE     -0.056200
      2 C02         1.6080    0.3810   -0.3490 c3        1 4KE      0.115100
      3 C03         2.2940   -0.8650    0.2290 c3        1 4KE      0.089100
      4 C04         1.2530   -1.9590    0.5480 c3        1 4KE      0.153300
      5 C05        -0.0220   -1.4120    1.0930 c2        1 4KE     -0.263200
      6 C06        -0.3440   -0.1130    1.1140 ce        1 4KE     -0.135400
      7 C07        -1.6740    0.3740    1.6870 c         1 4KE      0.903800
      8 O08        -2.1150    1.4820    1.2690 o         1 4KE     -0.823800
      9 O09        -2.2540   -0.3540    2.5380 o         1 4KE     -0.823800
     10 O10         1.0400   -2.7600   -0.6080 oh        1 4KE     -0.607800
     11 O11         3.0620   -0.5620    1.3790 oh        1 4KE     -0.600800
     12 O12         2.5790    1.4390   -0.5080 os        1 4KE     -0.416900
     13 C13         3.3930    1.4050   -1.5980 c         1 4KE      0.642300
     14 C14         4.3760    2.5010   -1.5790 ce        1 4KE     -0.185200
     15 C15         4.6060    3.4020   -2.5380 cf        1 4KE     -0.053200
     16 C16         3.9590    3.5500   -3.8320 ca        1 4KE     -0.109800
     17 O17         3.2700    0.4930   -2.4220 o         1 4KE     -0.562000
     18 C18         3.6780    2.4530   -4.6590 ca        1 4KE     -0.072500
     19 C19         3.0920    2.6340   -5.9070 ca        1 4KE     -0.190000
     20 C20         2.7750    3.9330   -6.3330 ca        1 4KE      0.126100
     21 C21         3.0460    5.0420   -5.5180 ca        1 4KE     -0.190000
     22 C22         3.6410    4.8430   -4.2770 ca        1 4KE     -0.072500
     23 O23         2.2040    4.0540   -7.5800 oh        1 4KE     -0.500100
     24 H1         -0.0840    1.7070    0.0330 hc        1 4KE      0.080200
     25 H2          1.0330    1.4910    1.4350 hc        1 4KE      0.080200
     26 H3          1.1730    0.1200   -1.3520 h1        1 4KE      0.071700
     27 H4          3.0450   -1.2570   -0.5140 h1        1 4KE      0.086700
     28 H5          1.7180   -2.6730    1.2900 h1        1 4KE      0.072700
     29 H6         -0.7200   -2.1570    1.5070 ha        1 4KE      0.153000
     30 H8          0.4260   -2.2790   -1.1760 ho        1 4KE      0.402000
     31 H9          2.4540   -0.1860    2.0300 ho        1 4KE      0.410000
     32 H10         4.9370    2.5450   -0.6270 ha        1 4KE      0.154000
     33 H11         5.3740    4.1770   -2.3400 ha        1 4KE      0.123000
     34 H12         3.9140    1.4310   -4.3110 ha        1 4KE      0.152500
     35 H13         2.8660    1.7770   -6.5560 ha        1 4KE      0.140500
     36 H14         2.7860    6.0550   -5.8540 ha        1 4KE      0.140500
     37 H15         3.8550    5.7090   -3.6320 ha        1 4KE      0.152500
     38 H16         1.9640    4.9840   -7.7060 ho        1 4KE      0.415000
@<TRIPOS>BOND
     1    1    2 1   
     2    1    6 1   
     3    1   24 1   
     4    1   25 1   
     5    2    3 1   
     6    2   12 1   
     7    2   26 1   
     8    3    4 1   
     9    3   11 1   
    10    3   27 1   
    11    4    5 1   
    12    4   10 1   
    13    4   28 1   
    14    5    6 2   
    15    5   29 1   
    16    6    7 1   
    17    7    8 1   
    18    7    9 1   
    19   10   30 1   
    20   11   31 1   
    21   12   13 1   
    22   13   14 1   
    23   13   17 2   
    24   14   15 2   
    25   14   32 1   
    26   15   16 1   
    27   15   33 1   
    28   16   18 ar  
    29   16   22 ar  
    30   18   19 ar  
    31   18   34 1   
    32   19   20 ar  
    33   19   35 1   
    34   20   21 ar  
    35   20   23 1   
    36   21   22 ar  
    37   21   36 1   
    38   22   37 1   
    39   23   38 1   
@<TRIPOS>SUBSTRUCTURE
     1 4KE         1 TEMP              0 ****  ****    0 ROOT
