@<TRIPOS>MOLECULE
4KE
   38    33     1     0     0
SMALL
bcc


@<TRIPOS>ATOM
      1 C01        -2.7100   -0.3900    1.5240 c3        1 4KE     -0.137000
      2 C02        -1.0590   -0.4100    1.5550 c3        1 4KE      0.033000
      3 C03        -0.5180   -0.4470    2.7360 c3        1 4KE     -0.006000
      4 C04        -0.9360    0.7760    3.7500 c3        1 4KE      0.035000
      5 C05        -2.3820    0.9540    3.8370 c2        1 4KE     -0.253000
      6 C06        -3.2580    0.6510    2.4020 c1        1 4KE     -0.105000
      7 C07        -4.7260    1.0130    2.3220 c1        1 4KE      0.353000
      8 O08        -5.5770    0.3370    2.9600 os        1 4KE     -0.558000
      9 O09        -5.0980    1.9700    1.5950 o         1 4KE     -0.567000
     10 O10        -0.3380    0.6080    5.0650 oh        1 4KE     -0.354000
     11 O11         0.9730   -0.4210    2.5650 oh        1 4KE     -0.340000
     12 O12        -0.5650    0.8230    0.8550 os        1 4KE     -0.255000
     13 C13         0.2740    0.5570   -0.2540 c2        1 4KE      0.351000
     14 C14         1.4610    1.4530   -0.5380 c2        1 4KE     -0.164000
     15 C15         2.2460    1.2220   -1.6300 c1        1 4KE     -0.066000
     16 C16         1.9260    0.0580   -2.5680 c1        1 4KE     -0.097000
     17 O17         0.0060   -0.3520   -1.0110 o         1 4KE     -0.371000
     18 C18         1.4470    0.4670   -3.8050 c2        1 4KE     -0.076000
     19 C19         1.7430   -0.2720   -4.9430 c1        1 4KE     -0.220000
     20 C20         2.5190   -1.4210   -4.8430 c1        1 4KE      0.081000
     21 C21         2.9970   -1.8290   -3.6080 c1        1 4KE     -0.159000
     22 C22         2.7010   -1.0890   -2.4680 c1        1 4KE     -0.068000
     23 O23         2.8300   -2.1680   -6.0040 o         1 4KE     -0.256000
     24 H1         -3.0530   -0.4320    0.6100 hc        1 4KE      0.119500
     25 H2         -3.0490   -1.2410    1.8720 hc        1 4KE      0.119500
     26 H3         -0.7540   -1.1910    1.0560 h1        1 4KE      0.119000
     27 H4         -0.7650   -1.2940    3.1600 h1        1 4KE      0.085000
     28 H5         -0.5140    1.6070    3.4630 h1        1 4KE      0.119000
     29 H6         -2.7610    1.5260    4.5270 ha        1 4KE      0.154000
     30 H8         -0.1820    1.4060    5.4250 ho        1 4KE      0.203000
     31 H9          1.3460   -1.0010    3.1280 ho        1 4KE      0.209000
     32 H10         1.6660    2.2000    0.0640 ha        1 4KE      0.151000
     33 H11         3.0120    1.8010   -1.8120 ha        1 4KE      0.122000
     34 H12         0.9040    1.2720   -3.8750 ha        1 4KE      0.132000
     35 H13         1.3740   -0.0070   -5.8060 ha        1 4KE      0.129000
     36 H14         3.5420   -2.6370   -3.5380 ha        1 4KE      0.150000
     37 H15         3.0940   -1.3370   -1.6120 ha        1 4KE      0.173000
     38 H16         2.1850   -2.7600   -6.1560 ho        1 4KE      0.214000
@<TRIPOS>BOND
     1    1    2 1   
     2    1    6 1   
     3    1   24 1   
     4    1   25 1   
     5    2    3 1   
     6    2   12 1   
     7    2   26 1   
     8    3    4 1   
     9    3   11 1   
    10    3   27 1   
    11    4    5 1   
    12    4   10 1   
    13    4   28 1   
    14    5    6 1   
    15    5   29 1   
    16    7    9 1   
    17   10   30 1   
    18   11   31 1   
    19   12   13 1   
    20   13   14 1   
    21   13   17 1   
    22   14   15 1   
    23   14   32 1   
    24   15   33 1   
    25   16   18 1   
    26   16   22 1   
    27   18   19 1   
    28   18   34 1   
    29   19   35 1   
    30   20   21 1   
    31   21   36 1   
    32   22   37 1   
    33   23   38 1   
@<TRIPOS>SUBSTRUCTURE
     1 4KE         1 TEMP              0 ****  ****    0 ROOT
