@<TRIPOS>MOLECULE
4KE
   38    39     1     0     0
SMALL
bcc


@<TRIPOS>ATOM
      1 C01         1.3270    1.1600   -1.1090 c3        1 4KE     -0.070200
      2 C02         2.4060    0.1350   -0.7850 c3        1 4KE      0.109100
      3 C03         2.3210   -0.3530    0.6660 c3        1 4KE      0.107100
      4 C04         0.9190   -0.9490    0.9400 c3        1 4KE      0.148300
      5 C05        -0.1920   -0.1700    0.3180 c2        1 4KE     -0.249200
      6 C06        -0.0140    0.7870   -0.6000 ce        1 4KE     -0.137400
      7 C07        -1.1610    1.6060   -1.1780 c         1 4KE      0.915800
      8 O08        -0.8610    2.6190   -1.8830 o         1 4KE     -0.840300
      9 O09        -2.3430    1.2550   -0.9290 o         1 4KE     -0.840300
     10 O10         0.9030   -2.3140    0.5400 oh        1 4KE     -0.606800
     11 O11         2.6110    0.6640    1.6050 oh        1 4KE     -0.594800
     12 O12         3.6670    0.8160   -0.9710 os        1 4KE     -0.424900
     13 C13         4.4940    0.3850   -1.9680 c         1 4KE      0.648300
     14 C14         5.5260    1.3590   -2.3690 ce        1 4KE     -0.207200
     15 C15         5.2960    2.4740   -3.0720 cf        1 4KE     -0.028200
     16 C16         3.9790    2.9540   -3.4710 ca        1 4KE     -0.154800
     17 O17         4.3600   -0.7600   -2.4100 o         1 4KE     -0.553000
     18 C18         3.5850    2.9460   -4.8160 ca        1 4KE     -0.084000
     19 C19         2.2750    3.2470   -5.1720 ca        1 4KE     -0.190000
     20 C20         1.3440    3.5630   -4.1670 ca        1 4KE      0.167100
     21 C21         1.7570    3.6810   -2.8280 ca        1 4KE     -0.190000
     22 C22         3.0680    3.3750   -2.4910 ca        1 4KE     -0.084000
     23 O23         0.0390    3.7530   -4.5340 oh        1 4KE     -0.529100
     24 H1          1.6100    2.1570   -0.6700 hc        1 4KE      0.076700
     25 H2          1.2700    1.3080   -2.2220 hc        1 4KE      0.076700
     26 H3          2.3320   -0.7560   -1.4660 h1        1 4KE      0.080700
     27 H4          3.1070   -1.1370    0.8550 h1        1 4KE      0.080700
     28 H5          0.7790   -0.9920    2.0600 h1        1 4KE      0.073700
     29 H6         -1.2070   -0.4290    0.6590 ha        1 4KE      0.154000
     30 H8          0.7530   -2.3290   -0.4120 ho        1 4KE      0.403000
     31 H9          2.0130    1.3990    1.4150 ho        1 4KE      0.408000
     32 H10         6.5450    1.0530   -2.0840 ha        1 4KE      0.142000
     33 H11         6.1480    3.0960   -3.4020 ha        1 4KE      0.121000
     34 H12         4.3080    2.6590   -5.5940 ha        1 4KE      0.129500
     35 H13         1.9490    3.2060   -6.2200 ha        1 4KE      0.163000
     36 H14         1.0040    3.9170   -2.0540 ha        1 4KE      0.163000
     37 H15         3.3850    3.4050   -1.4360 ha        1 4KE      0.129500
     38 H16        -0.5200    3.5750   -3.7470 ho        1 4KE      0.486000
@<TRIPOS>BOND
     1    1    2 1   
     2    1    6 1   
     3    1   24 1   
     4    1   25 1   
     5    2    3 1   
     6    2   12 1   
     7    2   26 1   
     8    3    4 1   
     9    3   11 1   
    10    3   27 1   
    11    4    5 1   
    12    4   10 1   
    13    4   28 1   
    14    5    6 2   
    15    5   29 1   
    16    6    7 1   
    17    7    8 1   
    18    7    9 1   
    19   10   30 1   
    20   11   31 1   
    21   12   13 1   
    22   13   14 1   
    23   13   17 2   
    24   14   15 2   
    25   14   32 1   
    26   15   16 1   
    27   15   33 1   
    28   16   18 ar  
    29   16   22 ar  
    30   18   19 ar  
    31   18   34 1   
    32   19   20 ar  
    33   19   35 1   
    34   20   21 ar  
    35   20   23 1   
    36   21   22 ar  
    37   21   36 1   
    38   22   37 1   
    39   23   38 1   
@<TRIPOS>SUBSTRUCTURE
     1 4KE         1 TEMP              0 ****  ****    0 ROOT
