@<TRIPOS>MOLECULE
4KE
   38    39     1     0     0
SMALL
bcc


@<TRIPOS>ATOM
      1 C01         2.8780    0.7410   -0.6770 c3        1 4KE     -0.056200
      2 C02         2.0470   -0.1040    0.2810 c3        1 4KE      0.116100
      3 C03         2.4350   -1.5880    0.2480 c3        1 4KE      0.089100
      4 C04         3.9330   -1.7630    0.5810 c3        1 4KE      0.153300
      5 C05         4.7890   -0.6890    0.0020 c2        1 4KE     -0.262200
      6 C06         4.3250    0.4300   -0.5650 ce        1 4KE     -0.136400
      7 C07         5.2650    1.4920   -1.1340 c         1 4KE      0.903800
      8 O08         4.8230    2.6720   -1.2200 o         1 4KE     -0.824300
      9 O09         6.4230    1.1320   -1.4820 o         1 4KE     -0.824300
     10 O10         4.0950   -1.8750    1.9900 oh        1 4KE     -0.606800
     11 O11         2.1320   -2.1920   -0.9950 oh        1 4KE     -0.599800
     12 O12         0.6800    0.0510   -0.1600 os        1 4KE     -0.417900
     13 C13        -0.3130   -0.1830    0.7410 c         1 4KE      0.632300
     14 C14        -1.6510   -0.0040    0.1540 ce        1 4KE     -0.193200
     15 C15        -2.7570   -0.2120    0.8830 cf        1 4KE     -0.048200
     16 C16        -4.1170   -0.0660    0.3960 ca        1 4KE     -0.098800
     17 O17        -0.0300   -0.4980    1.9030 o         1 4KE     -0.562000
     18 C18        -5.1710   -0.0210    1.3270 ca        1 4KE     -0.074000
     19 C19        -6.4890    0.1190    0.9110 ca        1 4KE     -0.190000
     20 C20        -6.7640    0.2110   -0.4640 ca        1 4KE      0.127100
     21 C21        -5.7290    0.1620   -1.4070 ca        1 4KE     -0.190000
     22 C22        -4.4140    0.0240   -0.9710 ca        1 4KE     -0.074000
     23 O23        -8.0870    0.3460   -0.8190 oh        1 4KE     -0.500100
     24 H1          2.5390    0.5620   -1.7330 hc        1 4KE      0.079200
     25 H2          2.7220    1.8340   -0.4660 hc        1 4KE      0.079200
     26 H3          2.1430    0.2710    1.3370 h1        1 4KE      0.071700
     27 H4          1.8090   -2.1550    0.9950 h1        1 4KE      0.086700
     28 H5          4.2580   -2.7720    0.1900 h1        1 4KE      0.073700
     29 H6          5.8750   -0.8670    0.0560 ha        1 4KE      0.153000
     30 H8          4.0680   -0.9810    2.3490 ho        1 4KE      0.401000
     31 H9          2.6240   -1.7040   -1.6690 ho        1 4KE      0.409000
     32 H10        -1.6590    0.3070   -0.9020 ha        1 4KE      0.153000
     33 H11        -2.6590   -0.5130    1.9450 ha        1 4KE      0.147000
     34 H12        -4.9470   -0.0950    2.4020 ha        1 4KE      0.141500
     35 H13        -7.3150    0.1580    1.6340 ha        1 4KE      0.141000
     36 H14        -5.9520    0.2310   -2.4810 ha        1 4KE      0.141000
     37 H15        -3.6020   -0.0200   -1.7140 ha        1 4KE      0.141500
     38 H16        -8.1300    0.4050   -1.7850 ho        1 4KE      0.418000
@<TRIPOS>BOND
     1    1    2 1   
     2    1    6 1   
     3    1   24 1   
     4    1   25 1   
     5    2    3 1   
     6    2   12 1   
     7    2   26 1   
     8    3    4 1   
     9    3   11 1   
    10    3   27 1   
    11    4    5 1   
    12    4   10 1   
    13    4   28 1   
    14    5    6 2   
    15    5   29 1   
    16    6    7 1   
    17    7    8 1   
    18    7    9 1   
    19   10   30 1   
    20   11   31 1   
    21   12   13 1   
    22   13   14 1   
    23   13   17 2   
    24   14   15 2   
    25   14   32 1   
    26   15   16 1   
    27   15   33 1   
    28   16   18 ar  
    29   16   22 ar  
    30   18   19 ar  
    31   18   34 1   
    32   19   20 ar  
    33   19   35 1   
    34   20   21 ar  
    35   20   23 1   
    36   21   22 ar  
    37   21   36 1   
    38   22   37 1   
    39   23   38 1   
@<TRIPOS>SUBSTRUCTURE
     1 4KE         1 TEMP              0 ****  ****    0 ROOT
