@<TRIPOS>MOLECULE
4KF
   49    48     1     0     0
SMALL
bcc


@<TRIPOS>ATOM
      1 C4         -0.0390   -0.4690   -0.1620 ca        1 4KF     -0.183000
      2 C5          1.3160   -0.3450    0.1360 ca        1 4KF     -0.061300
      3 C6          2.3450   -0.6500   -0.9180 c3        1 4KF      0.120300
      4 C8          3.0550    1.0550   -2.5490 c         1 4KF      0.622100
      5 C10         5.2920    2.0910   -2.9220 cx        1 4KF     -0.021900
      6 C13         2.7180    5.8950   -1.9740 c3        1 4KF     -0.100600
      7 C15         6.6430    7.2620   -2.8610 c2        1 4KF     -0.221500
      8 C20         0.7710    0.3060    2.3980 ca        1 4KF      0.160600
      9 C22         0.3470    0.9410    4.6560 c3        1 4KF      0.112700
     10 C11         6.1830    3.0150   -3.6100 c         1 4KF      0.723600
     11 O12         5.7790    1.9070   -4.3130 os        1 4KF     -0.408900
     12 C14         2.9300    5.3260   -0.6020 c3        1 4KF     -0.100600
     13 C16         7.5530    8.1510   -2.4880 c2        1 4KF     -0.221500
     14 C9          3.8130    2.3720   -2.7910 c3        1 4KF      0.081100
     15 O17         3.2970    3.0170   -3.9310 oh        1 4KF     -0.572800
     16 O18         2.4410    0.5240   -3.4930 o         1 4KF     -0.581100
     17 N7          3.1500    0.4860   -1.2940 ns        1 4KF     -0.545900
     18 C19         1.7340    0.0410    1.4110 ca        1 4KF     -0.183000
     19 C1         -0.9880   -0.2060    0.8430 ca        1 4KF      0.160600
     20 O2         -2.3000   -0.3650    0.4480 os        1 4KF     -0.324400
     21 C3         -3.2960   -0.0950    1.4270 c3        1 4KF      0.112700
     22 C23        -0.5990    0.1860    2.1290 ca        1 4KF     -0.272000
     23 O21         1.2890    0.6860    3.6200 os        1 4KF     -0.324400
     24 H1         -0.3810   -0.7660   -1.1640 ha        1 4KF      0.153500
     25 H2          1.8440   -1.0670   -1.8390 h1        1 4KF      0.078700
     26 H3          3.0450   -1.4390   -0.5110 h1        1 4KF      0.078700
     27 H4          5.6990    1.3450   -2.2100 h1        1 4KF      0.122700
     28 H5          3.4650    6.6980   -2.1880 hc        1 4KF      0.033867
     29 H6          1.6960    6.3370   -2.0630 hc        1 4KF      0.033867
     30 H7          6.9060    6.2810   -3.2840 ha        1 4KF      0.110500
     31 H8         -0.3220    1.7920    4.3800 h1        1 4KF      0.046200
     32 H9         -0.2520    0.0260    4.8800 h1        1 4KF      0.046200
     33 H10         0.9920    1.2140    5.5300 h1        1 4KF      0.046200
     34 H12         3.9660    4.9190   -0.4980 hc        1 4KF      0.033867
     35 H13         2.2060    4.5000   -0.3990 hc        1 4KF      0.033867
     36 H14         2.7890    6.1120    0.1790 hc        1 4KF      0.033867
     37 H15         5.5640    7.4470   -2.7730 ha        1 4KF      0.110500
     38 H16         8.6320    7.9680   -2.5770 ha        1 4KF      0.110500
     39 H17         7.2900    9.1310   -2.0670 ha        1 4KF      0.110500
     40 H18         2.8240    5.1010   -2.7560 hc        1 4KF      0.033867
     41 H19         3.2420    2.3610   -4.6460 ho        1 4KF      0.442000
     42 H20         3.6420    3.1050   -1.9470 h1        1 4KF      0.111700
     43 H21         2.8010    0.1290    1.6600 ha        1 4KF      0.153500
     44 H22        -3.1950   -0.7910    2.2950 h1        1 4KF      0.046200
     45 H23        -4.2550   -0.2830    0.8800 h1        1 4KF      0.046200
     46 H24        -3.2390    0.9680    1.7670 h1        1 4KF      0.046200
     47 H25        -1.3450    0.3920    2.9060 ha        1 4KF      0.146000
     48 H72         3.4660    1.0610   -0.5470 hn        1 4KF      0.306500
     49 O1          6.9020    3.9490   -3.8600 o         1 4KF     -0.487500
@<TRIPOS>BOND
     1    1    2 ar  
     2    1   19 ar  
     3    1   24 1   
     4    2    3 1   
     5    2   18 ar  
     6    3   17 1   
     7    3   25 1   
     8    3   26 1   
     9    4   14 1   
    10    4   16 2   
    11    4   17 1   
    12    5   10 1   
    13    5   11 1   
    14    5   14 1   
    15    5   27 1   
    16    6   12 1   
    17    6   28 1   
    18    6   29 1   
    19    6   40 1   
    20    7   13 2   
    21    7   30 1   
    22    7   37 1   
    23    8   18 ar  
    24    8   22 ar  
    25    8   23 1   
    26    9   23 1   
    27    9   31 1   
    28    9   32 1   
    29    9   33 1   
    30   10   11 1   
    31   10   49 2   
    32   12   34 1   
    33   12   35 1   
    34   12   36 1   
    35   13   38 1   
    36   13   39 1   
    37   14   15 1   
    38   14   42 1   
    39   15   41 1   
    40   17   48 1   
    41   18   43 1   
    42   19   20 1   
    43   19   22 ar  
    44   20   21 1   
    45   21   44 1   
    46   21   45 1   
    47   21   46 1   
    48   22   47 1   
@<TRIPOS>SUBSTRUCTURE
     1 4KF         1 TEMP              0 ****  ****    0 ROOT
