@<TRIPOS>MOLECULE
4KF
   49    49     1     0     0
SMALL
bcc


@<TRIPOS>ATOM
      1 C4         -0.6650    0.9940    1.0640 ca        1 4KF     -0.186000
      2 C5          0.5600    0.6850    0.4750 ca        1 4KF     -0.067300
      3 C6          0.9680    1.3640   -0.8040 c3        1 4KF      0.197100
      4 C8          5.1210    1.8530   -2.8570 c         1 4KF      0.685600
      5 C10         4.1160    4.0630   -2.8410 c3        1 4KF     -0.132700
      6 C13         4.6810    5.4230   -3.2400 c3        1 4KF     -0.042700
      7 C15         4.4850    6.4530   -2.1360 c3        1 4KF     -0.090400
      8 C20         1.0120   -0.9040    2.2400 ca        1 4KF      0.159600
      9 C22         1.5700   -2.4800    3.9390 c3        1 4KF      0.113700
     10 C11         4.5450    3.5690   -1.4750 c         1 4KF      0.737600
     11 O12         5.1090    2.2850   -1.5400 os        1 4KF     -0.426200
     12 C14         4.0080    5.8830   -4.5210 c3        1 4KF     -0.093100
     13 C16         5.1170    7.7790   -2.4730 c3        1 4KF     -0.090100
     14 C9          4.5170    2.9030   -3.7880 c3        1 4KF      0.067100
     15 O17         5.4670    3.3290   -4.7390 oh        1 4KF     -0.568800
     16 O18         5.5980    0.7520   -3.0770 o         1 4KF     -0.537500
     17 N7          2.2110    2.0920   -0.7800 n3        1 4KF     -0.929800
     18 C19         1.4070   -0.2630    1.0540 ca        1 4KF     -0.186000
     19 C1         -1.0440    0.3390    2.2490 ca        1 4KF      0.159600
     20 O2         -2.2760    0.7160    2.7450 os        1 4KF     -0.324900
     21 C3         -2.6920    0.0870    3.9510 c3        1 4KF      0.113700
     22 C23        -0.2140   -0.6140    2.8530 ca        1 4KF     -0.276000
     23 O21         1.9200   -1.8230    2.7270 os        1 4KF     -0.324900
     24 H1         -1.3420    1.7370    0.6200 ha        1 4KF      0.151500
     25 H2          0.1560    2.0820   -1.1170 h1        1 4KF      0.058200
     26 H3          1.0490    0.5710   -1.6040 h1        1 4KF      0.058200
     27 H4          2.9910    4.1320   -2.8150 hc        1 4KF      0.111700
     28 H5          5.7850    5.3050   -3.4360 hc        1 4KF      0.074700
     29 H6          3.3870    6.5930   -1.9500 hc        1 4KF      0.053200
     30 H7          4.9370    6.0710   -1.1820 hc        1 4KF      0.053200
     31 H8          0.6370   -3.0800    3.8070 h1        1 4KF      0.044700
     32 H9          2.4460   -3.1500    4.1330 h1        1 4KF      0.044700
     33 H10         1.4480   -1.7420    4.7680 h1        1 4KF      0.044700
     34 H12         2.9330    6.1220   -4.3390 hc        1 4KF      0.041700
     35 H13         4.5160    6.8000   -4.9070 hc        1 4KF      0.041700
     36 H14         4.0750    5.0900   -5.3050 hc        1 4KF      0.041700
     37 H15         5.0850    8.4520   -1.5820 hc        1 4KF      0.035700
     38 H16         4.5750    8.2820   -3.3100 hc        1 4KF      0.035700
     39 H17         6.1840    7.6440   -2.7750 hc        1 4KF      0.035700
     40 H18         3.6130    2.4740   -4.3010 h1        1 4KF      0.084700
     41 H19         5.7380    2.5420   -5.2320 ho        1 4KF      0.425000
     42 H20         2.1770    2.8440   -0.1160 hn        1 4KF      0.360800
     43 H21         2.3720   -0.5210    0.5970 ha        1 4KF      0.151500
     44 H22        -3.6930    0.5480    4.1530 h1        1 4KF      0.044700
     45 H23        -1.9800    0.3140    4.7820 h1        1 4KF      0.044700
     46 H24        -2.7890   -1.0170    3.8080 h1        1 4KF      0.044700
     47 H25        -0.5150   -1.1190    3.7780 ha        1 4KF      0.143000
     48 H72         2.9780    1.4930   -0.5320 hn        1 4KF      0.360800
     49 O1          4.4500    4.0160   -0.3440 o         1 4KF     -0.541500
@<TRIPOS>BOND
     1    1    2 ar  
     2    1   19 ar  
     3    1   24 1   
     4    2    3 1   
     5    2   18 ar  
     6    3   17 1   
     7    3   25 1   
     8    3   26 1   
     9    4   11 1   
    10    4   14 1   
    11    4   16 2   
    12    5    6 1   
    13    5   10 1   
    14    5   14 1   
    15    5   27 1   
    16    6    7 1   
    17    6   12 1   
    18    6   28 1   
    19    7   13 1   
    20    7   29 1   
    21    7   30 1   
    22    8   18 ar  
    23    8   22 ar  
    24    8   23 1   
    25    9   23 1   
    26    9   31 1   
    27    9   32 1   
    28    9   33 1   
    29   10   11 1   
    30   10   49 2   
    31   12   34 1   
    32   12   35 1   
    33   12   36 1   
    34   13   37 1   
    35   13   38 1   
    36   13   39 1   
    37   14   15 1   
    38   14   40 1   
    39   15   41 1   
    40   17   42 1   
    41   17   48 1   
    42   18   43 1   
    43   19   20 1   
    44   19   22 ar  
    45   20   21 1   
    46   21   44 1   
    47   21   45 1   
    48   21   46 1   
    49   22   47 1   
@<TRIPOS>SUBSTRUCTURE
     1 4KF         1 TEMP              0 ****  ****    0 ROOT
