@<TRIPOS>MOLECULE
4KH
   31    40     1     0     0
SMALL
bcc


@<TRIPOS>ATOM
      1 C20         0.0000    0.0000    0.0000 c2        1 4KH      0.112000
      2 C19         1.3790    0.0000    0.0000 c2        1 4KH     -0.093000
      3 C17         1.4550   -0.0100    2.3070 c2        1 4KH     -0.044000
      4 C7         -6.4460    0.0240   -0.3940 c1        1 4KH      0.425000
      5 C4         -8.6430    0.0340   -2.0750 c2        1 4KH      0.090000
      6 C2         -8.9080    0.0410   -4.4560 c3        1 4KH     -0.109000
      7 C1         -7.5320    0.0370   -4.6190 DU        1 4KH     -0.073000
      8 C3         -9.4610    0.0400   -3.1900 c2        1 4KH     -0.448000
      9 C10        -4.1920    0.0150    0.3380 c3        1 4KH     -0.338000
     10 C12        -2.1600    0.0060    1.2720 c2        1 4KH     -0.190000
     11 C15        -0.6790    0.0010    1.2230 c2        1 4KH     -0.024000
     12 C16         0.0790   -0.0050    2.3990 c3        1 4KH     -0.290000
     13 C5         -7.2530    0.0300   -2.2330 c2        1 4KH     -0.336000
     14 C6         -6.7040    0.0310   -3.5170 c2        1 4KH      0.157000
     15 O8         -7.1650    0.0240    0.5870 o         1 4KH     -0.243000
     16 N11        -2.9060    0.0100    0.1750 n2        1 4KH     -0.077000
     17 C13        -2.8420    0.0080    2.4320 c2        1 4KH     -0.287000
     18 S14        -4.5640    0.0200    2.0580 ss        1 4KH      0.422000
     19 N18         2.0560    0.0000    1.1330 n7        1 4KH      0.013000
     20 H1         -1.0740    0.0040   -0.1450 ha        1 4KH      0.265000
     21 H2          0.3120   -0.1800    0.0550 h4        1 4KH     -0.173000
     22 H3          0.8850   -0.0070    1.3860 DU        1 4KH      0.214000
     23 H4         -4.1290    0.0170   -0.7230 DU        1 4KH      0.350000
     24 H5         -8.0370    0.0370   -3.8110 DU        1 4KH     -0.049000
     25 H6         -6.7250    0.0320   -3.8960 ha        1 4KH     -0.075000
     26 H7         -9.5090    0.0430   -4.2720 DU        1 4KH      0.211000
     27 H8         -0.7100   -0.0000    1.6560 hc        1 4KH      0.033000
     28 H9         -7.7800    0.0340   -3.3920 DU        1 4KH      0.447000
     29 H10        -1.8320    0.0010    2.8220 h4        1 4KH      0.269000
     30 N9         -5.1290    0.0200   -0.6860 n7        1 4KH     -0.102000
     31 F21        -9.1840    0.0390   -0.8370 f         1 4KH     -0.059000
@<TRIPOS>BOND
     1    1    2 1   
     2    1   11 1   
     3    1   20 1   
     4    2   19 1   
     5    2   21 1   
     6    3   12 1   
     7    3   19 1   
     8    3   22 1   
     9    4   15 1   
    10    4   30 1   
    11    5    8 1   
    12    5   13 1   
    13    5   31 1   
    14    6    7 1   
    15    6    8 1   
    16    6   24 1   
    17    6   26 1   
    18    7   14 1   
    19    7   24 1   
    20    7   25 1   
    21    7   28 1   
    22    8   26 1   
    23    9   16 1   
    24    9   18 1   
    25    9   23 1   
    26    9   30 1   
    27   10   11 1   
    28   10   16 1   
    29   10   17 1   
    30   11   12 1   
    31   12   22 1   
    32   12   27 1   
    33   13   14 1   
    34   13   28 1   
    35   14   28 1   
    36   17   18 1   
    37   17   29 1   
    38   19   22 1   
    39   23   30 1   
    40   24   28 1   
@<TRIPOS>SUBSTRUCTURE
     1 4KH         1 TEMP              0 ****  ****    0 ROOT
