@<TRIPOS>MOLECULE
4KJ
   32    31     1     0     0
SMALL
bcc


@<TRIPOS>ATOM
      1 OD2         2.0650    1.1420    0.2830 o         1 4KJ     -0.777800
      2 C           2.4050    1.4830   -0.8710 c         1 4KJ      0.949600
      3 OD1         3.0560    2.4920   -1.2270 o         1 4KJ     -0.777800
      4 CA          1.9710    0.4830   -2.0400 c3        1 4KJ     -0.063500
      5 N           0.8610   -0.3790   -1.5260 n4        1 4KJ     -0.831600
      6 CB          1.5930    1.2270   -3.3160 c3        1 4KJ     -0.077400
      7 CG          2.8030    1.5200   -4.1860 c3        1 4KJ     -0.140700
      8 CD          3.6480    2.6020   -3.5760 c2        1 4KJ      0.589200
      9 NE          4.9300    2.4730   -3.4450 ne        1 4KJ     -0.758000
     10 CZ          5.6610    3.4600   -2.7160 ce        1 4KJ      0.736200
     11 NH1         5.5300    3.9850   -1.5530 n2        1 4KJ     -0.761100
     12 NH2         6.9520    3.8470   -3.4820 n4        1 4KJ     -0.440900
     13 C2          8.1690    3.6370   -2.6550 c3        1 4KJ      0.077100
     14 OH          6.8400    5.1030   -4.0120 os        1 4KJ     -0.222100
     15 C1          7.1250    6.2500   -3.1870 c3        1 4KJ      0.085700
     16 H2          2.8570   -0.1900   -2.2220 hx        1 4KJ      0.099700
     17 H3          0.9750   -0.4180   -0.4870 hn        1 4KJ      0.456467
     18 H4         -0.0430    0.0450   -1.7350 hn        1 4KJ      0.456467
     19 H6          1.0850    2.1900   -3.0370 hc        1 4KJ      0.066700
     20 H7          0.8740    0.6250   -3.9360 hc        1 4KJ      0.066700
     21 H8          3.3860    0.5790   -4.3690 hc        1 4KJ      0.082700
     22 H9          2.4490    1.8980   -5.1860 hc        1 4KJ      0.082700
     23 H10         3.0690    3.4970   -3.2440 h4        1 4KJ      0.025800
     24 H11         4.7210    3.7440   -1.0020 hn        1 4KJ      0.520400
     25 H12         8.1890    2.5610   -2.3370 hx        1 4KJ      0.112033
     26 H13         8.1460    4.2950   -1.7450 hx        1 4KJ      0.112033
     27 H14         9.0720    3.8820   -3.2760 hx        1 4KJ      0.112033
     28 H15         8.2090    6.2770   -2.9200 h1        1 4KJ      0.090367
     29 H16         6.4750    6.2880   -2.2820 h1        1 4KJ      0.090367
     30 H17         6.8670    7.0790   -3.9020 h1        1 4KJ      0.090367
     31 HN3         0.9000   -1.3150   -1.9200 hn        1 4KJ      0.456467
     32 HH21        7.0130    3.2340   -4.3270 hn        1 4KJ      0.490800
@<TRIPOS>BOND
     1    1    2 1   
     2    2    3 1   
     3    2    4 1   
     4    4    5 1   
     5    4    6 1   
     6    4   16 1   
     7    5   17 1   
     8    5   18 1   
     9    5   31 1   
    10    6    7 1   
    11    6   19 1   
    12    6   20 1   
    13    7    8 1   
    14    7   21 1   
    15    7   22 1   
    16    8    9 2   
    17    8   23 1   
    18    9   10 1   
    19   10   11 2   
    20   10   12 1   
    21   11   24 1   
    22   12   13 1   
    23   12   14 1   
    24   12   32 1   
    25   13   25 1   
    26   13   26 1   
    27   13   27 1   
    28   14   15 1   
    29   15   28 1   
    30   15   29 1   
    31   15   30 1   
@<TRIPOS>SUBSTRUCTURE
     1 4KJ         1 TEMP              0 ****  ****    0 ROOT
