@<TRIPOS>MOLECULE
4KJ
   32    31     1     0     0
SMALL
bcc


@<TRIPOS>ATOM
      1 OD2         1.9440    1.2610    0.2460 o         1 4KJ     -0.777800
      2 C           2.3370    1.5440   -0.9070 c         1 4KJ      0.949600
      3 OD1         2.9870    2.5460   -1.2870 o         1 4KJ     -0.777800
      4 CA          1.9830    0.4710   -2.0370 c3        1 4KJ     -0.063500
      5 N           0.8650   -0.3850   -1.5310 nz        1 4KJ     -0.831600
      6 CB          1.6570    1.1330   -3.3710 c3        1 4KJ     -0.077400
      7 CG          2.9050    1.4040   -4.1940 c3        1 4KJ     -0.140700
      8 CD          3.6960    2.5360   -3.6060 c2        1 4KJ      0.589200
      9 NE          4.9720    2.4430   -3.4030 ne        1 4KJ     -0.758000
     10 CZ          5.6460    3.4860   -2.6960 ce        1 4KJ      0.736200
     11 NH1         5.4440    4.0720   -1.5730 n2        1 4KJ     -0.761100
     12 NH2         6.9660    3.8580   -3.4180 nx        1 4KJ     -0.440900
     13 C2          8.1440    3.7220   -2.5200 c3        1 4KJ      0.077100
     14 OH          6.8570    5.0790   -4.0240 os        1 4KJ     -0.222100
     15 C1          7.0770    6.2770   -3.2530 c3        1 4KJ      0.085700
     16 H2          2.8900   -0.1920   -2.1360 hx        1 4KJ      0.099700
     17 H3          0.9250   -0.3630   -0.4880 hn        1 4KJ      0.456467
     18 H4         -0.0350    0.0060   -1.8090 hn        1 4KJ      0.456467
     19 H6          0.9830    0.4820   -3.9910 hc        1 4KJ      0.066700
     20 H7          1.1170    2.0990   -3.1740 hc        1 4KJ      0.066700
     21 H8          3.5140    0.4660   -4.2930 hc        1 4KJ      0.082700
     22 H9          2.5950    1.7170   -5.2310 hc        1 4KJ      0.082700
     23 H10         3.0840    3.4350   -3.3550 h4        1 4KJ      0.025800
     24 H11         4.6140    3.8440   -1.0500 hn        1 4KJ      0.520400
     25 H12         9.0720    3.9520   -3.1080 hx        1 4KJ      0.112033
     26 H13         8.1680    2.6660   -2.1400 hx        1 4KJ      0.112033
     27 H14         8.0610    4.4290   -1.6510 hx        1 4KJ      0.112033
     28 H15         8.1450    6.3440   -2.9340 h1        1 4KJ      0.090367
     29 H16         6.8390    7.0590   -4.0260 h1        1 4KJ      0.090367
     30 H17         6.3800    6.3510   -2.3850 h1        1 4KJ      0.090367
     31 HN3         0.9420   -1.3410   -1.8690 hn        1 4KJ      0.456467
     32 HH21        7.0820    3.2000   -4.2210 hn        1 4KJ      0.490800
@<TRIPOS>BOND
     1    1    2 1   
     2    2    3 1   
     3    2    4 1   
     4    4    5 1   
     5    4    6 1   
     6    4   16 1   
     7    5   17 1   
     8    5   18 1   
     9    5   31 1   
    10    6    7 1   
    11    6   19 1   
    12    6   20 1   
    13    7    8 1   
    14    7   21 1   
    15    7   22 1   
    16    8    9 2   
    17    8   23 1   
    18    9   10 1   
    19   10   11 2   
    20   10   12 1   
    21   11   24 1   
    22   12   13 1   
    23   12   14 1   
    24   12   32 1   
    25   13   25 1   
    26   13   26 1   
    27   13   27 1   
    28   14   15 1   
    29   15   28 1   
    30   15   29 1   
    31   15   30 1   
@<TRIPOS>SUBSTRUCTURE
     1 4KJ         1 TEMP              0 ****  ****    0 ROOT
