@<TRIPOS>MOLECULE
4KJ
   30    29     1     0     0
SMALL
bcc


@<TRIPOS>ATOM
      1 OD2        -4.1110   -0.2740    2.1800 o         1 4KJ     -0.840800
      2 C          -4.2780    0.6840    1.3760 c         1 4KJ      0.888600
      3 OD1        -5.0860    1.6390    1.5540 o         1 4KJ     -0.840800
      4 CA         -3.4400    0.6700    0.0530 c3        1 4KJ      0.015500
      5 N          -3.6430    1.8340   -0.8010 n3        1 4KJ     -0.893800
      6 CB         -1.9730    0.4450    0.4220 c3        1 4KJ     -0.065400
      7 CG         -1.1330    0.1010   -0.7910 c3        1 4KJ     -0.148700
      8 CD          0.3000   -0.1050   -0.4040 c2        1 4KJ      0.524200
      9 NE          1.0500   -0.9890   -0.9680 ne        1 4KJ     -0.745000
     10 CZ          2.4240   -1.1650   -0.5950 ce        1 4KJ      0.744200
     11 NH1         3.0020   -2.3190   -0.4450 n2        1 4KJ     -0.828100
     12 NH2         3.2140    0.1050   -0.4840 nh        1 4KJ     -0.420100
     13 C2          4.1840    0.1910   -1.5740 c3        1 4KJ      0.109100
     14 OH          3.7200    0.3000    0.7280 os        1 4KJ     -0.205100
     15 C1          4.8880   -0.4090    1.1810 c3        1 4KJ      0.068700
     16 H2         -3.7960   -0.2250   -0.5360 h1        1 4KJ      0.042700
     17 H3         -4.6360    1.9960   -0.8490 hn        1 4KJ      0.332300
     18 H4         -3.2540    2.6380   -0.3380 hn        1 4KJ      0.332300
     19 H6         -1.5600    1.3560    0.9280 hc        1 4KJ      0.052700
     20 H7         -1.9470   -0.3980    1.1650 hc        1 4KJ      0.052700
     21 H8         -1.5620   -0.8000   -1.3040 hc        1 4KJ      0.070200
     22 H9         -1.1600    0.9480   -1.5310 hc        1 4KJ      0.070200
     23 H10         0.6450    0.5740    0.4110 h4        1 4KJ     -0.007200
     24 H11         2.4090   -3.1180   -0.5150 hn        1 4KJ      0.407400
     25 H12         3.6080    0.1740   -2.5340 h1        1 4KJ      0.050700
     26 H13         4.7240    1.1690   -1.4760 h1        1 4KJ      0.050700
     27 H14         4.9360   -0.6410   -1.5810 h1        1 4KJ      0.050700
     28 H15         4.6940   -1.5020    1.2740 h1        1 4KJ      0.043367
     29 H16         5.7560   -0.2200    0.5050 h1        1 4KJ      0.043367
     30 H17         5.0700    0.0450    2.1870 h1        1 4KJ      0.043367
@<TRIPOS>BOND
     1    1    2 1   
     2    2    3 1   
     3    2    4 1   
     4    4    5 1   
     5    4    6 1   
     6    4   16 1   
     7    5   17 1   
     8    5   18 1   
     9    6    7 1   
    10    6   19 1   
    11    6   20 1   
    12    7    8 1   
    13    7   21 1   
    14    7   22 1   
    15    8    9 2   
    16    8   23 1   
    17    9   10 1   
    18   10   11 2   
    19   10   12 1   
    20   11   24 1   
    21   12   13 1   
    22   12   14 1   
    23   13   25 1   
    24   13   26 1   
    25   13   27 1   
    26   14   15 1   
    27   15   28 1   
    28   15   29 1   
    29   15   30 1   
@<TRIPOS>SUBSTRUCTURE
     1 4KJ         1 TEMP              0 ****  ****    0 ROOT
