@<TRIPOS>MOLECULE
4KJ
   32    31     1     0     0
SMALL
bcc


@<TRIPOS>ATOM
      1 OD2         1.9240    1.3580    0.2710 o         1 4KJ     -0.777800
      2 C           2.3220    1.6080   -0.8870 c         1 4KJ      0.949600
      3 OD1         2.9800    2.5950   -1.2910 o         1 4KJ     -0.777800
      4 CA          1.9630    0.5090   -1.9910 c3        1 4KJ     -0.063500
      5 N           0.8360   -0.3250   -1.4660 n4        1 4KJ     -0.831600
      6 CB          1.6460    1.1390   -3.3420 c3        1 4KJ     -0.077400
      7 CG          2.8980    1.3780   -4.1680 c3        1 4KJ     -0.140700
      8 CD          3.6970    2.5180   -3.6060 c2        1 4KJ      0.589200
      9 NE          4.9720    2.4190   -3.3960 ne        1 4KJ     -0.758000
     10 CZ          5.6530    3.4730   -2.7150 ce        1 4KJ      0.736200
     11 NH1         5.4520    4.0920   -1.6090 n2        1 4KJ     -0.761100
     12 NH2         6.9790    3.8140   -3.4400 n4        1 4KJ     -0.440900
     13 C2          8.1520    3.6910   -2.5330 c3        1 4KJ      0.077100
     14 OH          6.8850    5.0190   -4.0780 os        1 4KJ     -0.222100
     15 C1          7.1130    6.2360   -3.3380 c3        1 4KJ      0.085700
     16 H2          2.8640   -0.1630   -2.0690 hx        1 4KJ      0.099700
     17 H3          0.9060   -1.2900   -1.7790 hn        1 4KJ      0.456467
     18 H4         -0.0600    0.0670   -1.7570 hn        1 4KJ      0.456467
     19 H6          0.9680    0.4770   -3.9470 hc        1 4KJ      0.066700
     20 H7          1.1130    2.1140   -3.1720 hc        1 4KJ      0.066700
     21 H8          2.5950    1.6670   -5.2130 hc        1 4KJ      0.082700
     22 H9          3.5000    0.4330   -4.2420 hc        1 4KJ      0.082700
     23 H10         3.0930    3.4290   -3.3820 h4        1 4KJ      0.025800
     24 H11         4.6170    3.8860   -1.0830 hn        1 4KJ      0.520400
     25 H12         9.0850    3.8960   -3.1230 hx        1 4KJ      0.112033
     26 H13         8.1640    2.6450   -2.1250 hx        1 4KJ      0.112033
     27 H14         8.0720    4.4220   -1.6840 hx        1 4KJ      0.112033
     28 H15         8.1800    6.3000   -3.0160 h1        1 4KJ      0.090367
     29 H16         6.4130    6.3390   -2.4760 h1        1 4KJ      0.090367
     30 H17         6.8860    6.9980   -4.1330 h1        1 4KJ      0.090367
     31 HN3         0.8930   -0.2760   -0.4240 hn        1 4KJ      0.456467
     32 HH21        7.0930    3.1340   -4.2250 hn        1 4KJ      0.490800
@<TRIPOS>BOND
     1    1    2 1   
     2    2    3 1   
     3    2    4 1   
     4    4    5 1   
     5    4    6 1   
     6    4   16 1   
     7    5   17 1   
     8    5   18 1   
     9    5   31 1   
    10    6    7 1   
    11    6   19 1   
    12    6   20 1   
    13    7    8 1   
    14    7   21 1   
    15    7   22 1   
    16    8    9 2   
    17    8   23 1   
    18    9   10 1   
    19   10   11 2   
    20   10   12 1   
    21   11   24 1   
    22   12   13 1   
    23   12   14 1   
    24   12   32 1   
    25   13   25 1   
    26   13   26 1   
    27   13   27 1   
    28   14   15 1   
    29   15   28 1   
    30   15   29 1   
    31   15   30 1   
@<TRIPOS>SUBSTRUCTURE
     1 4KJ         1 TEMP              0 ****  ****    0 ROOT
