@<TRIPOS>MOLECULE
4KJ
   30    25     1     0     0
SMALL
bcc


@<TRIPOS>ATOM
      1 OD2        -3.0220   -1.5870    4.2100 o         1 4KJ     -0.580000
      2 C          -1.8030   -1.6290    3.8680 c1        1 4KJ      0.306000
      3 OD1        -0.9090   -1.2910    4.6840 o         1 4KJ     -0.580000
      4 CA         -1.4350   -1.9910    2.4680 c2        1 4KJ     -0.127000
      5 N          -2.0900   -3.2040    2.1030 n3        1 4KJ     -0.321000
      6 CB         -1.8680   -0.8830    1.5300 c3        1 4KJ     -0.125000
      7 CG         -0.6090   -0.1770    0.9450 c3        1 4KJ     -0.208000
      8 CD         -1.0230    1.1520    0.2940 c2        1 4KJ      0.021000
      9 NE         -0.1820    1.7890   -0.4960 n1        1 4KJ     -0.232000
     10 CZ          1.1060    1.2490   -0.7460 c1        1 4KJ      0.090000
     11 NH1         1.9110    0.9400    0.2750 n1        1 4KJ     -0.295000
     12 NH2         1.5540    1.0310   -2.1160 n2        1 4KJ     -0.044000
     13 C2          2.9060    0.5180   -2.3720 c3        1 4KJ     -0.195000
     14 OH          0.6920    1.2640   -3.1710 os        1 4KJ     -0.192000
     15 C1          1.1510    2.3820   -3.9380 c3        1 4KJ     -0.120000
     16 H2         -0.4750   -2.1110    2.4050 h4        1 4KJ      0.084000
     17 H3         -2.5470   -3.0800    1.3070 hn        1 4KJ      0.127000
     18 H4         -1.4670   -3.8680    1.9980 hn        1 4KJ      0.127000
     19 H6         -2.3970   -1.2620    0.8000 hc        1 4KJ      0.064000
     20 H7         -2.4110   -0.2300    2.0240 hc        1 4KJ      0.064000
     21 H8         -0.1940   -0.7550    0.2700 hc        1 4KJ      0.142000
     22 H9          0.0310   -0.0030    1.6630 hc        1 4KJ      0.142000
     23 H10        -1.9220    1.5300    0.4680 h4        1 4KJ      0.131000
     24 H11         1.6290    1.0780    1.1430 DU        1 4KJ      0.151000
     25 H12         2.9770    0.2360   -3.3050 h1        1 4KJ      0.111333
     26 H13         3.5730    1.2360   -2.1900 h1        1 4KJ      0.111333
     27 H14         3.0840   -0.2540   -1.7810 h1        1 4KJ      0.111333
     28 H15         1.7370    2.0720   -4.6410 h1        1 4KJ      0.078667
     29 H16         0.3670    2.8530   -4.3410 h1        1 4KJ      0.078667
     30 H17         1.6360    2.9970   -3.3580 h1        1 4KJ      0.078667
@<TRIPOS>BOND
     1    1    2 1   
     2    2    3 1   
     3    4    5 1   
     4    4    6 1   
     5    4   16 1   
     6    5   17 1   
     7    5   18 1   
     8    6    7 1   
     9    6   19 1   
    10    6   20 1   
    11    7    8 1   
    12    7   21 1   
    13    7   22 1   
    14    8    9 1   
    15    8   23 1   
    16   10   11 1   
    17   12   13 1   
    18   12   14 1   
    19   13   25 1   
    20   13   26 1   
    21   13   27 1   
    22   14   15 1   
    23   15   28 1   
    24   15   29 1   
    25   15   30 1   
@<TRIPOS>SUBSTRUCTURE
     1 4KJ         1 TEMP              0 ****  ****    0 ROOT
