@<TRIPOS>MOLECULE
4KK
   38    40     1     0     0
SMALL
bcc


@<TRIPOS>ATOM
      1 C1          2.8810   -0.1470   -1.2440 c3        1 4KK      0.112700
      2 C3          3.2920   -0.2820    1.0970 ca        1 4KK      0.131100
      3 C4          2.1560   -1.0740    1.3050 ca        1 4KK     -0.194000
      4 C5          1.8640   -1.5100    2.5970 ca        1 4KK     -0.089000
      5 C6          2.6860   -1.1690    3.6670 ca        1 4KK     -0.150000
      6 C7          3.8240   -0.3790    3.4550 ca        1 4KK     -0.073300
      7 C8          4.1320    0.0690    2.1700 ca        1 4KK     -0.165000
      8 C9          4.6930   -0.0010    4.6010 c3        1 4KK     -0.103100
      9 C10         5.7990   -1.0010    4.8880 c         1 4KK      0.662100
     10 O2          3.6870    0.2160   -0.1290 os        1 4KK     -0.325900
     11 C13         7.4940   -2.4840    3.9310 cc        1 4KK      0.487300
     12 C15         9.0770   -3.9410    3.3260 cd        1 4KK      0.405800
     13 C16         9.2070   -3.9920    4.7150 cc        1 4KK     -0.308400
     14 C18         9.8920   -4.7200    2.3990 ca        1 4KK     -0.074500
     15 O11         6.1270   -1.2880    6.0560 o         1 4KK     -0.591100
     16 N12         6.4670   -1.5490    3.8010 ns        1 4KK     -0.523400
     17 N14         8.0910   -3.0730    2.8680 nd        1 4KK     -0.676000
     18 S17         8.1290   -2.9850    5.4680 ss        1 4KK      0.042700
     19 C19        10.1420   -4.2770    1.0920 ca        1 4KK     -0.226300
     20 C20        10.9480   -5.0710    0.2570 ca        1 4KK      0.386700
     21 N21        11.4970   -6.2400    0.6370 nb        1 4KK     -0.664000
     22 C22        11.2450   -6.6560    1.8930 ca        1 4KK      0.386700
     23 C23        10.4540   -5.9400    2.8070 ca        1 4KK     -0.226300
     24 H1          3.3960    0.3470   -2.1070 h1        1 4KK      0.047367
     25 H2          1.8430    0.2480   -1.1260 h1        1 4KK      0.047367
     26 H3          2.8670   -1.2560   -1.3770 h1        1 4KK      0.047367
     27 H4          1.4980   -1.3520    0.4710 ha        1 4KK      0.142000
     28 H5          0.9720   -2.1320    2.7690 ha        1 4KK      0.139000
     29 H6          2.4440   -1.5180    4.6820 ha        1 4KK      0.141000
     30 H7          5.0110    0.7020    1.9800 ha        1 4KK      0.151000
     31 H8          5.1800    0.9950    4.4130 hc        1 4KK      0.091200
     32 H9          4.0810    0.0890    5.5400 hc        1 4KK      0.091200
     33 H10         9.9330   -4.6080    5.2420 h4        1 4KK      0.183000
     34 H11         6.1390   -1.3440    2.8790 hn        1 4KK      0.349500
     35 H12         9.7210   -3.3330    0.7210 ha        1 4KK      0.151000
     36 H13        11.1660   -4.7520   -0.7780 h4        1 4KK      0.021100
     37 H14        11.7030   -7.6190    2.1810 h4        1 4KK      0.021100
     38 H15        10.2770   -6.3350    3.8160 ha        1 4KK      0.151000
@<TRIPOS>BOND
     1    1   10 1   
     2    1   24 1   
     3    1   25 1   
     4    1   26 1   
     5    2    3 ar  
     6    2    7 ar  
     7    2   10 1   
     8    3    4 ar  
     9    3   27 1   
    10    4    5 ar  
    11    4   28 1   
    12    5    6 ar  
    13    5   29 1   
    14    6    7 ar  
    15    6    8 1   
    16    7   30 1   
    17    8    9 1   
    18    8   31 1   
    19    8   32 1   
    20    9   15 2   
    21    9   16 1   
    22   11   16 1   
    23   11   17 2   
    24   11   18 1   
    25   12   13 2   
    26   12   14 1   
    27   12   17 1   
    28   13   18 1   
    29   13   33 1   
    30   14   19 ar  
    31   14   23 ar  
    32   16   34 1   
    33   19   20 ar  
    34   19   35 1   
    35   20   21 ar  
    36   20   36 1   
    37   21   22 ar  
    38   22   23 ar  
    39   22   37 1   
    40   23   38 1   
@<TRIPOS>SUBSTRUCTURE
     1 4KK         1 TEMP              0 ****  ****    0 ROOT
