@<TRIPOS>MOLECULE
4KK
   38    40     1     0     0
SMALL
bcc


@<TRIPOS>ATOM
      1 C1          2.8120   -0.2400   -1.2340 c3        1 4KK      0.112700
      2 C3          3.2690   -0.3140    1.1020 ca        1 4KK      0.131100
      3 C4          2.1380   -1.0990    1.3530 ca        1 4KK     -0.194000
      4 C5          1.8700   -1.5020    2.6610 ca        1 4KK     -0.089000
      5 C6          2.7130   -1.1330    3.7060 ca        1 4KK     -0.150000
      6 C7          3.8460   -0.3490    3.4510 ca        1 4KK     -0.073300
      7 C8          4.1290    0.0650    2.1490 ca        1 4KK     -0.165000
      8 C9          4.7370    0.0580    4.5700 c3        1 4KK     -0.103100
      9 C10         5.8480   -0.9350    4.8610 c         1 4KK      0.662100
     10 O2          3.6390    0.1530   -0.1440 os        1 4KK     -0.325900
     11 C13         7.5230   -2.4440    3.9110 cc        1 4KK      0.487300
     12 C15         9.0930   -3.9190    3.3130 cd        1 4KK      0.405800
     13 C16         9.2510   -3.9330    4.7000 cc        1 4KK     -0.308400
     14 C18         9.8900   -4.7230    2.3920 ca        1 4KK     -0.074500
     15 O11         6.1980   -1.1910    6.0300 o         1 4KK     -0.591100
     16 N12         6.4950   -1.5120    3.7770 n         1 4KK     -0.523400
     17 N14         8.1000   -3.0610    2.8520 nd        1 4KK     -0.676000
     18 S17         8.1880   -2.9050    5.4480 ss        1 4KK      0.042700
     19 C19        10.1150   -4.3140    1.0690 ca        1 4KK     -0.226300
     20 C20        10.9030   -5.1310    0.2390 ca        1 4KK      0.386700
     21 N21        11.4590   -6.2910    0.6390 nb        1 4KK     -0.664000
     22 C22        11.2320   -6.6730    1.9110 ca        1 4KK      0.386700
     23 C23        10.4590   -5.9320    2.8210 ca        1 4KK     -0.226300
     24 H1          2.7960   -1.3520   -1.3370 h1        1 4KK      0.047367
     25 H2          1.7770    0.1580   -1.1050 h1        1 4KK      0.047367
     26 H3          3.3110    0.2320   -2.1190 h1        1 4KK      0.047367
     27 H4          1.4630   -1.3990    0.5390 ha        1 4KK      0.142000
     28 H5          0.9820   -2.1180    2.8670 ha        1 4KK      0.139000
     29 H6          2.4900   -1.4560    4.7330 ha        1 4KK      0.141000
     30 H7          5.0050    0.6930    1.9250 ha        1 4KK      0.151000
     31 H8          5.2210    1.0480    4.3470 hc        1 4KK      0.091200
     32 H9          4.1430    0.1730    5.5180 hc        1 4KK      0.091200
     33 H10         9.9860   -4.5360    5.2300 h4        1 4KK      0.183000
     34 H11         6.1490   -1.3310    2.8560 hn        1 4KK      0.349500
     35 H12         9.6860   -3.3800    0.6810 ha        1 4KK      0.151000
     36 H13        11.1010   -4.8400   -0.8080 h4        1 4KK      0.021100
     37 H14        11.6950   -7.6280    2.2150 h4        1 4KK      0.021100
     38 H15        10.3020   -6.3000    3.8430 ha        1 4KK      0.151000
@<TRIPOS>BOND
     1    1   10 1   
     2    1   24 1   
     3    1   25 1   
     4    1   26 1   
     5    2    3 ar  
     6    2    7 ar  
     7    2   10 1   
     8    3    4 ar  
     9    3   27 1   
    10    4    5 ar  
    11    4   28 1   
    12    5    6 ar  
    13    5   29 1   
    14    6    7 ar  
    15    6    8 1   
    16    7   30 1   
    17    8    9 1   
    18    8   31 1   
    19    8   32 1   
    20    9   15 2   
    21    9   16 1   
    22   11   16 1   
    23   11   17 2   
    24   11   18 1   
    25   12   13 2   
    26   12   14 1   
    27   12   17 1   
    28   13   18 1   
    29   13   33 1   
    30   14   19 ar  
    31   14   23 ar  
    32   16   34 1   
    33   19   20 ar  
    34   19   35 1   
    35   20   21 ar  
    36   20   36 1   
    37   21   22 ar  
    38   22   23 ar  
    39   22   37 1   
    40   23   38 1   
@<TRIPOS>SUBSTRUCTURE
     1 4KK         1 TEMP              0 ****  ****    0 ROOT
