@<TRIPOS>MOLECULE
4KL
   21    22     1     0     0
SMALL
bcc


@<TRIPOS>ATOM
      1 OAL         0.0790    0.6150   -0.0950 oh        1 4KL     -0.514100
      2 CAJ         1.4290    0.3350   -0.0380 ca        1 4KL      0.126100
      3 CAI         2.1350    0.2530    1.1410 ca        1 4KL     -0.301300
      4 CAH         3.5390   -0.0440    1.0900 ca        1 4KL      0.432800
      5 CAM         4.2670   -0.1210    2.4600 c         1 4KL      0.826100
      6 OAN         4.7400    0.9550    2.9010 o         1 4KL     -0.800300
      7 OAO         4.2710   -1.2410    3.0270 o         1 4KL     -0.800300
      8 NAG         4.1910   -0.2440   -0.0460 nb        1 4KL     -0.703000
      9 CAD         3.4860   -0.1620   -1.2310 ca        1 4KL      0.367600
     10 CAE         2.0910    0.1270   -1.2930 ca        1 4KL     -0.147300
     11 CAF         1.4200    0.1990   -2.5370 ca        1 4KL     -0.125000
     12 CAA         2.1060   -0.0100   -3.7080 ca        1 4KL     -0.135000
     13 CAB         3.4860   -0.2980   -3.6910 ca        1 4KL     -0.185000
     14 CAC         4.1650   -0.3740   -2.4870 ca        1 4KL      0.079800
     15 OAK         5.5080   -0.6590   -2.5610 oh        1 4KL     -0.519100
     16 H1         -0.2280    0.7290    0.8160 ho        1 4KL      0.414000
     17 H2          1.6670    0.4050    2.1230 ha        1 4KL      0.149000
     18 H4          0.3430    0.4240   -2.5360 ha        1 4KL      0.134000
     19 H5          1.5890    0.0450   -4.6770 ha        1 4KL      0.115000
     20 H6          4.0270   -0.4640   -4.6320 ha        1 4KL      0.132000
     21 H7          5.8710   -0.6850   -1.6610 ho        1 4KL      0.453000
@<TRIPOS>BOND
     1    1    2 1   
     2    1   16 1   
     3    2    3 ar  
     4    2   10 ar  
     5    3    4 ar  
     6    3   17 1   
     7    4    5 1   
     8    4    8 ar  
     9    5    6 1   
    10    5    7 1   
    11    8    9 ar  
    12    9   10 ar  
    13    9   14 ar  
    14   10   11 ar  
    15   11   12 ar  
    16   11   18 1   
    17   12   13 ar  
    18   12   19 1   
    19   13   14 ar  
    20   13   20 1   
    21   14   15 1   
    22   15   21 1   
@<TRIPOS>SUBSTRUCTURE
     1 4KL         1 TEMP              0 ****  ****    0 ROOT
