@<TRIPOS>MOLECULE
4KM
   54    65     1     0     0
SMALL
bcc


@<TRIPOS>ATOM
      1 C2          0.0000    0.0000    0.0000 c2        1 4KM     -0.152000
      2 C3          1.3830    0.0000    0.0000 c2        1 4KM      0.278000
      3 C18         7.5270   -0.0160    1.3270 c2        1 4KM     -0.300500
      4 C20         7.3650   -0.7540    3.6100 c2        1 4KM     -0.300500
      5 C17         6.1490   -0.0050    1.2340 c3        1 4KM     -0.403500
      6 C21         5.9870   -0.7320    3.5180 c3        1 4KM     -0.403500
      7 C6         -0.0180   -0.0040    2.3940 c2        1 4KM      0.181000
      8 C5          1.3780    0.0000    2.4020 c2        1 4KM      0.176000
      9 C1         -0.6990   -0.0000    1.1940 c2        1 4KM     -0.281000
     10 C4          2.0760    0.0000    1.1930 c3        1 4KM     -0.368000
     11 C19         8.1390   -0.3900    2.5150 c2        1 4KM      0.019000
     12 C16         5.3770   -0.3630    2.3280 c3        1 4KM     -0.814000
     13 C7          2.1130   -0.0040    3.6830 c2        1 4KM      0.496000
     14 C24        10.1940   -1.5740    2.7280 DU        1 4KM      0.744000
     15 C26        11.6870   -1.5810    2.9330 c3        1 4KM      0.433000
     16 C23        10.2830    0.8580    2.5830 c3        1 4KM     -0.057000
     17 C14         3.5830    0.0040    1.1910 c3        1 4KM      0.160000
     18 C27        -2.2060    0.0060    1.1850 c3        1 4KM      0.447000
     19 C10         2.2240   -0.0170    6.0680 DU        1 4KM      0.513000
     20 O8          3.3270   -0.0010    3.6870 o         1 4KM     -0.378000
     21 O25         9.5840   -2.6200    2.6680 o         1 4KM     -0.496000
     22 O15         4.0580    0.0030   -0.1570 oh        1 4KM     -0.207000
     23 O9          1.4360   -0.0120    4.8480 os        1 4KM     -0.264000
     24 F28        -2.6720    1.1490    1.8430 f         1 4KM     -0.120667
     25 F29        -2.6630    0.0100   -0.1370 f         1 4KM     -0.120667
     26 F30        -2.6810   -1.1360    1.8380 f         1 4KM     -0.120667
     27 H1          1.0670   -0.1580   -0.1020 ha        1 4KM     -0.108000
     28 H2          1.4630    0.1930    1.0630 DU        1 4KM      0.287000
     29 H3          6.8180    0.2290    0.5460 DU        1 4KM      0.342000
     30 H4          6.7370   -0.3670    2.8160 DU        1 4KM      0.342000
     31 H5          5.1170   -0.1120    1.5480 DU        1 4KM      0.351000
     32 H6          4.9100   -0.7050    3.4110 DU        1 4KM      0.351000
     33 H7          1.0500   -0.0070    2.2120 ha        1 4KM     -0.276000
     34 H8         10.6960   -1.4430    3.3490 DU        1 4KM     -0.212667
     35 H9         10.7320   -1.2850    2.5160 DU        1 4KM     -0.212667
     36 H10        10.6350   -1.4870    3.1740 DU        1 4KM     -0.212667
     37 H11         0.8260   -0.0210    6.2980 hc        1 4KM     -0.224000
     38 H12         2.0930   -0.0140    6.5540 DU        1 4KM     -0.588000
     39 H13         2.0860    0.1190    6.5610 hc        1 4KM     -0.224000
     40 H14         3.9670    1.2160    5.4590 hc        1 4KM      0.100667
     41 H15         2.7450    1.2530    7.1350 hc        1 4KM      0.100667
     42 H16         2.3140    1.9630    6.2620 hc        1 4KM      0.100667
     43 H17         2.4190   -0.4960    6.4250 DU        1 4KM      0.334000
     44 H18         3.4890   -0.3380    5.6830 hc        1 4KM      0.159500
     45 H19         3.7900   -0.9840    5.3030 hc        1 4KM      0.159500
     46 H20         9.5410    0.9610    1.8000 h1        1 4KM      0.061667
     47 H21         9.3560    0.9690    2.0330 h1        1 4KM      0.061667
     48 H22         9.3820    0.8940    1.9830 h1        1 4KM      0.061667
     49 H23         3.4040   -0.1960    2.2410 h1        1 4KM      0.360000
     50 H24         4.6420   -0.1060    0.9890 DU        1 4KM      0.475000
     51 N22         9.5360   -0.4020    2.6100 n3        1 4KM     -0.159000
     52 C11         1.2880   -0.0260    7.2790 c3        1 4KM      0.676000
     53 C12         3.1020    1.2350    6.1120 c3        1 4KM     -0.231000
     54 C13         3.1100   -1.2640    6.0990 c3        1 4KM     -0.535000
@<TRIPOS>BOND
     1    1    2 1   
     2    1    9 1   
     3    1   27 1   
     4    2   10 1   
     5    2   28 1   
     6    3    5 1   
     7    3   11 1   
     8    3   29 1   
     9    4    6 1   
    10    4   11 1   
    11    4   30 1   
    12    5   12 1   
    13    5   29 1   
    14    5   31 1   
    15    6   12 1   
    16    6   30 1   
    17    6   32 1   
    18    7    8 1   
    19    7    9 1   
    20    7   33 1   
    21    8   10 1   
    22    8   13 1   
    23    9   18 1   
    24   10   17 1   
    25   10   28 1   
    26   11   51 1   
    27   12   31 1   
    28   12   32 1   
    29   13   20 1   
    30   13   23 1   
    31   14   15 1   
    32   14   21 1   
    33   14   34 1   
    34   14   35 1   
    35   14   36 1   
    36   14   51 1   
    37   15   34 1   
    38   15   35 1   
    39   15   36 1   
    40   16   46 1   
    41   16   47 1   
    42   16   48 1   
    43   16   51 1   
    44   17   22 1   
    45   17   49 1   
    46   17   50 1   
    47   18   24 1   
    48   18   25 1   
    49   18   26 1   
    50   19   23 1   
    51   19   43 1   
    52   19   52 1   
    53   19   53 1   
    54   19   54 1   
    55   22   50 1   
    56   37   52 1   
    57   38   43 1   
    58   38   52 1   
    59   39   52 1   
    60   40   53 1   
    61   41   53 1   
    62   42   53 1   
    63   43   54 1   
    64   44   54 1   
    65   45   54 1   
@<TRIPOS>SUBSTRUCTURE
     1 4KM         1 TEMP              0 ****  ****    0 ROOT
