@<TRIPOS>MOLECULE
4KN
   31    32     1     0     0
SMALL
bcc


@<TRIPOS>ATOM
      1 CAO         0.3590   -0.8400    0.7070 ca        1 4KN     -0.156000
      2 CAQ         1.4660   -0.1400    0.2530 ca        1 4KN     -0.133000
      3 CAS         1.5650    1.2460    0.4920 ca        1 4KN      0.087900
      4 FAT         2.6480    1.9290    0.0460 f         1 4KN     -0.143900
      5 CAR         0.5490    1.9200    1.1880 ca        1 4KN     -0.133000
      6 CAP        -0.5630    1.2170    1.6450 ca        1 4KN     -0.156000
      7 CAN        -0.6570   -0.1580    1.4050 ca        1 4KN      0.113100
      8 OAM        -1.7030   -0.9630    1.8170 os        1 4KN     -0.305900
      9 CAL        -2.7830   -0.2830    2.4630 c3        1 4KN      0.036400
     10 CAJ        -3.8510   -1.3110    2.7450 c         1 4KN      0.590700
     11 OAK        -3.8240   -2.4430    2.2520 o         1 4KN     -0.508100
     12 CAC        -4.9400   -0.8970    3.6570 ca        1 4KN     -0.213600
     13 CAB        -5.7530   -1.9130    4.1900 ca        1 4KN     -0.037000
     14 CAA        -6.8000   -1.6360    5.0560 ca        1 4KN     -0.220000
     15 CAF        -7.0660   -0.3060    5.4090 ca        1 4KN      0.114100
     16 OAI        -8.0830    0.0680    6.2570 oh        1 4KN     -0.509100
     17 CAE        -6.2790    0.7330    4.8890 ca        1 4KN      0.002100
     18 OAH        -6.4760    2.0660    5.1890 oh        1 4KN     -0.515100
     19 CAD        -5.2120    0.4370    4.0110 ca        1 4KN      0.180100
     20 OAG        -4.4350    1.4420    3.4950 oh        1 4KN     -0.503100
     21 H1          0.2590   -1.9220    0.5320 ha        1 4KN      0.151500
     22 H2          2.2690   -0.6560   -0.2930 ha        1 4KN      0.149500
     23 H3          0.6360    3.0010    1.3680 ha        1 4KN      0.149500
     24 H4         -1.3520    1.7550    2.1900 ha        1 4KN      0.151500
     25 H5         -3.2010    0.5140    1.7900 h1        1 4KN      0.076700
     26 H6         -2.4240    0.1770    3.4230 h1        1 4KN      0.076700
     27 H7         -5.5410   -2.9570    3.8980 ha        1 4KN      0.167000
     28 H8         -7.4200   -2.4480    5.4630 ha        1 4KN      0.146000
     29 H9         -8.5550   -0.7330    6.5300 ho        1 4KN      0.439000
     30 H10        -7.2650    2.1290    5.7490 ho        1 4KN      0.451000
     31 H11        -4.7860    2.2950    3.8010 ho        1 4KN      0.451000
@<TRIPOS>BOND
     1    1    2 ar  
     2    1    7 ar  
     3    1   21 1   
     4    2    3 ar  
     5    2   22 1   
     6    3    4 1   
     7    3    5 ar  
     8    5    6 ar  
     9    5   23 1   
    10    6    7 ar  
    11    6   24 1   
    12    7    8 1   
    13    8    9 1   
    14    9   10 1   
    15    9   25 1   
    16    9   26 1   
    17   10   11 2   
    18   10   12 1   
    19   12   13 ar  
    20   12   19 ar  
    21   13   14 ar  
    22   13   27 1   
    23   14   15 ar  
    24   14   28 1   
    25   15   16 1   
    26   15   17 ar  
    27   16   29 1   
    28   17   18 1   
    29   17   19 ar  
    30   18   30 1   
    31   19   20 1   
    32   20   31 1   
@<TRIPOS>SUBSTRUCTURE
     1 4KN         1 TEMP              0 ****  ****    0 ROOT
