@<TRIPOS>MOLECULE
4KO
   47    45     1     0     0
SMALL
bcc


@<TRIPOS>ATOM
      1 C1          0.2130   -0.1300   -0.9370 c1        1 4KO      0.020000
      2 N1          1.4020    0.3550   -0.6060 na        1 4KO     -0.148000
      3 O1          4.5120   -2.8710    7.3430 o         1 4KO     -0.186000
      4 S1          1.3440   -0.1020    2.1110 ss        1 4KO      0.393000
      5 C2          2.0630    0.4350    0.7120 c2        1 4KO     -0.271000
      6 N2          3.2660    1.0060    0.4950 n2        1 4KO     -0.129000
      7 O2          6.5240   -0.5600    7.2270 o         1 4KO     -0.361000
      8 S2          9.2250   -0.2640    8.3440 s4        1 4KO      1.369000
      9 C3          2.5940    0.1610    3.3480 c3        1 4KO     -0.272000
     10 N3          3.3460    1.2600   -0.8410 n2        1 4KO     -0.004000
     11 O3          3.1290   -1.0470    9.6720 os        1 4KO     -0.047000
     12 S3          3.8950    1.8160    7.1310 sh        1 4KO      0.065000
     13 C4          1.9900   -0.1910    4.6580 c2        1 4KO     -0.123000
     14 N4          2.3300    0.9140   -1.4880 n2        1 4KO      0.056000
     15 O4          4.0450   -2.8710    3.6320 o         1 4KO     -0.239500
     16 C5          2.8110   -1.1040    5.4440 c1        1 4KO     -0.048000
     17 N5          3.3170   -0.8630    6.6180 n         1 4KO     -0.159000
     18 O5          2.4330   -3.8840    5.0610 o         1 4KO     -0.239500
     19 C6          3.2710    0.2540    7.5970 cy        1 4KO     -0.176000
     20 C7          4.0820   -0.6630    8.6030 cy        1 4KO      0.017000
     21 N7         11.8660    2.3010    7.7430 n1        1 4KO     -0.082000
     22 C8          4.0900   -1.7430    7.4710 cv        1 4KO      0.337000
     23 C10         7.7340    0.2810    9.1350 c3        1 4KO     -0.644000
     24 C11        10.4110    0.5410    8.9010 c2        1 4KO     -0.887000
     25 C12        11.1950    1.5010    8.2630 c1        1 4KO     -0.055000
     26 C14         0.7600    0.1890    5.0320 c2        1 4KO     -0.195000
     27 C15         3.2310   -3.3120    4.3840 c1        1 4KO      0.455000
     28 H1         -0.7120   -1.2740    2.2910 ha        1 4KO      0.008750
     29 H1A        -0.3670   -0.5340   -0.0750 ha        1 4KO      0.053000
     30 H1B        -0.8990   -0.6770    2.5640 ha        1 4KO      0.008750
     31 H3          3.4890   -0.4810    3.1320 h1        1 4KO      0.152500
     32 H3A         2.9300    1.2290    3.3500 h1        1 4KO      0.152500
     33 H6          2.2290    0.4450    7.9700 h2        1 4KO      0.173000
     34 HN6         5.0700    1.4770    6.6120 hs        1 4KO      0.051000
     35 H10         7.6870    1.3970    9.2070 h1        1 4KO      0.150500
     36 H10A        7.7710   -0.1090   10.1850 h1        1 4KO      0.150500
     37 H11         9.0440    0.2450    7.1590 hs        1 4KO     -0.122000
     38 H11A       10.7320    0.3510    9.9430 h4        1 4KO      0.194000
     39 H13         3.8280   -0.2550   12.3660 ha        1 4KO      0.008750
     40 H13A        4.3380   -2.3700   10.7620 ha        1 4KO      0.077000
     41 H13B        4.4380   -0.2260   12.0690 ha        1 4KO      0.008750
     42 H14         0.0910    0.7530    4.3660 ha        1 4KO      0.131000
     43 H14A        0.3390   -0.0690    6.0130 ha        1 4KO      0.131000
     44 N6          5.3220   -0.2460    9.1510 ns        1 4KO     -0.374000
     45 C9          6.5070   -0.2010    8.4210 c2        1 4KO      0.341000
     46 H62         5.2770    0.2370   10.0220 hn        1 4KO      0.249000
     47 C13         3.3750   -1.8470   10.6160 c1        1 4KO      0.004000
@<TRIPOS>BOND
     1    1    2 1   
     2    1   29 1   
     3    2    5 1   
     4    2   14 1   
     5    3   22 1   
     6    4    5 1   
     7    4    9 1   
     8    5    6 1   
     9    6   10 1   
    10    7   45 1   
    11    8   23 1   
    12    8   24 1   
    13    8   37 1   
    14    9   13 1   
    15    9   31 1   
    16    9   32 1   
    17   10   14 1   
    18   11   20 1   
    19   11   47 1   
    20   12   19 1   
    21   12   34 1   
    22   13   16 1   
    23   13   26 1   
    24   15   27 1   
    25   16   17 1   
    26   17   19 1   
    27   17   22 1   
    28   18   27 1   
    29   19   20 1   
    30   19   33 1   
    31   20   22 1   
    32   20   44 1   
    33   21   25 1   
    34   23   35 1   
    35   23   36 1   
    36   23   45 1   
    37   24   25 1   
    38   24   38 1   
    39   26   42 1   
    40   26   43 1   
    41   28   30 1   
    42   39   41 1   
    43   40   47 1   
    44   44   45 1   
    45   44   46 1   
@<TRIPOS>SUBSTRUCTURE
     1 4KO         1 TEMP              0 ****  ****    0 ROOT
