@<TRIPOS>MOLECULE
4KO
   47    45     1     0     0
SMALL
bcc


@<TRIPOS>ATOM
      1 C1          0.5680    0.1400   -0.9150 c1        1 4KO      0.019000
      2 N1          1.8550    0.1410   -0.5990 na        1 4KO     -0.148000
      3 O1          3.8670   -3.0710    7.7870 o         1 4KO     -0.176000
      4 S1          1.6540   -0.0210    2.1440 ss        1 4KO      0.396000
      5 C2          2.5100    0.0650    0.7230 c2        1 4KO     -0.270000
      6 N2          3.8390    0.0930    0.4850 n2        1 4KO     -0.130000
      7 O2          6.5060   -2.1140    7.0910 o         1 4KO     -0.315000
      8 S2          8.9420    0.5340    8.1140 s4        1 4KO      1.371000
      9 C3          2.9200   -0.1760    3.3820 c3        1 4KO     -0.275000
     10 N3          3.9950    0.1790   -0.8650 n2        1 4KO     -0.005000
     11 O3          3.7450   -0.4950    9.7550 os        1 4KO     -0.051000
     12 S3          5.0880    1.2770    6.5330 sh        1 4KO      0.028000
     13 C4          2.2550   -0.1200    4.7080 c2        1 4KO     -0.112000
     14 N4          2.9180    0.2100   -1.5030 n2        1 4KO      0.054000
     15 O4          2.9980   -3.4730    4.1040 o         1 4KO     -0.239500
     16 C5          2.7480   -1.1310    5.6370 c1        1 4KO     -0.049000
     17 N5          3.4360   -0.9150    6.7160 n         1 4KO     -0.145000
     18 O5          1.3250   -3.5800    5.7920 o         1 4KO     -0.239500
     19 C6          3.9470    0.2800    7.4340 cy        1 4KO     -0.178000
     20 C7          4.5510   -0.6970    8.5270 cy        1 4KO      0.023000
     21 N7          6.7810    3.4660    8.9150 n1        1 4KO     -0.102000
     22 C8          3.9550   -1.8690    7.6830 cv        1 4KO      0.348000
     23 C10         8.3220   -1.0960    8.2910 c3        1 4KO     -0.640000
     24 C11         8.3090    1.4350    9.1980 c2        1 4KO     -0.925000
     25 C12         7.4780    2.5390    9.0360 c1        1 4KO     -0.044000
     26 C14         1.2230    0.6850    4.9920 c2        1 4KO     -0.216000
     27 C15         2.1840   -3.4570    4.9760 c1        1 4KO      0.456000
     28 H1         -0.6470    0.3790    2.5240 ha        1 4KO      0.008500
     29 H1A        -0.1150    0.0720   -0.0360 ha        1 4KO      0.054000
     30 H1B        -0.6970   -0.2810    2.3590 ha        1 4KO      0.008500
     31 H3          3.4660   -1.1490    3.2500 h1        1 4KO      0.154500
     32 H3A         3.6700    0.6510    3.2910 h1        1 4KO      0.154500
     33 H6          3.1120    0.8930    7.8580 h2        1 4KO      0.157000
     34 HN6         4.6470    2.4730    6.9120 hs        1 4KO      0.068000
     35 H10         8.5430   -1.4420    9.3340 h1        1 4KO      0.163500
     36 H10A        8.9160   -1.7510    7.5970 h1        1 4KO      0.163500
     37 H11         8.3380    0.9050    7.0230 hs        1 4KO     -0.133000
     38 H11A        8.5720    1.2430   10.2550 h4        1 4KO      0.196000
     39 H13         5.1520    0.6550   12.0040 ha        1 4KO      0.008500
     40 H13A        4.7280   -1.8220   11.0500 ha        1 4KO      0.078000
     41 H13B        5.6730    0.4020   11.6500 ha        1 4KO      0.008500
     42 H14         0.7550    0.7120    5.9850 ha        1 4KO      0.130500
     43 H14A        0.7630    1.3400    4.2380 ha        1 4KO      0.130500
     44 N6          5.9410   -0.6970    8.8140 n         1 4KO     -0.371000
     45 C9          6.8710   -1.3430    7.9930 c2        1 4KO      0.329000
     46 H62         6.2590    0.0710    9.3720 hn        1 4KO      0.252000
     47 C13         3.9340   -1.0780   10.8580 c1        1 4KO      0.004000
@<TRIPOS>BOND
     1    1    2 1   
     2    1   29 1   
     3    2    5 1   
     4    2   14 1   
     5    3   22 1   
     6    4    5 1   
     7    4    9 1   
     8    5    6 1   
     9    6   10 1   
    10    7   45 1   
    11    8   23 1   
    12    8   24 1   
    13    8   37 1   
    14    9   13 1   
    15    9   31 1   
    16    9   32 1   
    17   10   14 1   
    18   11   20 1   
    19   11   47 1   
    20   12   19 1   
    21   12   34 1   
    22   13   16 1   
    23   13   26 1   
    24   15   27 1   
    25   16   17 1   
    26   17   19 1   
    27   17   22 1   
    28   18   27 1   
    29   19   20 1   
    30   19   33 1   
    31   20   22 1   
    32   20   44 1   
    33   21   25 1   
    34   23   35 1   
    35   23   36 1   
    36   23   45 1   
    37   24   25 1   
    38   24   38 1   
    39   26   42 1   
    40   26   43 1   
    41   28   30 1   
    42   39   41 1   
    43   40   47 1   
    44   44   45 1   
    45   44   46 1   
@<TRIPOS>SUBSTRUCTURE
     1 4KO         1 TEMP              0 ****  ****    0 ROOT
