@<TRIPOS>MOLECULE
4KO
   46    48     1     0     0
SMALL
bcc


@<TRIPOS>ATOM
      1 C1          6.6750    1.0950    1.1960 c3        1 4KO      0.031600
      2 N1          6.2480   -0.2760    1.1210 na        1 4KO     -0.074400
      3 O1         -1.7180    2.4910   -2.3590 o         1 4KO     -0.502500
      4 S1          3.6120    0.3170    0.7640 ss        1 4KO     -0.213400
      5 C2          4.9150   -0.7160    0.9220 cc        1 4KO      0.458800
      6 N2          5.0000   -2.0890    0.9210 nd        1 4KO     -0.416000
      7 O2         -5.2890    0.9990    1.1040 o         1 4KO     -0.582100
      8 S2         -4.3250   -2.2070   -1.0070 ss        1 4KO     -0.238200
      9 C3          2.3180   -0.6370   -0.0300 c3        1 4KO      0.076900
     10 N3          6.2780   -2.4000    1.1100 nd        1 4KO     -0.056000
     11 O3         -3.3600    2.9170    0.3980 os        1 4KO     -0.379600
     12 S3         -1.3330   -0.1400    1.5910 ss        1 4KO     -0.365200
     13 C4          1.0790    0.0910    0.2940 c2        1 4KO     -0.283400
     14 N4          7.0310   -1.3740    1.2400 nc        1 4KO     -0.222800
     15 O4          1.1130    0.3570   -2.8210 o         1 4KO     -0.774800
     16 C5          0.5580    0.9990   -0.5890 ce        1 4KO      0.029400
     17 N5         -0.6010    1.7170   -0.3190 n         1 4KO     -0.323000
     18 O5          1.9100    2.3270   -2.0640 o         1 4KO     -0.774800
     19 C6         -1.4810    1.4560    0.8280 cy        1 4KO      0.117800
     20 C7         -2.7390    1.7570   -0.1010 cy        1 4KO      0.224200
     21 N7         -3.8580   -4.5330    1.7800 n1        1 4KO     -0.378800
     22 C8         -1.6440    2.0520   -1.2270 c         1 4KO      0.690500
     23 C10        -5.2740   -1.1130   -0.0110 c3        1 4KO     -0.121300
     24 C11        -3.0280   -2.7920    0.0380 c3        1 4KO     -0.001200
     25 C12        -3.4870   -3.7530    1.0010 c1        1 4KO      0.221700
     26 C14         0.4520   -0.2590    1.5870 c3        1 4KO      0.085900
     27 C15         1.2610    1.2640   -1.9680 c         1 4KO      0.926800
     28 H1          6.7500    1.4150    2.2700 h1        1 4KO      0.066033
     29 H1A         7.6760    1.2150    0.7050 h1        1 4KO      0.066033
     30 H1B         5.9130    1.7320    0.6660 h1        1 4KO      0.066033
     31 H3          2.5070   -0.6630   -1.1360 h1        1 4KO      0.100700
     32 H3A         2.3020   -1.6840    0.3550 h1        1 4KO      0.100700
     33 H6         -1.3610    2.2460    1.6110 h2        1 4KO      0.116700
     34 HN6        -3.2020   -0.0000   -1.0750 hn        1 4KO      0.342500
     35 H10        -6.2320   -0.9720   -0.5780 h1        1 4KO      0.108700
     36 H10A       -5.5240   -1.5770    0.9770 h1        1 4KO      0.108700
     37 H11        -2.2880   -3.2680   -0.6630 h1        1 4KO      0.134700
     38 H11A       -2.4930   -1.9390    0.5610 h1        1 4KO      0.134700
     39 H13        -3.9110    3.5840   -1.5150 h1        1 4KO      0.046367
     40 H13A       -5.2640    2.9230   -0.4550 h1        1 4KO      0.046367
     41 H13B       -4.4750    4.5290   -0.0370 h1        1 4KO      0.046367
     42 H14         0.8420    0.4000    2.4030 h1        1 4KO      0.072700
     43 H14A        0.6580   -1.3230    1.8650 h1        1 4KO      0.072700
     44 N6         -3.6000    0.6660   -0.4420 n         1 4KO     -0.566900
     45 C9         -4.7100    0.2670    0.2800 c         1 4KO      0.665100
     46 C13        -4.3140    3.5120   -0.4760 c3        1 4KO      0.113700
@<TRIPOS>BOND
     1    1    2 1   
     2    1   28 1   
     3    1   29 1   
     4    1   30 1   
     5    2    5 1   
     6    2   14 1   
     7    3   22 2   
     8    4    5 1   
     9    4    9 1   
    10    5    6 2   
    11    6   10 1   
    12    7   45 2   
    13    8   23 1   
    14    8   24 1   
    15    9   13 1   
    16    9   31 1   
    17    9   32 1   
    18   10   14 2   
    19   11   20 1   
    20   11   46 1   
    21   12   19 1   
    22   12   26 1   
    23   13   16 2   
    24   13   26 1   
    25   15   27 1   
    26   16   17 1   
    27   16   27 1   
    28   17   19 1   
    29   17   22 1   
    30   18   27 1   
    31   19   20 1   
    32   19   33 1   
    33   20   22 1   
    34   20   44 1   
    35   21   25 3   
    36   23   35 1   
    37   23   36 1   
    38   23   45 1   
    39   24   25 1   
    40   24   37 1   
    41   24   38 1   
    42   26   42 1   
    43   26   43 1   
    44   34   44 1   
    45   39   46 1   
    46   40   46 1   
    47   41   46 1   
    48   44   45 1   
@<TRIPOS>SUBSTRUCTURE
     1 4KO         1 TEMP              0 ****  ****    0 ROOT
