@<TRIPOS>MOLECULE
4KO
   47    45     1     0     0
SMALL
bcc


@<TRIPOS>ATOM
      1 C1          0.7150    0.5950   -0.8330 c1        1 4KO      0.021000
      2 N1          1.9470    0.8420   -0.4140 na        1 4KO     -0.148000
      3 O1          4.2550   -3.3230    7.4400 o         1 4KO     -0.172000
      4 S1          1.6750    0.1630    2.2430 ss        1 4KO      0.397000
      5 C2          2.5430    0.6920    0.9280 c2        1 4KO     -0.271000
      6 N2          3.8340    1.0700    0.8100 n2        1 4KO     -0.130000
      7 O2          6.6480   -1.8950    7.2150 o         1 4KO     -0.335000
      8 S2          9.0260    0.3710    7.5560 s4        1 4KO      1.349000
      9 C3          2.8900    0.0910    3.5380 c3        1 4KO     -0.275000
     10 N3          4.0230    1.4240   -0.4910 n2        1 4KO     -0.005000
     11 O3          3.5300   -1.2660    9.8260 os        1 4KO     -0.052000
     12 S3          4.4920    1.3770    7.1820 sh        1 4KO      0.057000
     13 C4          2.1790   -0.2430    4.7970 c2        1 4KO     -0.115000
     14 N4          2.9990    1.3130   -1.2040 n2        1 4KO      0.056000
     15 O4          3.7510   -3.1600    3.6880 o         1 4KO     -0.239500
     16 C5          2.8440   -1.2830    5.5720 c1        1 4KO     -0.054000
     17 N5          3.4020   -1.1410    6.7340 n         1 4KO     -0.151000
     18 O5          2.0300   -3.9660    5.1190 o         1 4KO     -0.239500
     19 C6          3.5830   -0.0310    7.7070 cy        1 4KO     -0.189000
     20 C7          4.3810   -1.0390    8.6320 cy        1 4KO      0.031000
     21 N7          8.5580    3.0940    9.9550 n1        1 4KO     -0.093000
     22 C8          4.0870   -2.1300    7.5520 cv        1 4KO      0.351000
     23 C10         8.1810   -0.7250    8.6420 c3        1 4KO     -0.628000
     24 C11         8.5520    1.8290    7.7280 c2        1 4KO     -0.874000
     25 C12         8.5590    2.5090    8.9470 c1        1 4KO     -0.049000
     26 C14         0.9800    0.2570    5.1300 c2        1 4KO     -0.220000
     27 C15         2.8940   -3.4990    4.4460 c1        1 4KO      0.456000
     28 H1         -0.6620   -0.0520    2.5070 ha        1 4KO      0.008750
     29 H1A         0.0310    0.2180   -0.0370 ha        1 4KO      0.054000
     30 H1B        -0.5490   -0.6620    2.2230 ha        1 4KO      0.008750
     31 H3          3.6600   -0.6910    3.2960 h1        1 4KO      0.153500
     32 H3A         3.4210    1.0710    3.6410 h1        1 4KO      0.153500
     33 H6          2.6060    0.2570    8.1700 h2        1 4KO      0.157000
     34 HN6         3.4950    2.2480    7.1120 hs        1 4KO      0.049000
     35 H10         8.1800   -0.2710    9.6660 h1        1 4KO      0.157000
     36 H10A        8.8170   -1.6510    8.6930 h1        1 4KO      0.157000
     37 H11         8.5270    0.0490    6.3970 hs        1 4KO     -0.146000
     38 H11A        8.1900    2.4540    6.8930 h4        1 4KO      0.195000
     39 H13         4.5630   -0.1440   12.2900 ha        1 4KO      0.008750
     40 H13A        5.1060   -0.1540   11.8820 ha        1 4KO      0.008750
     41 H13B        4.8160   -2.4670   10.9710 ha        1 4KO      0.080000
     42 H14         0.4760   -0.0030    6.0700 ha        1 4KO      0.130500
     43 H14A        0.4150    0.9230    4.4620 ha        1 4KO      0.130500
     44 N6          5.7280   -0.7710    8.9920 n         1 4KO     -0.367000
     45 C9          6.8160   -1.1670    8.2110 c2        1 4KO      0.332000
     46 H62         5.8530   -0.0130    9.6300 hn        1 4KO      0.250000
     47 C13         3.8520   -1.9440   10.8390 c1        1 4KO      0.004000
@<TRIPOS>BOND
     1    1    2 1   
     2    1   29 1   
     3    2    5 1   
     4    2   14 1   
     5    3   22 1   
     6    4    5 1   
     7    4    9 1   
     8    5    6 1   
     9    6   10 1   
    10    7   45 1   
    11    8   23 1   
    12    8   24 1   
    13    8   37 1   
    14    9   13 1   
    15    9   31 1   
    16    9   32 1   
    17   10   14 1   
    18   11   20 1   
    19   11   47 1   
    20   12   19 1   
    21   12   34 1   
    22   13   16 1   
    23   13   26 1   
    24   15   27 1   
    25   16   17 1   
    26   17   19 1   
    27   17   22 1   
    28   18   27 1   
    29   19   20 1   
    30   19   33 1   
    31   20   22 1   
    32   20   44 1   
    33   21   25 1   
    34   23   35 1   
    35   23   36 1   
    36   23   45 1   
    37   24   25 1   
    38   24   38 1   
    39   26   42 1   
    40   26   43 1   
    41   28   30 1   
    42   39   40 1   
    43   41   47 1   
    44   44   45 1   
    45   44   46 1   
@<TRIPOS>SUBSTRUCTURE
     1 4KO         1 TEMP              0 ****  ****    0 ROOT
