@<TRIPOS>MOLECULE
4KQ
   60    62     1     0     0
SMALL
bcc


@<TRIPOS>ATOM
      1 C20        -0.3400    0.7630    0.5080 ca        1 4KQ     -0.122500
      2 C24        -0.2210   -0.6110    2.4890 ca        1 4KQ     -0.122500
      3 C15        -3.1520   -0.0590    2.7320 ca        1 4KQ     -0.101500
      4 C17        -3.1710   -0.1890    0.3200 ca        1 4KQ     -0.101500
      5 C21         1.0480    0.8720    0.5050 ca        1 4KQ     -0.143500
      6 C23         1.1640   -0.5040    2.4840 ca        1 4KQ     -0.143500
      7 C29        -9.2510    0.1030    1.0320 ca        1 4KQ     -0.157000
      8 C30       -10.6080    0.2170    0.7620 ca        1 4KQ     -0.029000
      9 C14        -4.5430   -0.1480    2.7590 ca        1 4KQ     -0.175500
     10 C18        -4.5580   -0.2740    0.3250 ca        1 4KQ     -0.175500
     11 C19        -0.9930    0.0270    1.5050 cp        1 4KQ     -0.097000
     12 C16        -2.4480   -0.0750    1.5200 cp        1 4KQ     -0.015000
     13 C2         -9.7200   -0.0710    3.4060 ca        1 4KQ     -0.162600
     14 C22         1.8190    0.2490    1.4960 ca        1 4KQ      0.002700
     15 C10        -8.7980   -0.0340    2.3510 ca        1 4KQ      0.034700
     16 C31       -11.5420    0.2080    1.8030 ca        1 4KQ     -0.275300
     17 C13        -5.2420   -0.2520    1.5520 ca        1 4KQ      0.094100
     18 C1        -11.1000    0.0670    3.1310 ca        1 4KQ      0.226100
     19 C26         4.0450   -0.9390    1.7450 c         1 4KQ      0.919600
     20 C6         -6.9820   -0.8670    6.6230 c3        1 4KQ     -0.113433
     21 C7         -8.6790    0.7160    7.5920 c3        1 4KQ     -0.113433
     22 C8         -6.6370    1.6040    6.4470 c3        1 4KQ     -0.113433
     23 C25         3.2920    0.3960    1.5180 c3        1 4KQ     -0.183100
     24 C11        -7.3380   -0.1230    2.6620 c3        1 4KQ      0.157700
     25 C32       -13.0210    0.3480    1.4890 c3        1 4KQ      0.691200
     26 C5         -7.6720    0.4800    6.4800 c3        1 4KQ      0.171800
     27 O9         -9.6920   -1.1420    5.5870 o         1 4KQ     -0.521000
     28 O27         3.9110   -1.5150    2.8620 o         1 4KQ     -0.836800
     29 O36       -11.9330    0.0800    4.2160 oh        1 4KQ     -0.470100
     30 O28         4.7820   -1.3530    0.8100 o         1 4KQ     -0.836800
     31 O12        -6.6230   -0.3640    1.4480 os        1 4KQ     -0.340900
     32 O4         -8.3080    0.5900    5.1800 os        1 4KQ     -0.447900
     33 F33       -13.6270    1.4260    2.0940 f         1 4KQ     -0.238300
     34 F34       -13.3300    0.4900    0.1610 f         1 4KQ     -0.238300
     35 F35       -13.7900   -0.7160    1.9040 f         1 4KQ     -0.238300
     36 H1         -0.9280    1.2660   -0.2740 ha        1 4KQ      0.113000
     37 H2         -0.7180   -1.2160    3.2630 ha        1 4KQ      0.113000
     38 H3         -2.5970    0.0280    3.6790 ha        1 4KQ      0.141500
     39 H4         -2.6280   -0.2180   -0.6370 ha        1 4KQ      0.141500
     40 H5          1.5470    1.4490   -0.2880 ha        1 4KQ      0.157500
     41 H6          1.7880   -1.0330    3.2300 ha        1 4KQ      0.157500
     42 H7         -8.5170    0.1150    0.2090 ha        1 4KQ      0.174000
     43 H8        -10.9570    0.3210   -0.2790 ha        1 4KQ      0.155000
     44 H9         -5.0660   -0.1370    3.7250 ha        1 4KQ      0.132500
     45 H10        -5.1250   -0.3670   -0.6110 ha        1 4KQ      0.132500
     46 H11        -6.3380   -1.0620    5.7310 hc        1 4KQ      0.052033
     47 H12        -6.3430   -0.8620    7.5370 hc        1 4KQ      0.052033
     48 H13        -7.7350   -1.6860    6.7110 hc        1 4KQ      0.052033
     49 H14        -9.4050   -0.1300    7.6490 hc        1 4KQ      0.052033
     50 H15        -8.1420    0.8010    8.5660 hc        1 4KQ      0.052033
     51 H16        -9.2420    1.6610    7.4040 hc        1 4KQ      0.052033
     52 H17        -7.1430    2.5900    6.3230 hc        1 4KQ      0.052033
     53 H18        -5.9350    1.4520    5.5910 hc        1 4KQ      0.052033
     54 H19        -6.0610    1.6000    7.4020 hc        1 4KQ      0.052033
     55 H20         3.6560    0.8530    0.5630 hc        1 4KQ      0.040700
     56 H21         3.5720    1.0780    2.3640 hc        1 4KQ      0.040700
     57 H22        -7.1440   -0.9670    3.3810 h1        1 4KQ      0.070700
     58 H23        -7.0010    0.8450    3.1300 h1        1 4KQ      0.070700
     59 H24       -12.8550    0.0800    3.9140 ho        1 4KQ      0.436000
     60 C3         -9.2830   -0.2870    4.8030 c         1 4KQ      0.668700
@<TRIPOS>BOND
     1    1    5 ar  
     2    1   11 ar  
     3    1   36 1   
     4    2    6 ar  
     5    2   11 ar  
     6    2   37 1   
     7    3    9 ar  
     8    3   12 ar  
     9    3   38 1   
    10    4   10 ar  
    11    4   12 ar  
    12    4   39 1   
    13    5   14 ar  
    14    5   40 1   
    15    6   14 ar  
    16    6   41 1   
    17    7    8 ar  
    18    7   15 ar  
    19    7   42 1   
    20    8   16 ar  
    21    8   43 1   
    22    9   17 ar  
    23    9   44 1   
    24   10   17 ar  
    25   10   45 1   
    26   11   12 1   
    27   13   15 ar  
    28   13   18 ar  
    29   13   60 1   
    30   14   23 1   
    31   15   24 1   
    32   16   18 ar  
    33   16   25 1   
    34   17   31 1   
    35   18   29 1   
    36   19   23 1   
    37   19   28 1   
    38   19   30 1   
    39   20   26 1   
    40   20   46 1   
    41   20   47 1   
    42   20   48 1   
    43   21   26 1   
    44   21   49 1   
    45   21   50 1   
    46   21   51 1   
    47   22   26 1   
    48   22   52 1   
    49   22   53 1   
    50   22   54 1   
    51   23   55 1   
    52   23   56 1   
    53   24   31 1   
    54   24   57 1   
    55   24   58 1   
    56   25   33 1   
    57   25   34 1   
    58   25   35 1   
    59   26   32 1   
    60   27   60 2   
    61   29   59 1   
    62   32   60 1   
@<TRIPOS>SUBSTRUCTURE
     1 4KQ         1 TEMP              0 ****  ****    0 ROOT
