@<TRIPOS>MOLECULE
4KR
   29    30     1     0     0
SMALL
bcc


@<TRIPOS>ATOM
      1 C           5.1230   -0.8850    1.0130 c3        1 4KR     -0.152100
      2 C1          4.2450   -0.3650   -0.0770 c         1 4KR      0.629100
      3 S1         -1.2560   -2.2710   -0.7720 ss        1 4KR     -0.367200
      4 C2          0.4340   -1.7380   -0.5640 c3        1 4KR      0.084900
      5 O2          4.6030    0.0770   -1.1740 o         1 4KR     -0.571000
      6 C3          0.6380   -0.2950   -0.3180 c2        1 4KR     -0.270400
      7 O3          2.9280   -0.4230    0.2360 os        1 4KR     -0.435900
      8 C4         -0.2930    0.5570    0.1990 ce        1 4KR      0.027400
      9 N5         -1.5680    0.1260    0.5530 n         1 4KR     -0.338000
     10 C6         -2.0260   -1.2680    0.4770 cy        1 4KR      0.136800
     11 C7         -3.4850   -0.7520    0.2110 cy        1 4KR      0.080500
     12 C8         -2.8420    0.6840    0.2720 c         1 4KR      0.675500
     13 O9         -3.2980    1.8110    0.1590 o         1 4KR     -0.541500
     14 C10         0.0430    2.0610    0.4600 c         1 4KR      0.929800
     15 C13         1.9930    0.2010   -0.6850 c3        1 4KR      0.207600
     16 N14        -4.1370   -1.1590   -0.9910 n3        1 4KR     -0.900800
     17 H           4.6130   -1.7090    1.5670 hc        1 4KR      0.064367
     18 HA          6.0810   -1.2560    0.5760 hc        1 4KR      0.064367
     19 HB          5.3380   -0.0510    1.7260 hc        1 4KR      0.064367
     20 H6         -1.9210   -1.7780    1.4650 h2        1 4KR      0.089700
     21 H7         -4.1700   -0.9350    1.0790 h1        1 4KR      0.085700
     22 H13         2.2670   -0.1020   -1.7300 h1        1 4KR      0.074200
     23 H13A        2.0930    1.3140   -0.5710 h1        1 4KR      0.074200
     24 HN14       -4.7950   -0.4610   -1.2790 hn        1 4KR      0.368300
     25 HN1A       -3.4740   -1.3220   -1.7270 hn        1 4KR      0.368300
     26 H2          0.8870   -2.3270    0.2730 h1        1 4KR      0.063700
     27 O4          0.2400    2.7710   -0.5560 o         1 4KR     -0.787800
     28 O5          0.1180    2.4110    1.6610 o         1 4KR     -0.787800
     29 H2A         0.9350   -2.0470   -1.5180 h1        1 4KR      0.063700
@<TRIPOS>BOND
     1    1    2 1   
     2    1   17 1   
     3    1   18 1   
     4    1   19 1   
     5    2    5 2   
     6    2    7 1   
     7    3    4 1   
     8    3   10 1   
     9    4    6 1   
    10    4   26 1   
    11    4   29 1   
    12    6    8 2   
    13    6   15 1   
    14    7   15 1   
    15    8    9 1   
    16    8   14 1   
    17    9   10 1   
    18    9   12 1   
    19   10   11 1   
    20   10   20 1   
    21   11   12 1   
    22   11   16 1   
    23   11   21 1   
    24   12   13 2   
    25   14   27 1   
    26   14   28 1   
    27   15   22 1   
    28   15   23 1   
    29   16   24 1   
    30   16   25 1   
@<TRIPOS>SUBSTRUCTURE
     1 4KR         1 TEMP              0 ****  ****    0 ROOT
