@<TRIPOS>MOLECULE
4KR
   30    28     1     0     0
SMALL
bcc


@<TRIPOS>ATOM
      1 C           3.6790    0.7400    0.6020 c3        1 4KR     -0.248000
      2 C1          1.4990    0.5220    3.3540 c1        1 4KR      0.189000
      3 S1          3.3190   -1.4000   -6.7500 sh        1 4KR     -0.039000
      4 C2          2.9100   -0.9400   -5.0870 c3        1 4KR     -0.258000
      5 O2          0.6340   -0.0410    3.9050 o         1 4KR     -0.187000
      6 C3          3.8030   -1.5650   -4.0370 c3        1 4KR     -0.098000
      7 O3          2.2060   -1.1550    0.1750 o         1 4KR     -0.298000
      8 C4          4.7880   -0.6030   -3.4530 c2        1 4KR     -0.256000
      9 N5          5.8440   -0.1860   -4.1640 n         1 4KR      0.051000
     10 C6          6.2130   -0.4240   -5.4460 cv        1 4KR     -0.221000
     11 C7          7.4640    0.3510   -5.3500 cv        1 4KR      0.042000
     12 C8          7.0760    0.6470   -3.8810 cv        1 4KR      0.264000
     13 O9          7.4460    1.2170   -2.8880 o         1 4KR     -0.143000
     14 C10         4.6030   -0.1270   -2.0830 c2        1 4KR      0.378000
     15 C13         3.1070   -0.3900   -0.1670 c2        1 4KR      0.331000
     16 N14         8.4200    0.6290   -6.1260 n2        1 4KR     -0.190000
     17 H           3.1000    0.8720    1.5530 hc        1 4KR      0.129000
     18 HA          3.6360    1.6800   -0.0020 hc        1 4KR      0.129000
     19 HB          4.7530    0.5310    0.8400 hc        1 4KR      0.129000
     20 H6          5.6900   -0.9650   -6.2370 h4        1 4KR      0.249000
     21 H7          2.9540   -2.6710   -6.7280 hs        1 4KR      0.037000
     22 H13         3.1670   -1.9760   -3.2040 hc        1 4KR      0.116500
     23 H13A        4.3560   -2.4400   -4.4830 hc        1 4KR      0.116500
     24 HN14        3.4420   -4.8670   -2.9810 ha        1 4KR      0.000000
     25 HN1A        3.5440   -4.2570   -3.2560 ha        1 4KR      0.000000
     26 O4          3.5310   -0.7190   -1.4530 os        1 4KR     -0.294000
     27 O5          5.2730    0.7040   -1.4630 o         1 4KR     -0.360000
     28 H2A         2.9920    0.1760   -5.0790 h1        1 4KR      0.123000
     29 H143        9.1600    1.1980   -5.7750 hn        1 4KR      0.183000
     30 H2          1.8440   -1.2000   -4.8780 h1        1 4KR      0.123000
@<TRIPOS>BOND
     1    1   15 1   
     2    1   17 1   
     3    1   18 1   
     4    1   19 1   
     5    2    5 1   
     6    3    4 1   
     7    3   21 1   
     8    4    6 1   
     9    4   28 1   
    10    4   30 1   
    11    6    8 1   
    12    6   22 1   
    13    6   23 1   
    14    7   15 1   
    15    8    9 1   
    16    8   14 1   
    17    9   10 1   
    18    9   12 1   
    19   10   11 1   
    20   10   20 1   
    21   11   12 1   
    22   11   16 1   
    23   12   13 1   
    24   14   26 1   
    25   14   27 1   
    26   15   26 1   
    27   16   29 1   
    28   24   25 1   
@<TRIPOS>SUBSTRUCTURE
     1 4KR         1 TEMP              0 ****  ****    0 ROOT
