@<TRIPOS>MOLECULE
4KR
   30    27     1     0     0
SMALL
bcc


@<TRIPOS>ATOM
      1 C           3.2500    0.7220    2.6110 c1        1 4KR     -0.010000
      2 C1          3.4220   -1.2780    0.6590 c2        1 4KR      0.207000
      3 S1          3.1590    1.2300   -7.5860 ss        1 4KR      0.036000
      4 C2          2.3750   -0.1030   -6.7330 c3        1 4KR     -0.274000
      5 O2          3.4450   -2.4940    0.7050 o         1 4KR     -0.298000
      6 C3          3.3370   -0.8920   -5.8820 c3        1 4KR     -0.164000
      7 O3          3.5160   -0.7040   -0.6280 os        1 4KR     -0.316000
      8 C4          4.1840   -0.0120   -5.0030 c2        1 4KR     -0.019000
      9 N5          4.4980    1.2260   -5.1490 n2        1 4KR     -0.122000
     10 C6          4.0580    2.0130   -6.2480 c3        1 4KR     -0.206000
     11 C7          7.3830   -2.2150   -0.2750 c1        1 4KR     -0.028000
     12 C8          7.2870   -1.2510    0.7410 c1        1 4KR      0.133000
     13 O9          7.8650   -0.9180    1.7350 o         1 4KR     -0.200000
     14 C10         4.7360   -0.7550   -3.8220 c2        1 4KR      0.387000
     15 C13         4.2980   -1.2520   -1.5580 c1        1 4KR      0.155000
     16 N14         6.9900   -2.7470   -1.2910 n2        1 4KR     -0.183000
     17 H           4.1740    1.1250    3.0450 ha        1 4KR      0.063500
     18 HA          3.2910   -0.4360    1.4600 h5        1 4KR      0.294000
     19 HB          2.3320    1.1980    2.9760 ha        1 4KR      0.063500
     20 H6          3.4320    2.8490   -5.8270 h2        1 4KR      0.146500
     21 H7          4.9680    2.4660   -6.7330 h2        1 4KR      0.146500
     22 H13         2.7610   -1.6090   -5.2360 hc        1 4KR      0.125500
     23 H13A        4.0270   -1.5000   -6.5310 hc        1 4KR      0.125500
     24 HN14        6.4670   -3.7990   -4.0280 ha        1 4KR      0.001500
     25 HN1A        5.8400   -3.9540   -3.8250 ha        1 4KR      0.001500
     26 O4          3.9940   -0.5210   -2.6820 os        1 4KR     -0.292000
     27 O5          5.6940   -1.5150   -3.7910 o         1 4KR     -0.288000
     28 H2A         1.5360    0.2840   -6.1050 h1        1 4KR      0.123500
     29 H143        6.2140   -2.5790   -1.8980 hn        1 4KR      0.267000
     30 H2          1.9370   -0.7580   -7.5280 h1        1 4KR      0.123500
@<TRIPOS>BOND
     1    1   17 1   
     2    1   19 1   
     3    2    5 1   
     4    2    7 1   
     5    2   18 1   
     6    3    4 1   
     7    3   10 1   
     8    4    6 1   
     9    4   28 1   
    10    4   30 1   
    11    6    8 1   
    12    6   22 1   
    13    6   23 1   
    14    7   15 1   
    15    8    9 1   
    16    8   14 1   
    17    9   10 1   
    18   10   20 1   
    19   10   21 1   
    20   11   12 1   
    21   11   16 1   
    22   12   13 1   
    23   14   26 1   
    24   14   27 1   
    25   15   26 1   
    26   16   29 1   
    27   24   25 1   
@<TRIPOS>SUBSTRUCTURE
     1 4KR         1 TEMP              0 ****  ****    0 ROOT
