@<TRIPOS>MOLECULE
4KR
   29    26     1     0     0
SMALL
bcc


@<TRIPOS>ATOM
      1 C           1.9050   -0.0880    0.6550 c3        1 4KR     -0.300000
      2 C1          1.7760   -0.5380    4.0460 c1        1 4KR      0.200000
      3 S1          4.8490    0.4220   -6.7750 s4        1 4KR      1.100000
      4 C2          4.0370    1.3740   -5.8440 c2        1 4KR     -0.799000
      5 O2          2.5900   -0.8930    4.8130 o         1 4KR     -0.216000
      6 C3          3.9700    1.1500   -4.4400 c2        1 4KR     -0.086000
      7 O3          3.3480   -1.1240    2.2570 o         1 4KR     -0.388000
      8 C4          4.5550    0.1020   -3.7840 c2        1 4KR     -0.118000
      9 N5          5.3360   -0.8540   -4.4780 n         1 4KR     -0.202000
     10 C6          4.9900   -1.1180   -5.8430 c3        1 4KR     -0.356000
     11 C7          6.9570   -1.0480   -2.6480 c1        1 4KR     -0.103000
     12 C8          6.4350   -1.4980   -3.9280 c2        1 4KR      0.439000
     13 O9          7.0250   -2.4110   -4.5480 o         1 4KR     -0.385000
     14 C10         4.2500   -0.1040   -2.2970 c2        1 4KR      0.372000
     15 C13         3.1400   -0.8070    1.0750 c2        1 4KR      0.193000
     16 N14         7.4570   -0.7240   -1.6510 n1        1 4KR     -0.009000
     17 H           2.2060    0.7770    0.0050 hc        1 4KR      0.105333
     18 HA          1.3110    0.2670    1.5300 hc        1 4KR      0.105333
     19 HB          1.2780   -0.7750    0.0360 hc        1 4KR      0.105333
     20 H6          5.7790   -1.7470   -6.3390 h2        1 4KR      0.122500
     21 H7          4.0180   -1.6750   -5.8880 h2        1 4KR      0.122500
     22 H13         3.3820    1.8530   -3.8250 ha        1 4KR      0.165000
     23 H13A        3.8690   -1.0300    0.2540 h4        1 4KR      0.183000
     24 HN14        7.3180   -3.3080   -7.3060 ha        1 4KR      0.001000
     25 HN1A        7.3930   -3.3610   -6.6340 ha        1 4KR      0.001000
     26 H2          4.1160    0.1530   -7.8190 hs        1 4KR     -0.283000
     27 O4          3.7180    0.8590   -1.6800 o         1 4KR     -0.559500
     28 O5          4.5000   -1.2260   -1.7710 o         1 4KR     -0.559500
     29 H2A         3.4370    2.2080   -6.2230 h4        1 4KR      0.148000
@<TRIPOS>BOND
     1    1   15 1   
     2    1   17 1   
     3    1   18 1   
     4    1   19 1   
     5    2    5 1   
     6    3    4 1   
     7    3   10 1   
     8    3   26 1   
     9    4    6 1   
    10    4   29 1   
    11    6    8 1   
    12    6   22 1   
    13    7   15 1   
    14    8    9 1   
    15    8   14 1   
    16    9   10 1   
    17    9   12 1   
    18   10   20 1   
    19   10   21 1   
    20   11   12 1   
    21   11   16 1   
    22   12   13 1   
    23   14   27 1   
    24   14   28 1   
    25   15   23 1   
    26   24   25 1   
@<TRIPOS>SUBSTRUCTURE
     1 4KR         1 TEMP              0 ****  ****    0 ROOT
