@<TRIPOS>MOLECULE
4KU
   46    47     1     0     0
SMALL
bcc


@<TRIPOS>ATOM
      1 OAE        -0.1010    0.4780   -0.2830 o         1 4KU     -0.746867
      2 SBA         1.2590    0.4200    0.1230 s6        1 4KU      1.454100
      3 OAA         1.4230    0.5050    1.5250 o         1 4KU     -0.746867
      4 OAB         1.9670   -0.6540   -0.4640 o         1 4KU     -0.746867
      5 CAY         1.9940    1.9010   -0.5420 ca        1 4KU     -0.254500
      6 CAO         1.1730    2.7300   -1.3000 ca        1 4KU     -0.087000
      7 CAU         1.6500    3.9250   -1.8730 ca        1 4KU      0.015600
      8 NAS         0.7740    4.7960   -2.5850 nh        1 4KU     -0.700600
      9 CAI         1.1520    5.1810   -3.8940 c3        1 4KU      0.335900
     10 SAG         0.7680    4.0610   -5.2790 sh        1 4KU     -0.579900
     11 CAK         2.9970    4.2760   -1.6590 ca        1 4KU     -0.125000
     12 CAM         3.8210    3.4470   -0.9080 ca        1 4KU     -0.148000
     13 CAW         3.3380    2.2570   -0.3460 ca        1 4KU      0.030700
     14 CAQ         4.2170    1.3600    0.4590 c3        1 4KU     -0.073100
     15 CAR         5.6530    1.8200    0.5850 c3        1 4KU     -0.073100
     16 CAX         6.5370    0.9130    1.3730 ca        1 4KU      0.030700
     17 CAN         6.0450   -0.2560    1.9670 ca        1 4KU     -0.148000
     18 CAL         6.8750   -1.0980    2.6970 ca        1 4KU     -0.125000
     19 CAV         8.2400   -0.7870    2.8470 ca        1 4KU      0.015600
     20 NAT         9.0910   -1.6040    3.6470 nh        1 4KU     -0.700600
     21 CAJ         9.1740   -2.9810    3.3240 c3        1 4KU      0.335900
     22 SAH        10.3210   -3.4990    2.0070 sh        1 4KU     -0.579900
     23 CAP         8.7240    0.3940    2.2500 ca        1 4KU     -0.087000
     24 CAZ         7.8940    1.2420    1.5230 ca        1 4KU     -0.254500
     25 SBB         8.6390    2.7010    0.8230 s6        1 4KU      1.454100
     26 OAF         8.4920    2.5690   -0.5770 o         1 4KU     -0.746867
     27 OAD         7.9260    3.7960    1.3650 o         1 4KU     -0.746867
     28 OAC         9.9940    2.6540    1.2470 o         1 4KU     -0.746867
     29 H1          0.1170    2.4290   -1.4380 ha        1 4KU      0.154000
     30 H2         -0.1770    4.4800   -2.5360 hn        1 4KU      0.391800
     31 H3          0.5680    6.0940   -4.1900 h2        1 4KU      0.069700
     32 H4          2.2500    5.3990   -3.9360 h2        1 4KU      0.069700
     33 H5          1.4260    2.9710   -4.9060 hs        1 4KU      0.253800
     34 H6          3.4070    5.2080   -2.0750 ha        1 4KU      0.113000
     35 H7          4.8710    3.7470   -0.7590 ha        1 4KU      0.150000
     36 H8          4.1840    0.3370   -0.0150 hc        1 4KU      0.084700
     37 H9          3.7550    1.2620    1.4830 hc        1 4KU      0.084700
     38 H10         6.1090    1.9340   -0.4410 hc        1 4KU      0.084700
     39 H11         5.6880    2.8370    1.0730 hc        1 4KU      0.084700
     40 H12         4.9810   -0.5280    1.8660 ha        1 4KU      0.150000
     41 H13         6.4510   -2.0020    3.1600 ha        1 4KU      0.113000
     42 H14         9.9930   -1.1830    3.7720 hn        1 4KU      0.391800
     43 H15         9.5930   -3.5390    4.2040 h2        1 4KU      0.069700
     44 H16         8.1610   -3.3820    3.0620 h2        1 4KU      0.069700
     45 H17         9.8470   -2.8070    0.9780 hs        1 4KU      0.253800
     46 H18         9.7890    0.6760    2.3570 ha        1 4KU      0.154000
@<TRIPOS>BOND
     1    1    2 1   
     2    2    3 1   
     3    2    4 1   
     4    2    5 1   
     5    5    6 ar  
     6    5   13 ar  
     7    6    7 ar  
     8    6   29 1   
     9    7    8 1   
    10    7   11 ar  
    11    8    9 1   
    12    8   30 1   
    13    9   10 1   
    14    9   31 1   
    15    9   32 1   
    16   10   33 1   
    17   11   12 ar  
    18   11   34 1   
    19   12   13 ar  
    20   12   35 1   
    21   13   14 1   
    22   14   15 1   
    23   14   36 1   
    24   14   37 1   
    25   15   16 1   
    26   15   38 1   
    27   15   39 1   
    28   16   17 ar  
    29   16   24 ar  
    30   17   18 ar  
    31   17   40 1   
    32   18   19 ar  
    33   18   41 1   
    34   19   20 1   
    35   19   23 ar  
    36   20   21 1   
    37   20   42 1   
    38   21   22 1   
    39   21   43 1   
    40   21   44 1   
    41   22   45 1   
    42   23   24 ar  
    43   23   46 1   
    44   24   25 1   
    45   25   26 1   
    46   25   27 1   
    47   25   28 1   
@<TRIPOS>SUBSTRUCTURE
     1 4KU         1 TEMP              0 ****  ****    0 ROOT
