@<TRIPOS>MOLECULE
4KU
   46    47     1     0     0
SMALL
bcc


@<TRIPOS>ATOM
      1 OAE        -0.0950    0.4530   -0.3010 o         1 4KU     -0.746867
      2 SBA         1.2650    0.4000    0.1080 s6        1 4KU      1.454100
      3 OAA         1.4250    0.4750    1.5100 o         1 4KU     -0.746867
      4 OAB         1.9800   -0.6660   -0.4860 o         1 4KU     -0.746867
      5 CAY         1.9930    1.8890   -0.5460 ca        1 4KU     -0.254500
      6 CAO         1.1690    2.7190   -1.3000 ca        1 4KU     -0.087000
      7 CAU         1.6410    3.9210   -1.8630 ca        1 4KU      0.015600
      8 NAS         0.7610    4.7920   -2.5710 nu        1 4KU     -0.700600
      9 CAI         1.1410    5.1890   -3.8770 c3        1 4KU      0.335900
     10 SAG         0.7670    4.0760   -5.2700 sh        1 4KU     -0.579900
     11 CAK         2.9850    4.2780   -1.6430 ca        1 4KU     -0.125000
     12 CAM         3.8120    3.4480   -0.8950 ca        1 4KU     -0.148000
     13 CAW         3.3350    2.2520   -0.3440 ca        1 4KU      0.030700
     14 CAQ         4.2160    1.3540    0.4570 c3        1 4KU     -0.073100
     15 CAR         5.6500    1.8210    0.5900 c3        1 4KU     -0.073100
     16 CAX         6.5370    0.9130    1.3730 ca        1 4KU      0.030700
     17 CAN         6.0500   -0.2620    1.9590 ca        1 4KU     -0.148000
     18 CAL         6.8830   -1.1050    2.6850 ca        1 4KU     -0.125000
     19 CAV         8.2460   -0.7870    2.8390 ca        1 4KU      0.015600
     20 NAT         9.1000   -1.6050    3.6360 nu        1 4KU     -0.700600
     21 CAJ         9.1900   -2.9790    3.3030 c3        1 4KU      0.335900
     22 SAH        10.3420   -3.4830    1.9850 sh        1 4KU     -0.579900
     23 CAP         8.7250    0.4000    2.2510 ca        1 4KU     -0.087000
     24 CAZ         7.8920    1.2480    1.5280 ca        1 4KU     -0.254500
     25 SBB         8.6300    2.7160    0.8390 s6        1 4KU      1.454100
     26 OAF         8.4870    2.5920   -0.5620 o         1 4KU     -0.746867
     27 OAD         7.9100    3.8040    1.3860 o         1 4KU     -0.746867
     28 OAC         9.9850    2.6740    1.2660 o         1 4KU     -0.746867
     29 H1          0.1150    2.4120   -1.4420 ha        1 4KU      0.154000
     30 H2         -0.1880    4.4700   -2.5270 hn        1 4KU      0.391800
     31 H3          2.2370    5.4140   -3.9130 h2        1 4KU      0.069700
     32 H4          0.5520    6.1010   -4.1680 h2        1 4KU      0.069700
     33 H5          1.4310    2.9880   -4.9040 hs        1 4KU      0.253800
     34 H6          3.3910    5.2150   -2.0510 ha        1 4KU      0.113000
     35 H7          4.8600    3.7540   -0.7420 ha        1 4KU      0.150000
     36 H8          3.7530    1.2460    1.4800 hc        1 4KU      0.084700
     37 H9          4.1910    0.3340   -0.0240 hc        1 4KU      0.084700
     38 H10         5.6780    2.8350    1.0850 hc        1 4KU      0.084700
     39 H11         6.1070    1.9440   -0.4340 hc        1 4KU      0.084700
     40 H12         4.9880   -0.5390    1.8540 ha        1 4KU      0.150000
     41 H13         6.4630   -2.0140    3.1410 ha        1 4KU      0.113000
     42 H14         9.9990   -1.1800    3.7650 hn        1 4KU      0.391800
     43 H15         8.1810   -3.3840    3.0380 h2        1 4KU      0.069700
     44 H16         9.6110   -3.5410    4.1810 h2        1 4KU      0.069700
     45 H17         9.8670   -2.7880    0.9600 hs        1 4KU      0.253800
     46 H18         9.7880    0.6870    2.3610 ha        1 4KU      0.154000
@<TRIPOS>BOND
     1    1    2 1   
     2    2    3 1   
     3    2    4 1   
     4    2    5 1   
     5    5    6 ar  
     6    5   13 ar  
     7    6    7 ar  
     8    6   29 1   
     9    7    8 1   
    10    7   11 ar  
    11    8    9 1   
    12    8   30 1   
    13    9   10 1   
    14    9   31 1   
    15    9   32 1   
    16   10   33 1   
    17   11   12 ar  
    18   11   34 1   
    19   12   13 ar  
    20   12   35 1   
    21   13   14 1   
    22   14   15 1   
    23   14   36 1   
    24   14   37 1   
    25   15   16 1   
    26   15   38 1   
    27   15   39 1   
    28   16   17 ar  
    29   16   24 ar  
    30   17   18 ar  
    31   17   40 1   
    32   18   19 ar  
    33   18   41 1   
    34   19   20 1   
    35   19   23 ar  
    36   20   21 1   
    37   20   42 1   
    38   21   22 1   
    39   21   43 1   
    40   21   44 1   
    41   22   45 1   
    42   23   24 ar  
    43   23   46 1   
    44   24   25 1   
    45   25   26 1   
    46   25   27 1   
    47   25   28 1   
@<TRIPOS>SUBSTRUCTURE
     1 4KU         1 TEMP              0 ****  ****    0 ROOT
