@<TRIPOS>MOLECULE
4L2
   38    40     1     0     0
SMALL
bcc


@<TRIPOS>ATOM
      1 OAC         0.2380   -1.3420    0.0540 o         1 4L2     -0.628500
      2 CAM         1.3080   -0.7060    0.0540 c         1 4L2      0.704500
      3 CAK         2.1430   -0.6490    1.3190 c3        1 4L2     -0.147400
      4 CAI         3.6020   -0.3360    1.0930 c3        1 4L2     -0.081400
      5 CAJ         3.7440    0.8380    0.1530 c3        1 4L2     -0.094400
      6 CAL         3.0720    0.5300   -1.1810 c3        1 4L2      0.100000
      7 NAS         1.7210    0.0170   -1.0680 n         1 4L2     -0.396000
      8 CAO         0.9310    0.0510   -2.2500 ca        1 4L2      0.107600
      9 CAH         0.7520    1.2600   -2.9350 ca        1 4L2     -0.210000
     10 CAR        -0.0150    1.3190   -4.1270 ca        1 4L2      0.112600
     11 NAT        -0.1780    2.5280   -4.8120 n         1 4L2     -0.351000
     12 CAB         0.4230    3.7290   -4.2900 c3        1 4L2      0.064300
     13 CAP        -0.9360    2.5930   -5.9990 c         1 4L2      0.698700
     14 OAD        -1.0620    3.6850   -6.5900 o         1 4L2     -0.639500
     15 CAG        -1.5470    1.3530   -6.4870 cc        1 4L2     -0.244200
     16 CAN        -1.4010    0.1760   -5.8340 cd        1 4L2      0.030600
     17 CAA        -2.0330   -1.0640   -6.3450 c3        1 4L2     -0.070900
     18 CAQ        -0.6180    0.1250   -4.6170 ca        1 4L2     -0.138800
     19 CAF        -0.4420   -1.0690   -3.9010 ca        1 4L2     -0.066000
     20 CAE         0.3140   -1.1240   -2.7470 ca        1 4L2     -0.161000
     21 H1          1.6760    0.1360    1.9740 hc        1 4L2      0.079700
     22 H2          2.0320   -1.6370    1.8410 hc        1 4L2      0.079700
     23 H3          4.1230   -1.2310    0.6620 hc        1 4L2      0.052700
     24 H4          4.0910   -0.1060    2.0760 hc        1 4L2      0.052700
     25 H5          4.8250    1.0550   -0.0410 hc        1 4L2      0.056700
     26 H6          3.2880    1.7530    0.6140 hc        1 4L2      0.056700
     27 H7          3.7000   -0.2310   -1.7340 h1        1 4L2      0.046700
     28 H8          3.0550    1.4700   -1.8020 h1        1 4L2      0.046700
     29 H9          1.2040    2.1810   -2.5330 ha        1 4L2      0.143000
     30 H10         0.1790    4.5970   -4.9620 h1        1 4L2      0.056367
     31 H11         1.5380    3.6120   -4.2390 h1        1 4L2      0.056367
     32 H12         0.0260    3.9440   -3.2610 h1        1 4L2      0.056367
     33 H13        -2.1280    1.4570   -7.4150 ha        1 4L2      0.164000
     34 H14        -2.7470   -1.4740   -5.5870 hc        1 4L2      0.054700
     35 H15        -2.5970   -0.8690   -7.2910 hc        1 4L2      0.054700
     36 H16        -1.2530   -1.8380   -6.5540 hc        1 4L2      0.054700
     37 H17        -0.9190   -1.9910   -4.2700 ha        1 4L2      0.140000
     38 H18         0.4110   -2.0730   -2.1960 ha        1 4L2      0.161000
@<TRIPOS>BOND
     1    1    2 2   
     2    2    3 1   
     3    2    7 1   
     4    3    4 1   
     5    3   21 1   
     6    3   22 1   
     7    4    5 1   
     8    4   23 1   
     9    4   24 1   
    10    5    6 1   
    11    5   25 1   
    12    5   26 1   
    13    6    7 1   
    14    6   27 1   
    15    6   28 1   
    16    7    8 1   
    17    8    9 ar  
    18    8   20 ar  
    19    9   10 ar  
    20    9   29 1   
    21   10   11 1   
    22   10   18 ar  
    23   11   12 1   
    24   11   13 1   
    25   12   30 1   
    26   12   31 1   
    27   12   32 1   
    28   13   14 2   
    29   13   15 1   
    30   15   16 2   
    31   15   33 1   
    32   16   17 1   
    33   16   18 1   
    34   17   34 1   
    35   17   35 1   
    36   17   36 1   
    37   18   19 ar  
    38   19   20 ar  
    39   19   37 1   
    40   20   38 1   
@<TRIPOS>SUBSTRUCTURE
     1 4L2         1 TEMP              0 ****  ****    0 ROOT
