@<TRIPOS>MOLECULE
4L2
   38    40     1     0     0
SMALL
bcc


@<TRIPOS>ATOM
      1 OAC         0.2320   -1.3630    0.0390 o         1 4L2     -0.628500
      2 CAM         1.2990   -0.7220    0.0490 c         1 4L2      0.704500
      3 CAK         2.1270   -0.6690    1.3180 c3        1 4L2     -0.147400
      4 CAI         3.5860   -0.3490    1.1020 c3        1 4L2     -0.081400
      5 CAJ         3.7270    0.8320    0.1700 c3        1 4L2     -0.094400
      6 CAL         3.0640    0.5290   -1.1690 c3        1 4L2      0.100000
      7 NAS         1.7140    0.0100   -1.0670 n         1 4L2     -0.396000
      8 CAO         0.9300    0.0480   -2.2520 ca        1 4L2      0.107600
      9 CAH         0.7500    1.2610   -2.9310 ca        1 4L2     -0.210000
     10 CAR        -0.0110    1.3240   -4.1260 ca        1 4L2      0.112600
     11 NAT        -0.1750    2.5370   -4.8040 n         1 4L2     -0.351000
     12 CAB         0.4170    3.7370   -4.2720 c3        1 4L2      0.064300
     13 CAP        -0.9280    2.6060   -5.9950 c         1 4L2      0.698700
     14 OAD        -1.0550    3.7020   -6.5790 o         1 4L2     -0.639500
     15 CAG        -1.5310    1.3670   -6.4940 cc        1 4L2     -0.244200
     16 CAN        -1.3850    0.1870   -5.8470 cd        1 4L2      0.030600
     17 CAA        -2.0090   -1.0520   -6.3690 c3        1 4L2     -0.070900
     18 CAQ        -0.6070    0.1310   -4.6270 ca        1 4L2     -0.138800
     19 CAF        -0.4290   -1.0670   -3.9170 ca        1 4L2     -0.066000
     20 CAE         0.3200   -1.1260   -2.7600 ca        1 4L2     -0.161000
     21 H1          2.0180   -1.6610    1.8330 hc        1 4L2      0.079700
     22 H2          1.6530    0.1090    1.9760 hc        1 4L2      0.079700
     23 H3          4.1130   -1.2390    0.6680 hc        1 4L2      0.052700
     24 H4          4.0690   -0.1220    2.0880 hc        1 4L2      0.052700
     25 H5          4.8090    1.0550   -0.0180 hc        1 4L2      0.056700
     26 H6          3.2660    1.7420    0.6330 hc        1 4L2      0.056700
     27 H7          3.6980   -0.2250   -1.7240 h1        1 4L2      0.046700
     28 H8          3.0460    1.4730   -1.7850 h1        1 4L2      0.046700
     29 H9          1.1960    2.1810   -2.5210 ha        1 4L2      0.143000
     30 H10         0.0150    3.9440   -3.2440 h1        1 4L2      0.056367
     31 H11         0.1740    4.6080   -4.9390 h1        1 4L2      0.056367
     32 H12         1.5330    3.6240   -4.2160 h1        1 4L2      0.056367
     33 H13        -2.1080    1.4750   -7.4240 ha        1 4L2      0.164000
     34 H14        -2.5690   -0.8540   -7.3160 hc        1 4L2      0.054700
     35 H15        -1.2240   -1.8220   -6.5790 hc        1 4L2      0.054700
     36 H16        -2.7250   -1.4700   -5.6180 hc        1 4L2      0.054700
     37 H17        -0.9010   -1.9890   -4.2950 ha        1 4L2      0.140000
     38 H18         0.4190   -2.0780   -2.2150 ha        1 4L2      0.161000
@<TRIPOS>BOND
     1    1    2 2   
     2    2    3 1   
     3    2    7 1   
     4    3    4 1   
     5    3   21 1   
     6    3   22 1   
     7    4    5 1   
     8    4   23 1   
     9    4   24 1   
    10    5    6 1   
    11    5   25 1   
    12    5   26 1   
    13    6    7 1   
    14    6   27 1   
    15    6   28 1   
    16    7    8 1   
    17    8    9 ar  
    18    8   20 ar  
    19    9   10 ar  
    20    9   29 1   
    21   10   11 1   
    22   10   18 ar  
    23   11   12 1   
    24   11   13 1   
    25   12   30 1   
    26   12   31 1   
    27   12   32 1   
    28   13   14 2   
    29   13   15 1   
    30   15   16 2   
    31   15   33 1   
    32   16   17 1   
    33   16   18 1   
    34   17   34 1   
    35   17   35 1   
    36   17   36 1   
    37   18   19 ar  
    38   19   20 ar  
    39   19   37 1   
    40   20   38 1   
@<TRIPOS>SUBSTRUCTURE
     1 4L2         1 TEMP              0 ****  ****    0 ROOT
