@<TRIPOS>MOLECULE
4L3
   66    69     1     0     0
SMALL
bcc


@<TRIPOS>ATOM
      1 CAK        -0.0100   -0.1310    0.0040 c3        1 4L3     -0.071900
      2 CAJ         1.4310    0.2110    0.0590 cc        1 4L3      0.016600
      3 CAI         2.0000    0.6590    1.2010 cd        1 4L3     -0.222200
      4 CAH         3.4210    1.0140    1.2790 c         1 4L3      0.695700
      5 OAL         3.9620    1.4190    2.3240 o         1 4L3     -0.610500
      6 NAG         4.1950    0.8820    0.1020 n         1 4L3     -0.350000
      7 CAM         5.5820    1.2770    0.1210 c3        1 4L3      0.059300
      8 CAD         3.6270    0.4080   -1.0790 ca        1 4L3      0.119600
      9 CAC         4.4160    0.2500   -2.2500 ca        1 4L3     -0.167000
     10 CAE         2.2440    0.0640   -1.1330 ca        1 4L3     -0.121800
     11 CAF         1.7030   -0.4020   -2.3410 ca        1 4L3     -0.058000
     12 CAA         2.4730   -0.5460   -3.4790 ca        1 4L3     -0.189000
     13 CAB         3.8500   -0.2240   -3.4370 ca        1 4L3      0.077600
     14 NAN         4.6690   -0.3700   -4.6010 n         1 4L3     -0.396000
     15 CAO         5.3850    0.7360   -5.0820 c         1 4L3      0.694500
     16 OAT         5.4380    1.7870   -4.4260 o         1 4L3     -0.567500
     17 CAP         6.1590    0.6340   -6.3800 c3        1 4L3     -0.156400
     18 CAQ         5.7310   -0.4940   -7.2860 c3        1 4L3     -0.099400
     19 CAR         5.6170   -1.7580   -6.4420 c3        1 4L3      0.103500
     20 NBA         5.3430   -2.9810   -7.2770 ny        1 4L3     -0.644800
     21 CBB         6.5700   -3.4210   -8.0270 c         1 4L3      0.632100
     22 OBH         7.6080   -3.6960   -7.4430 o         1 4L3     -0.431000
     23 OBC         6.3060   -3.4570   -9.3360 os        1 4L3     -0.425900
     24 CBD         7.3730   -3.9030  -10.2870 c3        1 4L3      0.200800
     25 CBF         7.7510   -5.3330   -9.9690 c3        1 4L3     -0.129433
     26 CBG         6.6450   -3.7870  -11.6170 c3        1 4L3     -0.129433
     27 CBE         8.5450   -2.9510  -10.1950 c3        1 4L3     -0.129433
     28 CAS         4.4660   -1.5670   -5.3910 c3        1 4L3      0.180000
     29 CAU         4.3830   -2.8410   -4.5830 ca        1 4L3     -0.177300
     30 CAV         3.3100   -3.7160   -4.8030 ca        1 4L3     -0.121500
     31 CAW         3.2200   -4.9040   -4.0820 ca        1 4L3     -0.118000
     32 CAX         4.1950   -5.2240   -3.1340 ca        1 4L3     -0.095000
     33 CAY         5.2610   -4.3530   -2.9100 ca        1 4L3     -0.118000
     34 CAZ         5.3570   -3.1630   -3.6320 ca        1 4L3     -0.121500
     35 H1         -0.5320    0.5080   -0.7530 hc        1 4L3      0.057033
     36 H2         -0.5000    0.0310    0.9970 hc        1 4L3      0.057033
     37 H3         -0.1440   -1.2050   -0.2810 hc        1 4L3      0.057033
     38 H4          1.4390    0.7930    2.1390 ha        1 4L3      0.174000
     39 H5          6.2370    0.3930   -0.1030 h1        1 4L3      0.061700
     40 H6          5.7660    2.0800   -0.6420 h1        1 4L3      0.061700
     41 H7          5.8470    1.6750    1.1390 h1        1 4L3      0.061700
     42 H8          5.4810    0.5370   -2.2390 ha        1 4L3      0.158000
     43 H9          0.6300   -0.6540   -2.3850 ha        1 4L3      0.146000
     44 H10         2.0060   -0.9080   -4.4060 ha        1 4L3      0.127000
     45 H11         7.2450    0.5310   -6.1090 hc        1 4L3      0.105700
     46 H12         6.0410    1.6140   -6.9190 hc        1 4L3      0.105700
     47 H13         4.7440   -0.2530   -7.7650 hc        1 4L3      0.074200
     48 H14         6.4870   -0.6240   -8.1050 hc        1 4L3      0.074200
     49 H15         6.5900   -1.9570   -5.8950 hx        1 4L3      0.135700
     50 H16         5.0520   -3.7480   -6.6460 hn        1 4L3      0.475300
     51 H17         8.4500   -5.7070  -10.7580 hc        1 4L3      0.072811
     52 H18         8.2680   -5.3990   -8.9800 hc        1 4L3      0.072811
     53 H19         6.8460   -5.9870   -9.9560 hc        1 4L3      0.072811
     54 H20         5.7430   -4.4440  -11.6320 hc        1 4L3      0.072811
     55 H21         6.3290   -2.7330  -11.8030 hc        1 4L3      0.072811
     56 H22         7.3440   -4.1080  -12.4290 hc        1 4L3      0.072811
     57 H23         9.0710   -3.0580   -9.2150 hc        1 4L3      0.072811
     58 H24         9.2700   -3.1880  -11.0130 hc        1 4L3      0.072811
     59 H25         8.2050   -1.8950  -10.3160 hc        1 4L3      0.072811
     60 H26         3.4970   -1.4440   -5.9740 h1        1 4L3      0.053700
     61 H27         2.5110   -3.4480   -5.5110 ha        1 4L3      0.142000
     62 H28         2.3690   -5.5840   -4.2470 ha        1 4L3      0.156500
     63 H29         4.1150   -6.1590   -2.5560 ha        1 4L3      0.159000
     64 H30         6.0230   -4.5960   -2.1520 ha        1 4L3      0.156500
     65 H31         6.1890   -2.4690   -3.4330 ha        1 4L3      0.142000
     66 HBA2        4.5860   -2.7860   -7.9430 hn        1 4L3      0.475300
@<TRIPOS>BOND
     1    1    2 1   
     2    1   35 1   
     3    1   36 1   
     4    1   37 1   
     5    2    3 2   
     6    2   10 1   
     7    3    4 1   
     8    3   38 1   
     9    4    5 2   
    10    4    6 1   
    11    6    7 1   
    12    6    8 1   
    13    7   39 1   
    14    7   40 1   
    15    7   41 1   
    16    8    9 ar  
    17    8   10 ar  
    18    9   13 ar  
    19    9   42 1   
    20   10   11 ar  
    21   11   12 ar  
    22   11   43 1   
    23   12   13 ar  
    24   12   44 1   
    25   13   14 1   
    26   14   15 1   
    27   14   28 1   
    28   15   16 2   
    29   15   17 1   
    30   17   18 1   
    31   17   45 1   
    32   17   46 1   
    33   18   19 1   
    34   18   47 1   
    35   18   48 1   
    36   19   20 1   
    37   19   28 1   
    38   19   49 1   
    39   20   21 1   
    40   20   50 1   
    41   20   66 1   
    42   21   22 2   
    43   21   23 1   
    44   23   24 1   
    45   24   25 1   
    46   24   26 1   
    47   24   27 1   
    48   25   51 1   
    49   25   52 1   
    50   25   53 1   
    51   26   54 1   
    52   26   55 1   
    53   26   56 1   
    54   27   57 1   
    55   27   58 1   
    56   27   59 1   
    57   28   29 1   
    58   28   60 1   
    59   29   30 ar  
    60   29   34 ar  
    61   30   31 ar  
    62   30   61 1   
    63   31   32 ar  
    64   31   62 1   
    65   32   33 ar  
    66   32   63 1   
    67   33   34 ar  
    68   33   64 1   
    69   34   65 1   
@<TRIPOS>SUBSTRUCTURE
     1 4L3         1 TEMP              0 ****  ****    0 ROOT
