@<TRIPOS>MOLECULE
4L3
   66    69     1     0     0
SMALL
bcc


@<TRIPOS>ATOM
      1 CAK        -0.0050   -0.1720    0.0210 c3        1 4L3     -0.071900
      2 CAJ         1.4270    0.2090    0.0560 cc        1 4L3      0.016600
      3 CAI         1.9940    0.6930    1.1840 cd        1 4L3     -0.222200
      4 CAH         3.4070    1.0860    1.2420 c         1 4L3      0.695700
      5 OAL         3.9460    1.5230    2.2750 o         1 4L3     -0.610500
      6 NAG         4.1730    0.9520    0.0600 n         1 4L3     -0.350000
      7 CAM         5.5490    1.3840    0.0590 c3        1 4L3      0.059300
      8 CAD         3.6060    0.4430   -1.1070 ca        1 4L3      0.119600
      9 CAC         4.3890    0.2840   -2.2820 ca        1 4L3     -0.167000
     10 CAE         2.2330    0.0620   -1.1420 ca        1 4L3     -0.121800
     11 CAF         1.6930   -0.4400   -2.3350 ca        1 4L3     -0.058000
     12 CAA         2.4560   -0.5840   -3.4780 ca        1 4L3     -0.189000
     13 CAB         3.8250   -0.2260   -3.4550 ca        1 4L3      0.077600
     14 NAN         4.6360   -0.3710   -4.6240 n         1 4L3     -0.396000
     15 CAO         5.3180    0.7440   -5.1320 c         1 4L3      0.694500
     16 OAT         5.3500    1.8070   -4.4950 o         1 4L3     -0.567500
     17 CAP         6.0830    0.6380   -6.4360 c3        1 4L3     -0.156400
     18 CAQ         5.6760   -0.5170   -7.3170 c3        1 4L3     -0.099400
     19 CAR         5.6030   -1.7680   -6.4490 c3        1 4L3      0.103500
     20 NBA         5.3540   -3.0120   -7.2590 n4        1 4L3     -0.644800
     21 CBB         6.5840   -3.4340   -8.0130 c         1 4L3      0.632100
     22 OBH         7.6360   -3.6680   -7.4340 o         1 4L3     -0.431000
     23 OBC         6.3090   -3.5050   -9.3180 os        1 4L3     -0.425900
     24 CBD         7.3780   -3.9430  -10.2710 c3        1 4L3      0.200800
     25 CBF         7.7980   -5.3550   -9.9260 c3        1 4L3     -0.129433
     26 CBG         6.6330   -3.8760  -11.5950 c3        1 4L3     -0.129433
     27 CBE         8.5240   -2.9580  -10.2120 c3        1 4L3     -0.129433
     28 CAS         4.4570   -1.5880   -5.3900 c3        1 4L3      0.180000
     29 CAU         4.4160   -2.8480   -4.5590 ca        1 4L3     -0.177300
     30 CAV         3.3640   -3.7550   -4.7520 ca        1 4L3     -0.121500
     31 CAW         3.3130   -4.9320   -4.0090 ca        1 4L3     -0.118000
     32 CAX         4.3050   -5.2090   -3.0660 ca        1 4L3     -0.095000
     33 CAY         5.3490   -4.3060   -2.8680 ca        1 4L3     -0.118000
     34 CAZ         5.4070   -3.1270   -3.6120 ca        1 4L3     -0.121500
     35 H1         -0.5500    0.4390   -0.7420 hc        1 4L3      0.057033
     36 H2         -0.4890   -0.0040    1.0150 hc        1 4L3      0.057033
     37 H3         -0.1130   -1.2540   -0.2440 hc        1 4L3      0.057033
     38 H4          1.4390    0.8280    2.1260 ha        1 4L3      0.174000
     39 H5          6.2250    0.5140   -0.1560 h1        1 4L3      0.061700
     40 H6          5.7050    2.1780   -0.7200 h1        1 4L3      0.061700
     41 H7          5.8130    1.8070    1.0660 h1        1 4L3      0.061700
     42 H8          5.4460    0.5990   -2.2870 ha        1 4L3      0.158000
     43 H9          0.6270   -0.7210   -2.3650 ha        1 4L3      0.146000
     44 H10         1.9900   -0.9750   -4.3940 ha        1 4L3      0.127000
     45 H11         7.1740    0.5690   -6.1730 hc        1 4L3      0.105700
     46 H12         5.9340    1.6060   -6.9910 hc        1 4L3      0.105700
     47 H13         6.4280   -0.6420   -8.1410 hc        1 4L3      0.074200
     48 H14         4.6790   -0.3100   -7.7910 hc        1 4L3      0.074200
     49 H15         6.5860   -1.9310   -5.9080 hx        1 4L3      0.135700
     50 H16         4.5860   -2.8490   -7.9220 hn        1 4L3      0.475300
     51 H17         6.9120   -6.0320   -9.8890 hc        1 4L3      0.072811
     52 H18         8.3260   -5.3860   -8.9410 hc        1 4L3      0.072811
     53 H19         8.4980   -5.7270  -10.7140 hc        1 4L3      0.072811
     54 H20         5.7500   -4.5580  -11.5860 hc        1 4L3      0.072811
     55 H21         6.2870   -2.8350  -11.8000 hc        1 4L3      0.072811
     56 H22         7.3320   -4.1950  -12.4070 hc        1 4L3      0.072811
     57 H23         8.1540   -1.9140  -10.3530 hc        1 4L3      0.072811
     58 H24         9.0630   -3.0290   -9.2350 hc        1 4L3      0.072811
     59 H25         9.2470   -3.1940  -11.0320 hc        1 4L3      0.072811
     60 H26         3.4800   -1.5010   -5.9660 h1        1 4L3      0.053700
     61 H27         2.5520   -3.5210   -5.4570 ha        1 4L3      0.142000
     62 H28         2.4780   -5.6360   -4.1530 ha        1 4L3      0.156500
     63 H29         4.2550   -6.1350   -2.4700 ha        1 4L3      0.159000
     64 H30         6.1250   -4.5150   -2.1140 ha        1 4L3      0.156500
     65 H31         6.2220   -2.4080   -3.4340 ha        1 4L3      0.142000
     66 HBA2        5.0880   -3.7750   -6.6120 hn        1 4L3      0.475300
@<TRIPOS>BOND
     1    1    2 1   
     2    1   35 1   
     3    1   36 1   
     4    1   37 1   
     5    2    3 2   
     6    2   10 1   
     7    3    4 1   
     8    3   38 1   
     9    4    5 2   
    10    4    6 1   
    11    6    7 1   
    12    6    8 1   
    13    7   39 1   
    14    7   40 1   
    15    7   41 1   
    16    8    9 ar  
    17    8   10 ar  
    18    9   13 ar  
    19    9   42 1   
    20   10   11 ar  
    21   11   12 ar  
    22   11   43 1   
    23   12   13 ar  
    24   12   44 1   
    25   13   14 1   
    26   14   15 1   
    27   14   28 1   
    28   15   16 2   
    29   15   17 1   
    30   17   18 1   
    31   17   45 1   
    32   17   46 1   
    33   18   19 1   
    34   18   47 1   
    35   18   48 1   
    36   19   20 1   
    37   19   28 1   
    38   19   49 1   
    39   20   21 1   
    40   20   50 1   
    41   20   66 1   
    42   21   22 2   
    43   21   23 1   
    44   23   24 1   
    45   24   25 1   
    46   24   26 1   
    47   24   27 1   
    48   25   51 1   
    49   25   52 1   
    50   25   53 1   
    51   26   54 1   
    52   26   55 1   
    53   26   56 1   
    54   27   57 1   
    55   27   58 1   
    56   27   59 1   
    57   28   29 1   
    58   28   60 1   
    59   29   30 ar  
    60   29   34 ar  
    61   30   31 ar  
    62   30   61 1   
    63   31   32 ar  
    64   31   62 1   
    65   32   33 ar  
    66   32   63 1   
    67   33   34 ar  
    68   33   64 1   
    69   34   65 1   
@<TRIPOS>SUBSTRUCTURE
     1 4L3         1 TEMP              0 ****  ****    0 ROOT
