@<TRIPOS>MOLECULE
4L5
   44    45     1     0     0
SMALL
bcc


@<TRIPOS>ATOM
      1 C10        -0.6550   -0.1060    0.3840 ce        1 4L5     -0.009200
      2 C13        -6.5970   -1.3190    2.4570 c3        1 4L5     -0.090100
      3 C15         0.7510   -0.3010   -0.0850 c3        1 4L5     -0.027000
      4 C17         1.4450    0.5110    2.2140 ce        1 4L5     -0.416800
      5 C20         2.5400    0.6860    3.1250 ce        1 4L5      0.626900
      6 C01        -5.3030   -0.2660   -0.7570 cf        1 4L5      0.615200
      7 C02        -1.6820    1.8200   -4.3930 c1        1 4L5     -0.056500
      8 C03        -1.7740    0.6360   -4.2280 cg        1 4L5     -0.202200
      9 C04        -1.9020   -0.7520   -4.0860 ce        1 4L5      0.172100
     10 N05        -3.0250   -0.1740   -0.3060 ne        1 4L5     -0.192600
     11 N06        -3.9170   -0.5500   -1.0600 nf        1 4L5     -0.362300
     12 N07        -1.7380   -1.4160   -2.9510 nh        1 4L5     -0.018400
     13 C08        -1.2000   -0.9640   -1.7990 c1        1 4L5     -0.219900
     14 C09        -1.6520   -0.4470   -0.6450 ce        1 4L5      0.015500
     15 C12        -5.5190   -0.6090    1.6310 c3        1 4L5      0.120500
     16 C14        -5.0720    0.6450    2.3890 c3        1 4L5     -0.090100
     17 C16         1.7460    0.1120    0.9300 c2        1 4L5      0.293900
     18 C18         0.0380    0.6700    2.6640 c3        1 4L5      0.020000
     19 C19        -0.9570    0.3340    1.6170 c2        1 4L5     -0.172200
     20 O21         3.8260    0.5830    2.6520 os        1 4L5     -0.434400
     21 N22         2.4650    0.8680    4.4410 nh        1 4L5     -0.414100
     22 O23         3.0460    0.0020    0.5190 os        1 4L5     -0.313900
     23 H131       -7.4930   -0.6670    2.5880 hc        1 4L5      0.044033
     24 H132       -6.1760   -1.5600    3.4630 hc        1 4L5      0.044033
     25 H133       -6.9150   -2.2680    1.9650 hc        1 4L5      0.044033
     26 H151        0.9200   -1.3860   -0.3530 hc        1 4L5      0.133200
     27 H241        0.9230    0.2790   -1.0390 hc        1 4L5      0.133200
     28 H243        3.8930    1.8620    0.9920 h2        1 4L5      0.126700
     29 H242        5.0060    0.3270    1.0080 h2        1 4L5      0.126700
     30 H021       -5.8320   -0.0380   -1.7140 h5        1 4L5      0.057800
     31 H031       -2.1280   -1.3370   -5.0020 h4        1 4L5      0.054800
     32 H081       -1.8420   -2.4220   -2.9920 hn        1 4L5      0.308700
     33 H111       -1.6090    2.8680   -4.5520 ha        1 4L5      0.180500
     34 H121       -4.6270   -1.3090    1.5830 h1        1 4L5      0.032700
     35 H143       -4.2470    1.1680    1.8490 hc        1 4L5      0.044033
     36 H141       -4.7070    0.3430    3.3990 hc        1 4L5      0.044033
     37 H142       -5.9250    1.3540    2.5170 hc        1 4L5      0.044033
     38 H181       -0.1300    1.7340    2.9950 hc        1 4L5      0.064700
     39 H191       -2.0040    0.4760    1.9410 ha        1 4L5      0.171000
     40 H221        1.5730    0.8660    4.8930 hn        1 4L5      0.336200
     41 H222       -0.1520    0.0060    3.5550 hc        1 4L5      0.064700
     42 H223        3.2920    0.9360    5.0000 hn        1 4L5      0.336200
     43 N11        -6.0160   -0.3090    0.3040 n2        1 4L5     -0.570900
     44 C24         3.9970    0.7720    1.2410 c3        1 4L5      0.335200
@<TRIPOS>BOND
     1    1    3 1   
     2    1   14 1   
     3    1   19 2   
     4    2   15 1   
     5    2   23 1   
     6    2   24 1   
     7    2   25 1   
     8    3   17 1   
     9    3   26 1   
    10    3   27 1   
    11    4    5 1   
    12    4   17 2   
    13    4   18 1   
    14    5   20 1   
    15    5   21 2   
    16    6   11 1   
    17    6   30 1   
    18    6   43 2   
    19    7    8 3   
    20    7   33 1   
    21    8    9 1   
    22    9   12 2   
    23    9   31 1   
    24   10   11 2   
    25   10   14 1   
    26   12   13 2   
    27   12   32 1   
    28   13   14 2   
    29   15   16 1   
    30   15   34 1   
    31   15   43 1   
    32   16   35 1   
    33   16   36 1   
    34   16   37 1   
    35   17   22 1   
    36   18   19 1   
    37   18   38 1   
    38   18   41 1   
    39   19   39 1   
    40   20   44 1   
    41   21   40 1   
    42   21   42 1   
    43   22   44 1   
    44   28   44 1   
    45   29   44 1   
@<TRIPOS>SUBSTRUCTURE
     1 4L5         1 TEMP              0 ****  ****    0 ROOT
