@<TRIPOS>MOLECULE
4L5
   44    46     1     0     0
SMALL
bcc


@<TRIPOS>ATOM
      1 C10        -0.1570   -1.0490    0.3590 c3        1 4L5     -0.012100
      2 C13        -7.5680   -0.7830    0.9590 c3        1 4L5     -0.115100
      3 C15         1.2820   -1.0090   -0.0170 c2        1 4L5     -0.008200
      4 C17         1.8660    0.1030    2.1100 ce        1 4L5      0.067000
      5 C20         2.9090    0.5860    2.8450 c2        1 4L5     -0.030900
      6 C01        -4.4270    0.1350   -0.8340 ce        1 4L5      0.580600
      7 C02        -4.2550    0.6500   -2.2440 ce        1 4L5     -0.295700
      8 C03        -3.1120    1.1610   -2.6290 c1        1 4L5      0.076200
      9 C04        -1.8970    1.6220   -2.8370 c2        1 4L5     -0.173200
     10 N05        -2.2790   -0.2960   -0.8230 nf        1 4L5     -0.310600
     11 N06        -3.3690   -0.3900   -0.1170 ne        1 4L5     -0.436300
     12 N07        -0.6960    0.8530   -2.8330 nu        1 4L5     -0.155600
     13 C08        -0.2380   -0.0060   -1.9450 c1        1 4L5     -0.001900
     14 C09        -1.0040   -0.4530   -0.7420 cf        1 4L5      0.008300
     15 C12        -6.0860   -0.4030    0.9500 c3        1 4L5      0.043000
     16 C14        -5.8110    0.5540    2.1130 c3        1 4L5     -0.115100
     17 C16         2.2030   -0.4710    0.8130 ce        1 4L5     -0.006900
     18 C18         0.4770    0.0860    2.4940 ce        1 4L5     -0.226000
     19 C19        -0.4630   -0.4320    1.6770 c2        1 4L5     -0.025200
     20 O21         4.2180    0.5710    2.3750 os        1 4L5     -0.350900
     21 N22         2.8490    1.2100    4.1530 nz        1 4L5     -0.678400
     22 O23         3.5350   -0.3730    0.4060 os        1 4L5     -0.310900
     23 H131       -7.8010   -1.5170    0.1510 hc        1 4L5      0.050367
     24 H132       -7.8070   -1.2520    1.9440 hc        1 4L5      0.050367
     25 H133       -8.2170    0.1160    0.8290 hc        1 4L5      0.050367
     26 H151       -0.4460   -2.1500    0.4340 hc        1 4L5      0.121700
     27 H241        1.5550   -1.4120   -1.0090 ha        1 4L5      0.202000
     28 H243        4.3610   -1.4980    1.9920 h2        1 4L5      0.099200
     29 H242        5.4730   -0.3110    1.0300 h2        1 4L5      0.099200
     30 H021       -5.0780    0.4450   -2.9480 ha        1 4L5      0.170000
     31 H031       -1.7280    2.7060   -3.0100 h4        1 4L5      0.165000
     32 H081       -0.0710    1.0750   -3.5850 hn        1 4L5      0.305700
     33 H111       -6.3910    0.6360   -0.8530 hn        1 4L5      0.293700
     34 H121       -5.4820   -1.3460    1.1200 h1        1 4L5      0.081700
     35 H143       -6.4150    1.4880    2.0160 hc        1 4L5      0.050367
     36 H141       -4.7300    0.8260    2.1580 hc        1 4L5      0.050367
     37 H142       -6.0920    0.0460    3.0670 hc        1 4L5      0.050367
     38 H181        0.1940    0.5200    3.4650 ha        1 4L5      0.123000
     39 H191       -1.5290   -0.4280    1.9690 ha        1 4L5      0.170000
     40 H221        2.5870    2.1960    4.0420 hn        1 4L5      0.462800
     41 H222        2.1560    0.7320    4.7370 hn        1 4L5      0.462800
     42 H223        3.7790    1.1580    4.5900 hn        1 4L5      0.462800
     43 N11        -5.6950    0.1450   -0.3380 nu        1 4L5     -0.369100
     44 C24         4.4570   -0.5150    1.4660 c3        1 4L5      0.325200
@<TRIPOS>BOND
     1    1    3 1   
     2    1   14 1   
     3    1   19 1   
     4    1   26 1   
     5    2   15 1   
     6    2   23 1   
     7    2   24 1   
     8    2   25 1   
     9    3   17 2   
    10    3   27 1   
    11    4    5 2   
    12    4   17 1   
    13    4   18 1   
    14    5   20 1   
    15    5   21 1   
    16    6    7 1   
    17    6   11 1   
    18    6   43 2   
    19    7    8 2   
    20    7   30 1   
    21    8    9 2   
    22    9   12 1   
    23    9   31 1   
    24   10   11 2   
    25   10   14 1   
    26   12   13 2   
    27   12   32 1   
    28   13   14 2   
    29   15   16 1   
    30   15   34 1   
    31   15   43 1   
    32   16   35 1   
    33   16   36 1   
    34   16   37 1   
    35   17   22 1   
    36   18   19 2   
    37   18   38 1   
    38   19   39 1   
    39   20   44 1   
    40   21   40 1   
    41   21   41 1   
    42   21   42 1   
    43   22   44 1   
    44   28   44 1   
    45   29   44 1   
    46   33   43 1   
@<TRIPOS>SUBSTRUCTURE
     1 4L5         1 TEMP              0 ****  ****    0 ROOT
