@<TRIPOS>MOLECULE
4L6
   39    42     1     0     0
SMALL
bcc


@<TRIPOS>ATOM
      1 C1          0.1570   -1.2200    0.0780 c3        1 4L6     -0.053800
      2 C2          1.5030   -0.5990    0.0510 ca        1 4L6     -0.088300
      3 C3          2.2640   -0.5680    1.2190 ca        1 4L6     -0.056000
      4 C4          3.5220    0.0200    1.1930 ca        1 4L6     -0.193900
      5 C5          4.5950    0.2560    2.1530 cc        1 4L6      0.350800
      6 N6          5.6140    0.8980    1.5540 nd        1 4L6     -0.490100
      7 N7          5.2780    1.1500    0.2800 na        1 4L6     -0.017100
      8 C9          4.0230    0.5990   -0.0340 ca        1 4L6     -0.060200
      9 C10         3.2580    0.5780   -1.2040 ca        1 4L6     -0.105000
     10 C11         2.0050   -0.0290   -1.1470 cp        1 4L6     -0.043000
     11 C12         1.2010   -0.0800   -2.3750 cp        1 4L6     -0.030300
     12 C13         1.0630   -1.2820   -3.0700 ca        1 4L6     -0.073000
     13 C14         0.3140   -1.3490   -4.2480 ca        1 4L6     -0.102000
     14 C15        -0.3150   -0.2200   -4.7520 ca        1 4L6     -0.097000
     15 C16        -0.2040    1.0100   -4.0820 ca        1 4L6     -0.191300
     16 C17        -0.8490    2.2400   -4.5550 ca        1 4L6      0.284300
     17 N18        -1.5910    2.2540   -5.6740 nv        1 4L6     -0.793200
     18 C19        -0.6350    3.4080   -3.7490 ca        1 4L6      0.038800
     19 N20         0.1650    3.3440   -2.5820 nb        1 4L6     -0.287000
     20 N21         0.7040    2.3190   -2.1880 nb        1 4L6     -0.242000
     21 C22         0.5670    1.0830   -2.8840 ca        1 4L6      0.356600
     22 C23        -1.2170    4.6760   -4.0900 c         1 4L6      0.492600
     23 N24        -0.9280    5.8360   -3.1520 nz        1 4L6     -0.736400
     24 O25        -1.9330    4.9970   -5.0410 o         1 4L6     -0.513100
     25 H1         -0.0280   -1.7440    1.0490 hc        1 4L6      0.046033
     26 H1A         0.0500   -1.9660   -0.7480 hc        1 4L6      0.046033
     27 H1B        -0.6330   -0.4370   -0.0510 hc        1 4L6      0.046033
     28 H3          1.8730   -1.0040    2.1520 ha        1 4L6      0.151000
     29 H5          4.6150   -0.0270    3.2070 h4        1 4L6      0.065800
     30 H10         3.6320    1.0250   -2.1360 ha        1 4L6      0.140000
     31 H13         1.5560   -2.1910   -2.6810 ha        1 4L6      0.173000
     32 H14         0.2240   -2.3110   -4.7810 ha        1 4L6      0.165000
     33 H15        -0.8960   -0.3230   -5.6820 ha        1 4L6      0.141000
     34 HN18       -2.0320    3.0890   -5.9970 hn        1 4L6      0.471300
     35 HN1A       -1.7210    1.4260   -6.2100 hn        1 4L6      0.471300
     36 HN24        0.0830    5.9970   -3.1020 hn        1 4L6      0.469467
     37 HN2A       -1.2680    5.6120   -2.2110 hn        1 4L6      0.469467
     38 H7          5.9790    1.4150   -0.3720 hn        1 4L6      0.324700
     39 H243       -1.3960    6.6810   -3.4960 hn        1 4L6      0.469467
@<TRIPOS>BOND
     1    1    2 1   
     2    1   25 1   
     3    1   26 1   
     4    1   27 1   
     5    2    3 ar  
     6    2   10 ar  
     7    3    4 ar  
     8    3   28 1   
     9    4    5 1   
    10    4    8 ar  
    11    5    6 2   
    12    5   29 1   
    13    6    7 1   
    14    7    8 1   
    15    7   38 1   
    16    8    9 ar  
    17    9   10 ar  
    18    9   30 1   
    19   10   11 1   
    20   11   12 ar  
    21   11   21 ar  
    22   12   13 ar  
    23   12   31 1   
    24   13   14 ar  
    25   13   32 1   
    26   14   15 ar  
    27   14   33 1   
    28   15   16 ar  
    29   15   21 ar  
    30   16   17 1   
    31   16   18 ar  
    32   17   34 1   
    33   17   35 1   
    34   18   19 ar  
    35   18   22 1   
    36   19   20 ar  
    37   20   21 ar  
    38   22   23 1   
    39   22   24 2   
    40   23   36 1   
    41   23   37 1   
    42   23   39 1   
@<TRIPOS>SUBSTRUCTURE
     1 4L6         1 TEMP              0 ****  ****    0 ROOT
