@<TRIPOS>MOLECULE
4L6
   39    42     1     0     0
SMALL
bcc


@<TRIPOS>ATOM
      1 C1          0.1530   -1.2180    0.0780 c3        1 4L6     -0.053800
      2 C2          1.5010   -0.6000    0.0490 ca        1 4L6     -0.088300
      3 C3          2.2640   -0.5720    1.2150 ca        1 4L6     -0.056000
      4 C4          3.5230    0.0140    1.1870 ca        1 4L6     -0.193900
      5 C5          4.5990    0.2470    2.1450 cc        1 4L6      0.350800
      6 N6          5.6180    0.8880    1.5440 nd        1 4L6     -0.490100
      7 N7          5.2790    1.1410    0.2710 na        1 4L6     -0.017100
      8 C9          4.0230    0.5920   -0.0410 ca        1 4L6     -0.060200
      9 C10         3.2560    0.5740   -1.2100 ca        1 4L6     -0.105000
     10 C11         2.0020   -0.0310   -1.1510 cp        1 4L6     -0.043000
     11 C12         1.1950   -0.0790   -2.3770 cp        1 4L6     -0.030300
     12 C13         1.0530   -1.2810   -3.0710 ca        1 4L6     -0.073000
     13 C14         0.3010   -1.3460   -4.2490 ca        1 4L6     -0.102000
     14 C15        -0.3270   -0.2160   -4.7510 ca        1 4L6     -0.097000
     15 C16        -0.2110    1.0140   -4.0810 ca        1 4L6     -0.191300
     16 C17        -0.8540    2.2460   -4.5520 ca        1 4L6      0.284300
     17 N18        -1.5980    2.2610   -5.6700 nh        1 4L6     -0.793200
     18 C19        -0.6350    3.4130   -3.7460 ca        1 4L6      0.038800
     19 N20         0.1660    3.3470   -2.5810 nb        1 4L6     -0.287000
     20 N21         0.7040    2.3210   -2.1880 nb        1 4L6     -0.242000
     21 C22         0.5630    1.0850   -2.8840 ca        1 4L6      0.356600
     22 C23        -1.2160    4.6830   -4.0860 c         1 4L6      0.492600
     23 N24        -0.9220    5.8410   -3.1480 n4        1 4L6     -0.736400
     24 O25        -1.9330    5.0050   -5.0350 o         1 4L6     -0.513100
     25 H1          0.0440   -1.9660   -0.7470 hc        1 4L6      0.046033
     26 H1A        -0.0320   -1.7400    1.0490 hc        1 4L6      0.046033
     27 H1B        -0.6350   -0.4340   -0.0530 hc        1 4L6      0.046033
     28 H3          1.8740   -1.0070    2.1480 ha        1 4L6      0.151000
     29 H5          4.6200   -0.0360    3.1990 h4        1 4L6      0.065800
     30 H10         3.6280    1.0200   -2.1420 ha        1 4L6      0.140000
     31 H13         1.5450   -2.1910   -2.6840 ha        1 4L6      0.173000
     32 H14         0.2080   -2.3080   -4.7810 ha        1 4L6      0.165000
     33 H15        -0.9090   -0.3170   -5.6790 ha        1 4L6      0.141000
     34 HN18       -1.7320    1.4340   -6.2060 hn        1 4L6      0.471300
     35 HN1A       -2.0380    3.0980   -5.9920 hn        1 4L6      0.471300
     36 HN24       -1.3890    6.6880   -3.4910 hn        1 4L6      0.469467
     37 HN2A       -1.2600    5.6180   -2.2070 hn        1 4L6      0.469467
     38 H7          5.9800    1.4050   -0.3820 hn        1 4L6      0.324700
     39 H243        0.0890    6.0000   -3.0990 hn        1 4L6      0.469467
@<TRIPOS>BOND
     1    1    2 1   
     2    1   25 1   
     3    1   26 1   
     4    1   27 1   
     5    2    3 ar  
     6    2   10 ar  
     7    3    4 ar  
     8    3   28 1   
     9    4    5 1   
    10    4    8 ar  
    11    5    6 2   
    12    5   29 1   
    13    6    7 1   
    14    7    8 1   
    15    7   38 1   
    16    8    9 ar  
    17    9   10 ar  
    18    9   30 1   
    19   10   11 1   
    20   11   12 ar  
    21   11   21 ar  
    22   12   13 ar  
    23   12   31 1   
    24   13   14 ar  
    25   13   32 1   
    26   14   15 ar  
    27   14   33 1   
    28   15   16 ar  
    29   15   21 ar  
    30   16   17 1   
    31   16   18 ar  
    32   17   34 1   
    33   17   35 1   
    34   18   19 ar  
    35   18   22 1   
    36   19   20 ar  
    37   20   21 ar  
    38   22   23 1   
    39   22   24 2   
    40   23   36 1   
    41   23   37 1   
    42   23   39 1   
@<TRIPOS>SUBSTRUCTURE
     1 4L6         1 TEMP              0 ****  ****    0 ROOT
