@<TRIPOS>MOLECULE
4L7
   38    36     1     0     0
SMALL
bcc


@<TRIPOS>ATOM
      1 C4         -0.4170   -1.1400    0.2590 c2        1 4L7      0.322000
      2 C5          1.0390   -1.2120   -0.1590 c3        1 4L7     -0.183000
      3 C6          3.4320    2.5040    0.4280 c1        1 4L7     -0.151000
      4 C7          1.2260   -3.6040   -0.9610 c3        1 4L7     -0.191000
      5 C1         -2.6910    2.6270    0.3060 c1        1 4L7     -0.103000
      6 C2         -3.8170    2.6260    0.7180 c1        1 4L7     -0.192000
      7 C3         -1.0460    0.1680    0.2370 c2        1 4L7     -0.938000
      8 C          -1.3880    2.6350   -0.1730 c2        1 4L7     -0.745000
      9 O          -1.0180   -2.1580    0.6280 o         1 4L7     -0.306000
     10 N           2.3040    2.2330    0.4770 n1        1 4L7     -0.151000
     11 C15         5.3520   -0.2200   -3.9990 c2        1 4L7      0.317000
     12 N1          5.4650   -0.3350   -5.4050 ns        1 4L7     -0.305000
     13 C16         4.4400   -0.7360   -6.2080 c1        1 4L7      0.037000
     14 N2          3.2350   -1.0440   -5.6400 n7        1 4L7     -0.249000
     15 C11         3.0160   -0.9740   -4.2570 c2        1 4L7      0.097000
     16 C10         1.6890   -1.3080   -3.7290 c2        1 4L7     -0.115000
     17 C12         4.0440   -0.5750   -3.4410 c2        1 4L7     -0.280000
     18 C13         6.4410    2.4730   -0.3660 c1        1 4L7      0.095000
     19 C14         7.5140    2.1090   -0.9950 c2        1 4L7     -0.515000
     20 C9          1.4880   -1.7230   -2.5080 c1        1 4L7     -0.140000
     21 C8          1.2600   -2.1570   -1.2950 c2        1 4L7     -0.008000
     22 S          -0.3960    1.4560   -0.2540 ss        1 4L7      1.438000
     23 H2          1.4220   -0.1910   -0.4280 hc        1 4L7      0.113500
     24 H4          4.4900    2.7400    0.3660 ha        1 4L7      0.290000
     25 H3          1.6290   -1.5730    0.7280 hc        1 4L7      0.113500
     26 H6          0.2860   -3.8300   -0.3930 hc        1 4L7      0.102333
     27 H7          2.1020   -3.8610   -0.3150 hc        1 4L7      0.102333
     28 H1         -4.8110    2.6190    1.0840 ha        1 4L7      0.227000
     29 H5          1.2600   -4.2390   -1.8790 hc        1 4L7      0.102333
     30 H12         6.3350   -0.1130   -5.8380 hn        1 4L7      0.266000
     31 H13         2.4990   -1.3400   -6.2390 hn        1 4L7      0.265000
     32 H9          0.8340   -1.1810   -4.4200 ha        1 4L7      0.152000
     33 H10         3.9290   -0.5070   -2.3520 ha        1 4L7      0.171000
     34 H11         7.4630    1.3930   -1.8450 ha        1 4L7      0.217000
     35 H8          8.5410    2.4410   -0.7830 ha        1 4L7      0.217000
     36 H          -2.0830    0.1050    0.6290 h4        1 4L7      0.203000
     37 Br         -0.7850    4.3000   -0.7850 br        1 4L7      0.102000
     38 O1          6.3240    0.1690   -3.3220 o         1 4L7     -0.379000
@<TRIPOS>BOND
     1    1    2 1   
     2    1    7 1   
     3    1    9 1   
     4    2   21 1   
     5    2   23 1   
     6    2   25 1   
     7    3   10 1   
     8    3   24 1   
     9    4   21 1   
    10    4   26 1   
    11    4   27 1   
    12    4   29 1   
    13    5    6 1   
    14    5    8 1   
    15    6   28 1   
    16    7   22 1   
    17    7   36 1   
    18    8   22 1   
    19    8   37 1   
    20   11   12 1   
    21   11   17 1   
    22   11   38 1   
    23   12   13 1   
    24   12   30 1   
    25   13   14 1   
    26   14   15 1   
    27   14   31 1   
    28   15   16 1   
    29   15   17 1   
    30   16   20 1   
    31   16   32 1   
    32   17   33 1   
    33   18   19 1   
    34   19   34 1   
    35   19   35 1   
    36   20   21 1   
@<TRIPOS>SUBSTRUCTURE
     1 4L7         1 TEMP              0 ****  ****    0 ROOT
