@<TRIPOS>MOLECULE
4L7
   38    41     1     0     0
SMALL
bcc


@<TRIPOS>ATOM
      1 C4         -0.0510   -0.1230    0.0010 c         1 4L7      0.618700
      2 C5          1.4430   -0.1720    0.2050 c3        1 4L7     -0.189700
      3 C6          1.7850   -0.3340    1.7100 c3        1 4L7      0.153800
      4 C7          2.9520   -2.0640    0.6310 c3        1 4L7      0.146800
      5 C1         -2.2560    2.7930   -0.7050 cc        1 4L7     -0.135000
      6 C2         -1.9840    1.4320   -0.3980 cc        1 4L7     -0.087000
      7 C3         -0.6180    1.1890   -0.3010 cd        1 4L7     -0.225700
      8 C          -1.0860    3.5300   -0.8340 cd        1 4L7     -0.086000
      9 O          -0.7570   -1.1340    0.0950 o         1 4L7     -0.518100
     10 N           2.9100   -1.2500    1.8410 n3        1 4L7     -0.784200
     11 C15         5.2440    0.0890   -5.0720 c         1 4L7      0.705100
     12 N1          4.8020   -0.4240   -6.3050 n         1 4L7     -0.499400
     13 C16         3.6720   -1.2320   -6.3560 cc        1 4L7      0.491800
     14 N2          2.9290   -1.5910   -5.3370 nd        1 4L7     -0.615100
     15 C11         3.3010   -1.1210   -4.0660 ca        1 4L7      0.180400
     16 C10         2.5390   -1.4740   -2.9270 ca        1 4L7     -0.114000
     17 C12         4.4390   -0.2890   -3.8940 ca        1 4L7     -0.189600
     18 C13         4.7980    0.1680   -2.6200 ca        1 4L7     -0.057000
     19 C14         4.0390   -0.1900   -1.5180 ca        1 4L7     -0.156000
     20 C9          2.9050   -1.0110   -1.6670 ca        1 4L7     -0.044300
     21 C8          2.0930   -1.3930   -0.4760 c3        1 4L7     -0.047400
     22 S           0.2630    2.5800   -0.5860 ss        1 4L7      0.126200
     23 H2          1.9130    0.7730   -0.1840 hc        1 4L7      0.064700
     24 H4          0.9090   -0.7950    2.2460 h1        1 4L7      0.063700
     25 H3          2.0050    0.6610    2.1780 h1        1 4L7      0.063700
     26 H6          2.5070   -3.0650    0.8820 h1        1 4L7      0.062200
     27 H7          4.0060   -2.2260    0.2810 h1        1 4L7      0.062200
     28 H1         -2.7530    0.6680   -0.2550 ha        1 4L7      0.177000
     29 H5          3.7660   -0.7340    1.9400 hn        1 4L7      0.346800
     30 H12         5.3060   -0.2030   -7.1330 hn        1 4L7      0.340500
     31 H13         3.3810   -1.6020   -7.3640 h5        1 4L7      0.054800
     32 H9          1.6530   -2.1190   -3.0470 ha        1 4L7      0.160000
     33 H10         5.6880    0.8110   -2.5140 ha        1 4L7      0.160000
     34 H11         4.3210    0.1640   -0.5150 ha        1 4L7      0.136000
     35 H8          1.2870   -2.1160   -0.7840 hc        1 4L7      0.092700
     36 H          -3.2670    3.1920   -0.8230 ha        1 4L7      0.170000
     37 BR         -0.9780    5.3160   -1.2260 br        1 4L7     -0.011100
     38 O1          6.2570    0.8110   -5.0450 o         1 4L7     -0.619500
@<TRIPOS>BOND
     1    1    2 1   
     2    1    7 1   
     3    1    9 2   
     4    2    3 1   
     5    2   21 1   
     6    2   23 1   
     7    3   10 1   
     8    3   24 1   
     9    3   25 1   
    10    4   10 1   
    11    4   21 1   
    12    4   26 1   
    13    4   27 1   
    14    5    6 1   
    15    5    8 2   
    16    5   36 1   
    17    6    7 2   
    18    6   28 1   
    19    7   22 1   
    20    8   22 1   
    21    8   37 1   
    22   10   29 1   
    23   11   12 1   
    24   11   17 1   
    25   11   38 2   
    26   12   13 1   
    27   12   30 1   
    28   13   14 2   
    29   13   31 1   
    30   14   15 1   
    31   15   16 ar  
    32   15   17 ar  
    33   16   20 ar  
    34   16   32 1   
    35   17   18 ar  
    36   18   19 ar  
    37   18   33 1   
    38   19   20 ar  
    39   19   34 1   
    40   20   21 1   
    41   21   35 1   
@<TRIPOS>SUBSTRUCTURE
     1 4L7         1 TEMP              0 ****  ****    0 ROOT
