@<TRIPOS>MOLECULE
4LC
   62    67     1     0     0
SMALL
bcc


@<TRIPOS>ATOM
      1 C13         0.4370    0.2810   -0.1310 ca        1 4LC     -0.008000
      2 C17        -0.1610    0.4650   -1.4340 c2        1 4LC     -0.019000
      3 C20         1.4020    1.9150   -2.6800 c3        1 4LC     -0.090000
      4 C01        -1.7030    0.0300    3.8680 c3        1 4LC     -0.075000
      5 N05        -0.3190    0.0170    3.5360 na        1 4LC     -0.189000
      6 C06         0.7900   -0.2150    4.3990 c2        1 4LC      0.109000
      7 N07         1.9650   -0.2870    3.7250 n2        1 4LC     -0.142000
      8 C08         1.6400   -0.1120    2.3710 ca        1 4LC     -0.057000
      9 C09         2.4400   -0.1030    1.2180 ca        1 4LC     -0.076000
     10 C11         1.8340    0.0860   -0.0110 ca        1 4LC     -0.135000
     11 C14        -0.3940    0.2780    0.9940 ca        1 4LC     -0.117000
     12 C16         0.2060    0.0770    2.2370 ca        1 4LC     -0.029000
     13 O18        -1.4710    0.1450   -1.5970 os        1 4LC      0.020000
     14 N19         0.4150    0.8590   -2.6540 n3        1 4LC     -0.193000
     15 C23         0.9030    3.2500   -3.2420 c3        1 4LC     -0.047000
     16 O26         0.2030    3.0650   -4.4640 os        1 4LC     -0.260000
     17 C27        -0.9930    2.2950   -4.2870 c3        1 4LC      0.039000
     18 C29        -0.6850    0.9090   -3.6590 c3        1 4LC      0.039000
     19 C31        -1.8510    0.4060   -2.8780 c2        1 4LC     -0.403000
     20 O34        -3.4660   -0.3340    0.1850 oh        1 4LC     -0.401000
     21 C36        -1.6240    2.1310   -5.6350 ca        1 4LC     -0.074000
     22 C37        -0.8390    1.9310   -6.7750 ca        1 4LC     -0.110000
     23 C39        -1.4450    1.7700   -8.0210 ca        1 4LC     -0.133000
     24 C41        -2.8340    1.8030   -8.1330 ca        1 4LC     -0.124000
     25 C43        -3.6200    2.0040   -6.9980 ca        1 4LC     -0.133000
     26 C45        -3.0180    2.1710   -5.7520 ca        1 4LC     -0.110000
     27 C47         0.6520   -0.3460    5.8300 c2        1 4LC     -0.112000
     28 C48        -0.3390    0.2240    6.6400 c2        1 4LC     -0.041000
     29 N50        -0.1250   -0.1200    7.9690 na        1 4LC     -0.203000
     30 C52         1.0270   -0.9130    8.0430 ca        1 4LC     -0.019000
     31 C53         1.6540   -1.5020    9.1490 ca        1 4LC     -0.103000
     32 C55         2.8040   -2.2520    8.9090 ca        1 4LC      0.003000
     33 C56         3.3220   -2.4170    7.6040 ca        1 4LC     -0.121000
     34 C58         2.7040   -1.8370    6.5070 ca        1 4LC     -0.072000
     35 C60         1.5480   -1.0780    6.7040 ca        1 4LC     -0.026000
     36 C61         3.4750   -2.8680   10.0020 c1        1 4LC     -0.095000
     37 N62         4.0250   -3.3720   10.8950 n1        1 4LC     -0.040000
     38 H2          2.2360    1.5370   -3.3410 h1        1 4LC      0.110000
     39 H3         -2.0100    1.0580    4.2080 h1        1 4LC      0.096333
     40 H4         -2.3130   -0.2460    2.9640 h1        1 4LC      0.096333
     41 H5         -1.9070   -0.7040    4.6930 h1        1 4LC      0.096333
     42 H6          3.5270   -0.2520    1.2980 ha        1 4LC      0.152000
     43 H7          2.4510    0.0630   -0.9240 ha        1 4LC      0.144000
     44 H8         -1.4820    0.4210    0.8970 ha        1 4LC      0.164000
     45 H9          0.2500    3.7810   -2.5000 h1        1 4LC      0.098000
     46 H10         1.7750    3.9010   -3.5180 h1        1 4LC      0.098000
     47 H11        -1.6820    2.8680   -3.6000 h1        1 4LC      0.092000
     48 H12        -0.3720    0.2060   -4.4860 h1        1 4LC      0.122000
     49 H13        -3.5050    0.3170   -0.5230 ho        1 4LC      0.201000
     50 H14        -2.8920    0.2740   -3.1210 h4        1 4LC      0.202000
     51 H15        -2.9470   -1.0490   -0.1990 ho        1 4LC      0.201000
     52 H16         0.2580    1.9160   -6.6800 ha        1 4LC      0.138000
     53 H17        -0.8230    1.6160   -8.9150 ha        1 4LC      0.132000
     54 H18        -3.3110    1.6730   -9.1160 ha        1 4LC      0.131000
     55 H19        -4.7150    2.0340   -7.0860 ha        1 4LC      0.132000
     56 H20        -3.6400    2.3340   -4.8590 ha        1 4LC      0.138000
     57 H21        -1.1790    0.8640    6.3570 h4        1 4LC      0.174000
     58 H22        -0.6620    0.1800    8.7390 hn        1 4LC      0.258000
     59 H23         1.2570   -1.3770   10.1660 ha        1 4LC      0.146000
     60 H24         4.2340   -3.0170    7.4650 ha        1 4LC      0.147000
     61 H25         3.1180   -1.9660    5.4950 ha        1 4LC      0.168000
     62 H1          1.8170    2.0900   -1.6480 h1        1 4LC      0.110000
@<TRIPOS>BOND
     1    1    2 1   
     2    1   10 1   
     3    1   11 1   
     4    2   13 1   
     5    2   14 1   
     6    3   14 1   
     7    3   15 1   
     8    3   38 1   
     9    3   62 1   
    10    4    5 1   
    11    4   39 1   
    12    4   40 1   
    13    4   41 1   
    14    5    6 1   
    15    5   12 1   
    16    6    7 1   
    17    6   27 1   
    18    7    8 1   
    19    8    9 1   
    20    8   12 1   
    21    9   10 1   
    22    9   42 1   
    23   10   43 1   
    24   11   12 1   
    25   11   44 1   
    26   13   19 1   
    27   14   18 1   
    28   15   16 1   
    29   15   45 1   
    30   15   46 1   
    31   16   17 1   
    32   17   18 1   
    33   17   21 1   
    34   17   47 1   
    35   18   19 1   
    36   18   48 1   
    37   19   50 1   
    38   20   49 1   
    39   20   51 1   
    40   21   22 1   
    41   21   26 1   
    42   22   23 1   
    43   22   52 1   
    44   23   24 1   
    45   23   53 1   
    46   24   25 1   
    47   24   54 1   
    48   25   26 1   
    49   25   55 1   
    50   26   56 1   
    51   27   28 1   
    52   27   35 1   
    53   28   29 1   
    54   28   57 1   
    55   29   30 1   
    56   29   58 1   
    57   30   31 1   
    58   30   35 1   
    59   31   32 1   
    60   31   59 1   
    61   32   33 1   
    62   32   36 1   
    63   33   34 1   
    64   33   60 1   
    65   34   35 1   
    66   34   61 1   
    67   36   37 1   
@<TRIPOS>SUBSTRUCTURE
     1 4LC         1 TEMP              0 ****  ****    0 ROOT
