@<TRIPOS>MOLECULE
4LF
   33    34     1     0     0
SMALL
bcc


@<TRIPOS>ATOM
      1 N3          0.0650    0.0930    0.4100 n4        1 4LF     -0.659800
      2 C4          5.3110   -0.2260   -2.3350 cc        1 4LF     -0.150200
      3 C8          2.3200    0.8630   -0.3850 c3        1 4LF      0.105000
      4 C5          5.8960    0.1170   -1.1670 cd        1 4LF     -0.150200
      5 C6          4.8300    0.5630   -0.1930 c         1 4LF      0.692700
      6 O3          4.9360    0.9500    0.9680 o         1 4LF     -0.541500
      7 C7          3.8180   -0.0340   -2.2120 c         1 4LF      0.692700
      8 O2          2.9260   -0.2470   -3.0310 o         1 4LF     -0.541500
      9 N2          3.5830    0.4520   -0.8890 n         1 4LF     -0.562400
     10 C9          1.4200   -0.3450   -0.0110 c3        1 4LF      0.068800
     11 C10        -0.8480   -1.0490    0.8080 c         1 4LF      0.582700
     12 O4         -0.3160   -2.1480    0.9000 o         1 4LF     -0.429100
     13 C11        -2.2590   -0.7320    1.0240 ca        1 4LF     -0.209600
     14 C12        -3.1260   -1.8440    1.1240 ca        1 4LF     -0.052000
     15 C13        -4.4850   -1.6710    1.3430 ca        1 4LF     -0.117000
     16 C14        -5.0270   -0.3890    1.4760 ca        1 4LF     -0.098000
     17 C15        -4.1860    0.7210    1.3860 ca        1 4LF      0.057100
     18 O6         -4.6070    2.0250    1.5000 oh        1 4LF     -0.508100
     19 C16        -2.7970    0.5620    1.1590 ca        1 4LF      0.157100
     20 O5         -1.9660    1.6510    1.0690 oh        1 4LF     -0.553100
     21 H1          0.1330    0.7370    1.2120 hn        1 4LF      0.467300
     22 H2          5.7510   -0.5910   -3.2650 ha        1 4LF      0.200500
     23 H4          2.4910    1.5010    0.5310 h1        1 4LF      0.080200
     24 H5          1.7950    1.4740   -1.1770 h1        1 4LF      0.080200
     25 H6          6.9480    0.1130   -0.8740 ha        1 4LF      0.200500
     26 H8          1.3060   -1.0340   -0.8980 hx        1 4LF      0.122700
     27 H9          1.8790   -0.9330    0.8360 hx        1 4LF      0.122700
     28 H10        -2.7050   -2.8600    1.0280 ha        1 4LF      0.177000
     29 H11        -5.1460   -2.5510    1.4160 ha        1 4LF      0.176000
     30 H12        -6.1070   -0.2550    1.6520 ha        1 4LF      0.171000
     31 H13        -5.5580    2.0270    1.6940 ho        1 4LF      0.459000
     32 H14        -2.4800    2.4610    1.2440 ho        1 4LF      0.490000
     33 H32        -0.3900    0.6160   -0.3520 hn        1 4LF      0.467300
@<TRIPOS>BOND
     1    1   10 1   
     2    1   11 1   
     3    1   21 1   
     4    1   33 1   
     5    2    4 2   
     6    2    7 1   
     7    2   22 1   
     8    3    9 1   
     9    3   10 1   
    10    3   23 1   
    11    3   24 1   
    12    4    5 1   
    13    4   25 1   
    14    5    6 2   
    15    5    9 1   
    16    7    8 2   
    17    7    9 1   
    18   10   26 1   
    19   10   27 1   
    20   11   12 2   
    21   11   13 1   
    22   13   14 ar  
    23   13   19 ar  
    24   14   15 ar  
    25   14   28 1   
    26   15   16 ar  
    27   15   29 1   
    28   16   17 ar  
    29   16   30 1   
    30   17   18 1   
    31   17   19 ar  
    32   18   31 1   
    33   19   20 1   
    34   20   32 1   
@<TRIPOS>SUBSTRUCTURE
     1 4LF         1 TEMP              0 ****  ****    0 ROOT
