@<TRIPOS>MOLECULE
4LF
   33    34     1     0     0
SMALL
bcc


@<TRIPOS>ATOM
      1 N3          0.0680    0.0880    0.4120 ny        1 4LF     -0.659800
      2 C4          5.2900   -0.1460   -2.3850 cc        1 4LF     -0.150200
      3 C8          2.3120    0.8860   -0.3860 c3        1 4LF      0.105000
      4 C5          5.8840    0.1780   -1.2160 cd        1 4LF     -0.150200
      5 C6          4.8250    0.5980   -0.2240 c         1 4LF      0.692700
      6 O3          4.9400    0.9620    0.9440 o         1 4LF     -0.541500
      7 C7          3.7980    0.0340   -2.2440 c         1 4LF      0.692700
      8 O2          2.8980   -0.1680   -3.0580 o         1 4LF     -0.541500
      9 N2          3.5730    0.4930   -0.9100 n         1 4LF     -0.562400
     10 C9          1.4220   -0.3340   -0.0280 c3        1 4LF      0.068800
     11 C10        -0.8350   -1.0670    0.7960 c         1 4LF      0.582700
     12 O4         -0.2960   -2.1650    0.8620 o         1 4LF     -0.429100
     13 C11        -2.2450   -0.7630    1.0300 ca        1 4LF     -0.209600
     14 C12        -3.1060   -1.8810    1.1140 ca        1 4LF     -0.052000
     15 C13        -4.4640   -1.7210    1.3480 ca        1 4LF     -0.117000
     16 C14        -5.0110   -0.4460    1.5120 ca        1 4LF     -0.098000
     17 C15        -4.1770    0.6700    1.4380 ca        1 4LF      0.057100
     18 O6         -4.6050    1.9700    1.5840 oh        1 4LF     -0.508100
     19 C16        -2.7900    0.5240    1.1970 ca        1 4LF      0.157100
     20 O5         -1.9660    1.6190    1.1230 oh        1 4LF     -0.553100
     21 H1         -0.3960    0.6230   -0.3340 hn        1 4LF      0.467300
     22 H2          5.7240   -0.4890   -3.3260 ha        1 4LF      0.200500
     23 H4          2.4880    1.5060    0.5410 h1        1 4LF      0.080200
     24 H5          1.7760    1.5110   -1.1600 h1        1 4LF      0.080200
     25 H6          6.9390    0.1740   -0.9330 ha        1 4LF      0.200500
     26 H8          1.3040   -1.0050   -0.9290 hx        1 4LF      0.122700
     27 H9          1.8910   -0.9360    0.8020 hx        1 4LF      0.122700
     28 H10        -2.6800   -2.8940    0.9930 ha        1 4LF      0.177000
     29 H11        -5.1190   -2.6070    1.4070 ha        1 4LF      0.176000
     30 H12        -6.0910   -0.3210    1.7000 ha        1 4LF      0.171000
     31 H13        -5.5540    1.9630    1.7860 ho        1 4LF      0.459000
     32 H14        -2.4820    2.4230    1.3190 ho        1 4LF      0.490000
     33 H32         0.1400    0.7150    1.2270 hn        1 4LF      0.467300
@<TRIPOS>BOND
     1    1   10 1   
     2    1   11 1   
     3    1   21 1   
     4    1   33 1   
     5    2    4 2   
     6    2    7 1   
     7    2   22 1   
     8    3    9 1   
     9    3   10 1   
    10    3   23 1   
    11    3   24 1   
    12    4    5 1   
    13    4   25 1   
    14    5    6 2   
    15    5    9 1   
    16    7    8 2   
    17    7    9 1   
    18   10   26 1   
    19   10   27 1   
    20   11   12 2   
    21   11   13 1   
    22   13   14 ar  
    23   13   19 ar  
    24   14   15 ar  
    25   14   28 1   
    26   15   16 ar  
    27   15   29 1   
    28   16   17 ar  
    29   16   30 1   
    30   17   18 1   
    31   17   19 ar  
    32   18   31 1   
    33   19   20 1   
    34   20   32 1   
@<TRIPOS>SUBSTRUCTURE
     1 4LF         1 TEMP              0 ****  ****    0 ROOT
