@<TRIPOS>MOLECULE
4LG
   80    71     1     0     0
SMALL
bcc


@<TRIPOS>ATOM
      1 C1         -2.3930   -4.2850   -5.7820 c3        1 4LG     -0.076000
      2 O1         -2.4560   -2.9040   -5.5040 os        1 4LG     -0.219000
      3 C2         -3.7590   -2.3910   -5.4450 c2        1 4LG      0.087000
      4 C3         -4.0820   -1.2070   -6.1320 c1        1 4LG     -0.141000
      5 C4         -2.9930   -0.4540   -6.9510 c2        1 4LG      0.024000
      6 O2         -2.0260    0.0870   -6.0630 os        1 4LG     -0.280000
      7 C5         -4.7280   -3.0360   -4.6780 c2        1 4LG     -0.205000
      8 C6         -5.9910   -2.5190   -4.5940 c1        1 4LG     -0.088000
      9 C7         -6.3130   -1.3420   -5.2780 c1        1 4LG     -0.167000
     10 C8         -5.3450   -0.6930   -6.0470 c2        1 4LG     -0.080000
     11 C9          0.5400    1.0170    4.3000 c1        1 4LG      0.095000
     12 C10         1.5690    1.9520    4.0950 c1        1 4LG     -0.113000
     13 C11         1.3460    3.3170    4.3640 c1        1 4LG     -0.034500
     14 C12         0.1230    3.7310    4.8250 c1        1 4LG     -0.034500
     15 C13        -0.9180    2.7810    5.0320 c1        1 4LG     -0.113000
     16 C14        -0.6930    1.4350    4.7650 c1        1 4LG     -0.215000
     17 N1          2.1780    4.4490    4.2530 n1        1 4LG     -0.181000
     18 C15         1.4650    5.5330    4.6420 c1        1 4LG     -0.069000
     19 C16         0.1780    5.1000    5.0030 c1        1 4LG     -0.183000
     20 C17         3.3190    4.2200    5.0960 c2        1 4LG      0.000000
     21 C18         4.2360    5.4340    5.0480 c2        1 4LG      0.271000
     22 O3          4.1180    6.4370    6.0220 os        1 4LG     -0.274000
     23 O4          5.1690    5.4620    4.2510 o         1 4LG     -0.333000
     24 C19         4.5330    7.7450    5.5720 c3        1 4LG     -0.065000
     25 C20         1.4540   -2.2540    2.8910 c3        1 4LG      0.035000
     26 C21         1.3050   -3.2060    3.9560 c3        1 4LG     -0.085000
     27 N2          2.1390   -4.3970    3.7760 n3        1 4LG     -0.299000
     28 C22         1.9420   -5.0390    2.5080 c3        1 4LG     -0.094000
     29 C23         2.0710   -3.9570    1.3280 c2        1 4LG      0.314000
     30 N3          1.2930   -2.8360    1.5300 n         1 4LG     -0.282000
     31 O5          2.3410   -4.3190    0.1850 o         1 4LG     -0.356000
     32 C24         0.3930   -1.1370    3.0790 c3        1 4LG     -0.038000
     33 O6          0.5980   -0.4840    4.3630 os        1 4LG     -0.224000
     34 C25         1.9900   -1.2980   -0.2880 c1        1 4LG     -0.136500
     35 C26         0.9650   -1.9650    0.4030 c1        1 4LG      0.013000
     36 C27        -0.3500   -1.8650   -0.0400 c1        1 4LG     -0.083000
     37 C28        -0.6500   -1.0970   -1.1780 c1        1 4LG     -0.195000
     38 C29         0.3700   -0.4370   -1.8620 c1        1 4LG      0.080000
     39 C30         1.6900   -0.5370   -1.4170 c1        1 4LG     -0.136500
     40 O7          0.0720    0.3150   -2.9870 os        1 4LG     -0.216000
     41 C31        -0.2410   -0.4630   -4.1300 c3        1 4LG     -0.021000
     42 C32         0.2990    0.2290   -5.3800 c3        1 4LG     -0.165000
     43 C33        -0.6830    0.0160   -6.5500 c3        1 4LG     -0.023000
     44 H11        -1.5430   -4.4960   -6.1330 h1        1 4LG      0.085333
     45 H12        -2.5400   -4.7910   -4.9590 h1        1 4LG      0.085333
     46 H13A       -3.0930   -4.5200   -6.4470 h1        1 4LG      0.085333
     47 H41        -2.5580   -1.0780   -7.5700 h4        1 4LG      0.099000
     48 H42        -3.4260    0.2930   -7.4760 h4        1 4LG      0.099000
     49 H5         -4.5090   -3.8450   -4.2080 ha        1 4LG      0.138000
     50 H6         -6.6670   -2.9700   -4.0580 ha        1 4LG      0.134000
     51 H7         -7.2000   -0.9810   -5.2190 ha        1 4LG      0.136000
     52 H8         -5.5800    0.1600   -6.5410 ha        1 4LG      0.140000
     53 H10         2.4170    1.6620    3.7750 ha        1 4LG      0.145500
     54 H13        -1.7700    3.0680    5.3530 ha        1 4LG      0.145500
     55 H14        -1.4020    0.7880    4.9080 ha        1 4LG      0.140000
     56 H15         1.8060    6.4760    4.6890 DU        1 4LG      0.167000
     57 H16        -0.5150    5.6400    5.3110 DU        1 4LG      0.167000
     58 H171        3.7890    3.4620    4.7920 ha        1 4LG      0.131500
     59 H172        3.0120    4.0660    6.0410 ha        1 4LG      0.131500
     60 H191        4.4090    7.8140    4.5870 h1        1 4LG      0.093333
     61 H192        5.4670    7.8790    5.7890 h1        1 4LG      0.093333
     62 H193        3.9680    8.4630    6.0410 h1        1 4LG      0.093333
     63 H20         2.3140   -1.8700    2.9510 h1        1 4LG      0.110000
     64 H211        1.5610   -2.7540    4.8350 h1        1 4LG      0.091000
     65 H212        0.3540   -3.4840    4.0070 h1        1 4LG      0.091000
     66 HN2         1.9620   -5.0080    4.4650 hn        1 4LG      0.172000
     67 H221        2.5800   -5.7810    2.3880 h1        1 4LG      0.106500
     68 H222        1.1050   -5.5030    2.4690 h1        1 4LG      0.106500
     69 H241        0.4790   -0.4920    2.3770 h1        1 4LG      0.096500
     70 H242       -0.5440   -1.5480    3.0520 h1        1 4LG      0.096500
     71 H25         2.9130   -1.3680    0.0220 ha        1 4LG      0.145500
     72 H27        -1.0940   -2.3480    0.4610 ha        1 4LG      0.154000
     73 H28        -1.6170   -1.0230   -1.5050 ha        1 4LG      0.143000
     74 H30         2.4100   -0.0700   -1.9010 ha        1 4LG      0.145500
     75 H311       -1.2220   -0.5580   -4.2040 h1        1 4LG      0.086500
     76 H312        0.1540   -1.3190   -4.0480 h1        1 4LG      0.086500
     77 H321        1.1770   -0.1530   -5.6150 hc        1 4LG      0.104500
     78 H322        0.3940    1.1660   -5.2110 hc        1 4LG      0.104500
     79 H331       -0.5370    0.7400   -7.2520 h1        1 4LG      0.077000
     80 H332       -0.5290   -0.8590   -6.9490 h1        1 4LG      0.077000
@<TRIPOS>BOND
     1    1    2 1   
     2    1   44 1   
     3    1   45 1   
     4    1   46 1   
     5    2    3 1   
     6    3    4 1   
     7    3    7 1   
     8    4   10 1   
     9    5    6 1   
    10    5   47 1   
    11    5   48 1   
    12    6   43 1   
    13    7    8 1   
    14    7   49 1   
    15    8   50 1   
    16    9   10 1   
    17    9   51 1   
    18   10   52 1   
    19   11   16 1   
    20   11   33 1   
    21   12   13 1   
    22   12   53 1   
    23   14   15 1   
    24   15   54 1   
    25   16   55 1   
    26   17   18 1   
    27   18   19 1   
    28   20   21 1   
    29   20   58 1   
    30   20   59 1   
    31   21   22 1   
    32   21   23 1   
    33   22   24 1   
    34   24   60 1   
    35   24   61 1   
    36   24   62 1   
    37   25   26 1   
    38   25   30 1   
    39   25   32 1   
    40   25   63 1   
    41   26   27 1   
    42   26   64 1   
    43   26   65 1   
    44   27   28 1   
    45   27   66 1   
    46   28   29 1   
    47   28   67 1   
    48   28   68 1   
    49   29   30 1   
    50   29   31 1   
    51   30   35 1   
    52   32   33 1   
    53   32   69 1   
    54   32   70 1   
    55   34   39 1   
    56   34   71 1   
    57   35   36 1   
    58   36   72 1   
    59   37   38 1   
    60   37   73 1   
    61   38   40 1   
    62   39   74 1   
    63   40   41 1   
    64   41   42 1   
    65   41   75 1   
    66   41   76 1   
    67   42   43 1   
    68   42   77 1   
    69   42   78 1   
    70   43   79 1   
    71   43   80 1   
@<TRIPOS>SUBSTRUCTURE
     1 4LG         1 TEMP              0 ****  ****    0 ROOT
