@<TRIPOS>MOLECULE
4LG
   80    78     1     0     0
SMALL
bcc


@<TRIPOS>ATOM
      1 C1         -1.3210   -0.3720    0.9220 c         1 4LG      0.557700
      2 O1         -2.1260   -0.3780   -0.0050 o         1 4LG     -0.521100
      3 C2          2.7160    1.7160    3.2480 ca        1 4LG     -0.123000
      4 C3          2.7890    1.1780    1.9580 ca        1 4LG     -0.123300
      5 C4          3.8140    0.1490    1.6110 c3        1 4LG      0.172700
      6 O2          4.9800    0.2090    2.4300 os        1 4LG     -0.388600
      7 C5          1.7320    2.6520    3.5620 ca        1 4LG     -0.133500
      8 C6          0.8140    3.0550    2.5930 ca        1 4LG     -0.128000
      9 C7          0.8810    2.5190    1.3060 ca        1 4LG     -0.133500
     10 C8          1.8660    1.5850    0.9880 ca        1 4LG     -0.123000
     11 C9         11.9720   -5.7090   -5.2250 ce        1 4LG      0.140000
     12 C10        10.8530   -6.1270   -6.1030 ce        1 4LG     -0.113000
     13 C11        10.8260   -5.4790   -7.2900 c2        1 4LG      0.015000
     14 C12        13.5040   -6.7960   -7.6270 cg        1 4LG     -0.167300
     15 C13        13.8670   -7.0360   -6.2740 ce        1 4LG      0.047200
     16 C14        13.1120   -6.3680   -5.4160 c1        1 4LG     -0.186800
     17 N1         10.3930   -6.0570   -8.5260 nh        1 4LG     -0.613400
     18 C15        11.5850   -6.3450   -9.3710 c3        1 4LG      0.256900
     19 C16        12.7400   -6.6090   -8.5400 c1        1 4LG     -0.129100
     20 C17         9.3510   -5.3430   -9.2140 c3        1 4LG      0.128800
     21 C18         9.5890   -3.9520   -9.7660 c         1 4LG      0.591100
     22 O3          8.8030   -3.3160  -10.4710 o         1 4LG     -0.533000
     23 O4         10.7810   -3.3640   -9.4450 os        1 4LG     -0.451900
     24 C19        10.9820   -2.0270   -9.9130 c3        1 4LG      0.120700
     25 C20        12.9530   -2.7580   -3.5650 c2        1 4LG     -0.104400
     26 C21        14.3220   -2.5110   -7.4930 c2        1 4LG     -0.004900
     27 N2         13.6010   -2.2240   -6.4290 nh        1 4LG      0.046700
     28 C22        12.2590   -2.0800   -6.4040 c2        1 4LG     -0.475100
     29 C23        11.4600   -1.7260   -5.2420 c2        1 4LG      0.715300
     30 N3         12.0520   -1.7460   -3.9380 n         1 4LG     -0.332200
     31 C24        12.8690   -4.0850   -3.8040 c2        1 4LG     -0.021900
     32 O6         11.7420   -4.6220   -4.4160 os        1 4LG     -0.206200
     33 C25        16.4630   -1.4370   -1.7320 c1        1 4LG     -0.167500
     34 C26        11.4750   -0.9590   -2.9350 c2        1 4LG      0.027600
     35 C27        11.7510   -1.0430   -1.6090 ce        1 4LG     -0.114700
     36 C28        11.1860   -0.1600   -0.6880 cg        1 4LG     -0.183300
     37 C29        10.7060    0.5810    0.1200 c1        1 4LG     -0.041400
     38 C30        15.3680   -0.9970   -1.5360 c1        1 4LG     -0.167500
     39 O7         10.2700    1.4510    1.0160 oh        1 4LG     -0.382600
     40 C31         6.8620    1.1610    1.0810 cx        1 4LG     -0.157900
     41 C32         7.2470    1.1200    2.5340 cx        1 4LG     -0.157900
     42 C33         5.8040    1.3120    2.1470 cx        1 4LG      0.080100
     43 H11         1.9210    1.1710   -0.0300 ha        1 4LG      0.141000
     44 H12        -0.4840    0.3600    0.9760 h4        1 4LG     -0.019300
     45 H13A       -1.3820   -1.0960    1.7620 h4        1 4LG     -0.019300
     46 H41         3.4090   -0.8810    1.8190 h1        1 4LG      0.060700
     47 H42         4.1050    0.2290    0.5290 h1        1 4LG      0.060700
     48 H5          3.4460    1.3920    4.0070 ha        1 4LG      0.141000
     49 H6          1.6820    3.0740    4.5770 ha        1 4LG      0.135000
     50 H7          0.0400    3.7960    2.8410 ha        1 4LG      0.134000
     51 H8          0.1610    2.8390    0.5380 ha        1 4LG      0.135000
     52 H10        10.3130   -7.0500   -5.8610 ha        1 4LG      0.165000
     53 H13        11.2990   -4.4720   -7.3790 h4        1 4LG      0.140000
     54 H14        14.6090   -7.8040   -6.0180 ha        1 4LG      0.161000
     55 H15        11.3200   -7.2550   -9.9820 h1        1 4LG      0.071700
     56 H16        11.8060   -5.4860  -10.0730 h1        1 4LG      0.071700
     57 H171        9.0300   -5.9740  -10.0950 h1        1 4LG      0.098200
     58 H172        8.4750   -5.2450   -8.5050 h1        1 4LG      0.098200
     59 H191       10.2630   -1.3420   -9.4020 h1        1 4LG      0.054700
     60 H192       12.0390   -1.8020   -9.6250 h1        1 4LG      0.054700
     61 H193       10.8410   -1.9800  -11.0190 h1        1 4LG      0.054700
     62 H20         9.4070   -4.2580   -4.8050 ha        1 4LG      0.001500
     63 H211       13.7960   -2.3880   -2.9410 h4        1 4LG      0.159000
     64 H212       15.4130   -2.5890   -7.4090 h4        1 4LG      0.028800
     65 HN2        13.8390   -2.6830   -8.4640 h4        1 4LG      0.028800
     66 H221       14.0960   -2.0850   -5.5590 hn        1 4LG      0.287700
     67 H222       11.7040   -2.2050   -7.3490 h4        1 4LG      0.190000
     68 H241        9.4980   -3.6040   -4.6490 ha        1 4LG      0.001500
     69 H242       13.6570   -4.8030   -3.5250 h4        1 4LG      0.168000
     70 H25        17.4360   -1.8240   -1.8980 ha        1 4LG      0.167500
     71 H27        10.7580   -0.2080   -3.3280 h4        1 4LG      0.173000
     72 H28        12.4180   -1.8150   -1.1870 ha        1 4LG      0.137000
     73 H30        14.3980   -0.5990   -1.3530 ha        1 4LG      0.167500
     74 H311        9.3440    1.1950    1.2140 ho        1 4LG      0.435000
     75 H312        7.1300    2.0420    0.4720 hc        1 4LG      0.081950
     76 H321        6.8970    0.2230    0.4980 hc        1 4LG      0.081950
     77 H322        7.7870    1.9740    2.9780 hc        1 4LG      0.081950
     78 H331        7.5490    0.1540    2.9770 hc        1 4LG      0.081950
     79 H332        5.2880    2.2790    2.2980 h1        1 4LG      0.089700
     80 O5         10.2790   -1.3520   -5.3680 o         1 4LG     -0.607300
@<TRIPOS>BOND
     1    1    2 2   
     2    1   44 1   
     3    1   45 1   
     4    3    4 ar  
     5    3    7 ar  
     6    3   48 1   
     7    4    5 1   
     8    4   10 ar  
     9    5    6 1   
    10    5   46 1   
    11    5   47 1   
    12    6   42 1   
    13    7    8 ar  
    14    7   49 1   
    15    8    9 ar  
    16    8   50 1   
    17    9   10 ar  
    18    9   51 1   
    19   10   43 1   
    20   11   12 1   
    21   11   16 2   
    22   11   32 1   
    23   12   13 2   
    24   12   52 1   
    25   13   17 1   
    26   13   53 1   
    27   14   15 1   
    28   14   19 3   
    29   15   16 2   
    30   15   54 1   
    31   17   18 1   
    32   17   20 1   
    33   18   19 1   
    34   18   55 1   
    35   18   56 1   
    36   20   21 1   
    37   20   57 1   
    38   20   58 1   
    39   21   22 2   
    40   21   23 1   
    41   23   24 1   
    42   24   59 1   
    43   24   60 1   
    44   24   61 1   
    45   25   30 1   
    46   25   31 2   
    47   25   63 1   
    48   26   27 2   
    49   26   64 1   
    50   26   65 1   
    51   27   28 1   
    52   27   66 1   
    53   28   29 2   
    54   28   67 1   
    55   29   30 1   
    56   29   80 1   
    57   30   34 1   
    58   31   32 1   
    59   31   69 1   
    60   33   38 3   
    61   33   70 1   
    62   34   35 2   
    63   34   71 1   
    64   35   36 1   
    65   35   72 1   
    66   36   37 3   
    67   37   39 1   
    68   38   73 1   
    69   39   74 1   
    70   40   41 1   
    71   40   42 1   
    72   40   75 1   
    73   40   76 1   
    74   41   42 1   
    75   41   77 1   
    76   41   78 1   
    77   42   79 1   
    78   62   68 1   
@<TRIPOS>SUBSTRUCTURE
     1 4LG         1 TEMP              0 ****  ****    0 ROOT
