@<TRIPOS>MOLECULE
4LG
   80    84     1     0     0
SMALL
bcc


@<TRIPOS>ATOM
      1 C1        -10.7610    1.9400    2.1560 c3        1 4LG      0.114700
      2 O1         -9.6500    1.2430    1.6050 os        1 4LG     -0.333900
      3 C2         -9.9000    0.4970    0.4670 ca        1 4LG      0.121100
      4 C3         -8.7800   -0.1890   -0.0570 ca        1 4LG     -0.110300
      5 C4         -7.4710   -0.0530    0.6420 c3        1 4LG      0.185700
      6 O2         -6.4850   -0.8170   -0.0550 os        1 4LG     -0.424600
      7 C5        -11.1510    0.4020   -0.1500 ca        1 4LG     -0.203000
      8 C6        -11.2890   -0.3800   -1.2970 ca        1 4LG     -0.096000
      9 C7        -10.1940   -1.0600   -1.8230 ca        1 4LG     -0.164000
     10 C8         -8.9470   -0.9640   -1.2040 ca        1 4LG     -0.076000
     11 C9          4.1980    0.5310   -1.2830 ca        1 4LG      0.140100
     12 C10         4.3150    1.6500   -0.4490 ca        1 4LG     -0.176000
     13 C11         4.0430    2.8960   -1.0220 ca        1 4LG     -0.008200
     14 C12         3.6510    3.0180   -2.4100 ca        1 4LG     -0.116800
     15 C13         3.5410    1.8740   -3.1950 ca        1 4LG     -0.050000
     16 C14         3.8160    0.6320   -2.6360 ca        1 4LG     -0.217000
     17 N1          4.0320    4.1840   -0.4590 na        1 4LG     -0.091400
     18 C15         3.7060    5.1030   -1.4790 cc        1 4LG     -0.095100
     19 C16         3.4490    4.4300   -2.6630 cd        1 4LG     -0.171200
     20 C17         4.4900    4.5320    0.8430 c3        1 4LG      0.008300
     21 C18         5.8450    5.2220    0.8630 c         1 4LG      0.601100
     22 O3          6.7260    4.6080    1.7050 os        1 4LG     -0.434900
     23 O4          6.1970    6.2400    0.2670 o         1 4LG     -0.525000
     24 C19         8.0220    5.1980    1.8230 c3        1 4LG      0.124700
     25 C20         4.2940   -3.0430   -0.3870 c3        1 4LG      0.121700
     26 C21         5.7880   -3.0860    0.0260 c3        1 4LG      0.146800
     27 N2          6.0270   -4.0140    1.1080 n3        1 4LG     -0.818200
     28 C22         5.2580   -3.6920    2.2880 c3        1 4LG      0.091800
     29 C23         3.7930   -3.3360    2.0280 c         1 4LG      0.711500
     30 N3          3.3720   -3.0400    0.7350 n         1 4LG     -0.374000
     31 C24         4.1090   -1.8500   -1.3520 c3        1 4LG      0.110400
     32 O6          4.5320   -0.6670   -0.6710 os        1 4LG     -0.332900
     33 C25         1.3770   -3.5240   -0.6310 ca        1 4LG     -0.102000
     34 C26         1.9910   -2.8510    0.4500 ca        1 4LG      0.017600
     35 C27         1.2050   -1.9950    1.2470 ca        1 4LG     -0.102000
     36 C28        -0.1460   -1.8050    0.9700 ca        1 4LG     -0.170000
     37 C29        -0.7330   -2.4670   -0.1140 ca        1 4LG      0.120100
     38 C30         0.0340   -3.3310   -0.9160 ca        1 4LG     -0.170000
     39 O7         -2.0550   -2.3470   -0.4940 os        1 4LG     -0.327900
     40 C31        -2.8700   -1.5150    0.3410 c3        1 4LG      0.129400
     41 C32        -4.2630   -1.5760   -0.2570 c3        1 4LG     -0.090400
     42 C33        -5.2070   -0.7230    0.5700 c3        1 4LG      0.135400
     43 H11       -11.1610    2.6850    1.4260 h1        1 4LG      0.044367
     44 H12       -11.5620    1.2250    2.4660 h1        1 4LG      0.044367
     45 H13A      -10.3260    2.4570    3.0500 h1        1 4LG      0.044367
     46 H41        -7.5600   -0.4280    1.6990 h1        1 4LG      0.044200
     47 H42        -7.1610    1.0290    0.6680 h1        1 4LG      0.044200
     48 H5        -12.0230    0.9340    0.2540 ha        1 4LG      0.136000
     49 H6        -12.2730   -0.4560   -1.7850 ha        1 4LG      0.131000
     50 H7        -10.3090   -1.6750   -2.7270 ha        1 4LG      0.134000
     51 H8         -8.0790   -1.5010   -1.6190 ha        1 4LG      0.155000
     52 H10         4.6140    1.5310    0.5990 ha        1 4LG      0.151000
     53 H13         3.2390    1.9540   -4.2490 ha        1 4LG      0.138000
     54 H14         3.7360   -0.2690   -3.2580 ha        1 4LG      0.136000
     55 H15         3.6950    6.1730   -1.2600 h4        1 4LG      0.178000
     56 H16         3.1500    4.8670   -3.6110 ha        1 4LG      0.160000
     57 H171        4.5430    3.6030    1.4800 h1        1 4LG      0.092700
     58 H172        3.7630    5.2610    1.3100 h1        1 4LG      0.092700
     59 H191        8.5520    4.5280    2.5440 h1        1 4LG      0.054367
     60 H192        8.5260    5.2100    0.8270 h1        1 4LG      0.054367
     61 H193        7.9310    6.2380    2.2190 h1        1 4LG      0.054367
     62 H20         4.0790   -3.9710   -1.0040 h1        1 4LG      0.058700
     63 H211        6.3740   -3.4320   -0.8700 h1        1 4LG      0.053700
     64 H212        6.1210   -2.0360    0.2760 h1        1 4LG      0.053700
     65 HN2         7.0050   -4.0540    1.3300 hn        1 4LG      0.375800
     66 H221        5.2600   -4.5990    2.9580 h1        1 4LG      0.068700
     67 H222        5.6840   -2.8230    2.8730 h1        1 4LG      0.068700
     68 H241        3.0370   -1.7580   -1.6700 h1        1 4LG      0.054200
     69 H242        4.7660   -2.0100   -2.2470 h1        1 4LG      0.054200
     70 H25         1.9570   -4.2180   -1.2600 ha        1 4LG      0.145500
     71 H27         1.6520   -1.4870    2.1170 ha        1 4LG      0.145500
     72 H28        -0.7340   -1.1360    1.6130 ha        1 4LG      0.145000
     73 H30        -0.4440   -3.8520   -1.7580 ha        1 4LG      0.145000
     74 H311       -2.8610   -1.9120    1.3900 h1        1 4LG      0.040700
     75 H312       -2.4690   -0.4670    0.3300 h1        1 4LG      0.040700
     76 H321       -4.2440   -1.2090   -1.3160 hc        1 4LG      0.071700
     77 H322       -4.6260   -2.6360   -0.2800 hc        1 4LG      0.071700
     78 H331       -5.2740   -1.1010    1.6250 h1        1 4LG      0.028200
     79 H332       -4.8730    0.3490    0.5870 h1        1 4LG      0.028200
     80 O5          3.0100   -3.3040    2.9960 o         1 4LG     -0.634500
@<TRIPOS>BOND
     1    1    2 1   
     2    1   43 1   
     3    1   44 1   
     4    1   45 1   
     5    2    3 1   
     6    3    4 ar  
     7    3    7 ar  
     8    4    5 1   
     9    4   10 ar  
    10    5    6 1   
    11    5   46 1   
    12    5   47 1   
    13    6   42 1   
    14    7    8 ar  
    15    7   48 1   
    16    8    9 ar  
    17    8   49 1   
    18    9   10 ar  
    19    9   50 1   
    20   10   51 1   
    21   11   12 ar  
    22   11   16 ar  
    23   11   32 1   
    24   12   13 ar  
    25   12   52 1   
    26   13   14 ar  
    27   13   17 1   
    28   14   15 ar  
    29   14   19 1   
    30   15   16 ar  
    31   15   53 1   
    32   16   54 1   
    33   17   18 1   
    34   17   20 1   
    35   18   19 2   
    36   18   55 1   
    37   19   56 1   
    38   20   21 1   
    39   20   57 1   
    40   20   58 1   
    41   21   22 1   
    42   21   23 2   
    43   22   24 1   
    44   24   59 1   
    45   24   60 1   
    46   24   61 1   
    47   25   26 1   
    48   25   30 1   
    49   25   31 1   
    50   25   62 1   
    51   26   27 1   
    52   26   63 1   
    53   26   64 1   
    54   27   28 1   
    55   27   65 1   
    56   28   29 1   
    57   28   66 1   
    58   28   67 1   
    59   29   30 1   
    60   29   80 2   
    61   30   34 1   
    62   31   32 1   
    63   31   68 1   
    64   31   69 1   
    65   33   34 ar  
    66   33   38 ar  
    67   33   70 1   
    68   34   35 ar  
    69   35   36 ar  
    70   35   71 1   
    71   36   37 ar  
    72   36   72 1   
    73   37   38 ar  
    74   37   39 1   
    75   38   73 1   
    76   39   40 1   
    77   40   41 1   
    78   40   74 1   
    79   40   75 1   
    80   41   42 1   
    81   41   76 1   
    82   41   77 1   
    83   42   78 1   
    84   42   79 1   
@<TRIPOS>SUBSTRUCTURE
     1 4LG         1 TEMP              0 ****  ****    0 ROOT
