@<TRIPOS>MOLECULE
4LG
   80    76     1     0     0
SMALL
bcc


@<TRIPOS>ATOM
      1 C1          4.3060   -1.7930   -4.3380 c2        1 4LG      0.160000
      2 O1          3.6130   -1.1870   -3.5210 o         1 4LG     -0.324000
      3 C2          3.2890    1.6710    0.8560 ca        1 4LG     -0.107500
      4 C3          3.4080    0.8860   -0.2970 ca        1 4LG     -0.136000
      5 C4          4.3210    1.2870   -1.3950 c3        1 4LG     -0.093000
      6 O2          5.6930    0.8040   -1.2090 os        1 4LG     -0.080000
      7 C5          2.4180    1.2910    1.8760 ca        1 4LG     -0.135500
      8 C6          1.6590    0.1280    1.7490 ca        1 4LG     -0.113000
      9 C7          1.7690   -0.6540    0.5990 ca        1 4LG     -0.135500
     10 C8          2.6400   -0.2790   -0.4220 ca        1 4LG     -0.107500
     11 C9         12.5990   -5.9950   -5.3660 c2        1 4LG      0.278000
     12 C10        11.3480   -6.0280   -4.5970 c2        1 4LG     -0.239000
     13 C11        10.5030   -4.9770   -4.6050 c2        1 4LG      0.019000
     14 C12        11.6530   -8.8320   -5.7130 c1        1 4LG     -0.207000
     15 C13        12.9790   -8.4730   -5.4430 c2        1 4LG      0.175000
     16 C14        13.4580   -7.2040   -5.3040 c2        1 4LG     -0.257000
     17 N1          9.2750   -4.9280   -3.8940 n3        1 4LG     -0.115000
     18 C15         8.7710   -6.0140   -3.3530 c1        1 4LG     -0.131000
     19 C16        10.5290   -9.1820   -5.9450 c1        1 4LG     -0.093000
     20 C17         8.6670   -3.6020   -3.8020 c3        1 4LG     -0.111000
     21 C18         7.9600   -3.1550   -5.0620 c2        1 4LG      0.299000
     22 O3          6.7550   -2.9420   -5.2110 o         1 4LG     -0.365000
     23 O4          8.8020   -2.9340   -6.1110 os        1 4LG     -0.273000
     24 C19         8.2130   -2.4890   -7.3350 c3        1 4LG     -0.066000
     25 C20        12.7590   -0.7980   -4.7230 c3        1 4LG     -0.028000
     26 C21        12.0990   -1.6830   -5.7710 c3        1 4LG     -0.249000
     27 N2         15.1140    0.8720   -6.4890 n2        1 4LG     -0.197000
     28 C22        13.8670    0.9050   -6.7500 c2        1 4LG     -0.077000
     29 C23        12.8660    1.4460   -5.7530 c2        1 4LG      0.336000
     30 N3         12.3840    0.5970   -4.7720 n         1 4LG     -0.318000
     31 C24        14.8650   -7.0780   -5.1120 c1        1 4LG     -0.063000
     32 O6         12.9620   -4.9920   -6.0030 o         1 4LG     -0.315000
     33 C25        11.8510    0.8840   -2.3730 c2        1 4LG     -0.471000
     34 C26        11.4210    1.0920   -3.8030 c3        1 4LG      0.123000
     35 C27        10.0270    0.5130   -3.9910 c2        1 4LG     -0.074000
     36 C28         9.4060    0.0050   -2.9690 c1        1 4LG     -0.302000
     37 C29         8.7990   -0.4240   -1.8790 c2        1 4LG      0.120000
     38 C30        11.1010    0.3940   -1.4050 c1        1 4LG      0.106000
     39 O7          8.7910   -1.7680   -1.5820 oh        1 4LG     -0.288000
     40 C31         8.5990   -1.1800    1.7830 c2        1 4LG     -0.241000
     41 C32         9.8850   -1.2480    1.4660 c2        1 4LG     -0.241000
     42 C33         6.2670    0.6850   -0.0830 c1        1 4LG     -0.081000
     43 H11         2.7260   -0.8910   -1.3370 ha        1 4LG      0.147000
     44 H12         4.3740   -2.9010   -4.3540 h4        1 4LG      0.082500
     45 H13A        4.9170   -1.2680   -5.1020 h4        1 4LG      0.082500
     46 H41         4.3930    2.4010   -1.4920 h1        1 4LG      0.125000
     47 H42         4.0220    0.8230   -2.3750 h1        1 4LG      0.125000
     48 H5          3.8750    2.5980    0.9520 ha        1 4LG      0.147000
     49 H6          2.3290    1.9110    2.7800 ha        1 4LG      0.136500
     50 H7          0.9710   -0.1710    2.5540 ha        1 4LG      0.135000
     51 H8          1.1660   -1.5690    0.4950 ha        1 4LG      0.136500
     52 H10        11.1330   -6.9460   -4.0240 ha        1 4LG      0.174000
     53 H13        10.7230   -4.0570   -5.1930 h4        1 4LG      0.175000
     54 H14        13.6980   -9.3190   -5.3720 ha        1 4LG      0.172000
     55 H15         9.5290   -9.4830   -6.1400 ha        1 4LG      0.236000
     56 H16         7.8080   -5.8980   -2.8120 ha        1 4LG      0.054000
     57 H171        7.9090   -3.5990   -2.9660 h1        1 4LG      0.152500
     58 H172        9.4520   -2.8250   -3.5550 h1        1 4LG      0.152500
     59 H191        7.4820   -3.2490   -7.7030 h1        1 4LG      0.094667
     60 H192        7.7020   -1.5090   -7.1750 h1        1 4LG      0.094667
     61 H193        9.0860   -2.3900   -8.0260 h1        1 4LG      0.094667
     62 H20        10.9910   -1.7210   -5.6310 hc        1 4LG      0.087333
     63 H211       13.8790   -0.8790   -4.8310 h1        1 4LG      0.102000
     64 H212       12.5110   -2.7200   -5.6810 hc        1 4LG      0.087333
     65 HN2        12.3110   -1.3110   -6.8030 hc        1 4LG      0.087333
     66 H221       15.7040    0.5560   -7.2320 hn        1 4LG      0.153000
     67 H222       13.3760    0.6240   -7.7070 h4        1 4LG      0.117000
     68 H241       12.4930   -1.1890   -3.6980 h1        1 4LG      0.102000
     69 H242       15.2820   -6.0640   -5.1970 ha        1 4LG      0.062000
     70 H25        12.8780    1.2250   -2.1370 ha        1 4LG      0.191000
     71 H27        11.3250    2.2160   -3.9620 h1        1 4LG      0.147000
     72 H28         9.5910    0.5970   -4.9980 ha        1 4LG      0.147000
     73 H30         8.2260    0.2380   -1.1920 h4        1 4LG      0.200000
     74 H311        8.6200   -1.8410   -0.6260 ho        1 4LG      0.244000
     75 H312        8.1640   -1.7300    2.6280 ha        1 4LG      0.120250
     76 H321        7.8840   -0.5540    1.2250 ha        1 4LG      0.120250
     77 H322       10.6020   -1.8620    2.0280 ha        1 4LG      0.120250
     78 H331       10.3200   -0.6880    0.6190 ha        1 4LG      0.120250
     79 H332        5.7350    0.9390    0.8600 ha        1 4LG      0.046000
     80 O5         12.4770    2.6250   -5.8640 o         1 4LG     -0.357000
@<TRIPOS>BOND
     1    1    2 1   
     2    1   44 1   
     3    1   45 1   
     4    3    4 1   
     5    3    7 1   
     6    3   48 1   
     7    4    5 1   
     8    4   10 1   
     9    5    6 1   
    10    5   46 1   
    11    5   47 1   
    12    6   42 1   
    13    7    8 1   
    14    7   49 1   
    15    8    9 1   
    16    8   50 1   
    17    9   10 1   
    18    9   51 1   
    19   10   43 1   
    20   11   12 1   
    21   11   16 1   
    22   11   32 1   
    23   12   13 1   
    24   12   52 1   
    25   13   17 1   
    26   13   53 1   
    27   14   15 1   
    28   14   19 1   
    29   15   16 1   
    30   15   54 1   
    31   16   31 1   
    32   17   18 1   
    33   17   20 1   
    34   18   56 1   
    35   19   55 1   
    36   20   21 1   
    37   20   57 1   
    38   20   58 1   
    39   21   22 1   
    40   21   23 1   
    41   23   24 1   
    42   24   59 1   
    43   24   60 1   
    44   24   61 1   
    45   25   26 1   
    46   25   30 1   
    47   25   63 1   
    48   25   68 1   
    49   26   62 1   
    50   26   64 1   
    51   26   65 1   
    52   27   28 1   
    53   27   66 1   
    54   28   29 1   
    55   28   67 1   
    56   29   30 1   
    57   29   80 1   
    58   30   34 1   
    59   31   69 1   
    60   33   34 1   
    61   33   38 1   
    62   33   70 1   
    63   34   35 1   
    64   34   71 1   
    65   35   36 1   
    66   35   72 1   
    67   36   37 1   
    68   37   39 1   
    69   37   73 1   
    70   39   74 1   
    71   40   41 1   
    72   40   75 1   
    73   40   76 1   
    74   41   77 1   
    75   41   78 1   
    76   42   79 1   
@<TRIPOS>SUBSTRUCTURE
     1 4LG         1 TEMP              0 ****  ****    0 ROOT
