@<TRIPOS>MOLECULE
4LI
   72    76     1     0     0
SMALL
bcc


@<TRIPOS>ATOM
      1 C1         -7.3010    3.4330   -0.7540 ca        1 4LI     -0.114000
      2 C2         -8.2280    2.6600   -0.0570 ca        1 4LI     -0.134000
      3 C3         -0.3470   -5.5030   -1.3950 ca        1 4LI     -0.130000
      4 C4          0.4700   -5.2750   -0.2920 ca        1 4LI     -0.109000
      5 C5         -0.3510   -4.5980   -2.4530 ca        1 4LI     -0.114000
      6 C6         -5.9560    3.0810   -0.7610 ca        1 4LI     -0.160000
      7 C7         -7.8010    1.5350    0.6430 ca        1 4LI     -0.116000
      8 C8          1.2810   -4.1390   -0.2410 ca        1 4LI     -0.155600
      9 C9          0.4610   -3.4590   -2.4380 ca        1 4LI     -0.040300
     10 C10        -5.4940    1.9460   -0.0600 ca        1 4LI      0.119600
     11 C11         1.2950   -3.2190   -1.3180 ca        1 4LI      0.165600
     12 C12        -6.4500    1.1790    0.6510 ca        1 4LI      0.015400
     13 C13         0.0460    0.7050   -0.4540 ca        1 4LI      0.931900
     14 C14         2.2900    1.3150   -0.1870 ca        1 4LI      0.930900
     15 C15         1.7460   -0.8480   -0.8710 ca        1 4LI      0.932900
     16 C17         5.3750    0.8130    0.3040 c         1 4LI      0.672100
     17 C18        -3.7340    0.4720   -0.8410 c3        1 4LI      0.171800
     18 C19        -3.1790    2.6940   -0.1210 c3        1 4LI      0.171800
     19 C20        -2.2970   -0.0110   -0.5520 c3        1 4LI      0.202300
     20 C21        -1.7330    2.2600    0.2030 c3        1 4LI      0.202300
     21 C22         5.4750    3.3000    0.2430 c3        1 4LI     -0.008300
     22 C23         2.8730    3.6080    0.5020 c3        1 4LI      0.294900
     23 C24         4.6480    2.0840   -0.1930 c3        1 4LI      0.151500
     24 C25         0.4410   -2.5390   -3.5990 c3        1 4LI     -0.056800
     25 C26         2.3000   -3.8730    3.4060 c3        1 4LI      0.077300
     26 C27         5.5280   -1.0420    1.8910 c3        1 4LI      0.058300
     27 N28         0.9610    1.6910   -0.1120 nb        1 4LI     -0.845000
     28 N29         0.3900   -0.5950   -0.7980 nb        1 4LI     -0.840000
     29 N30         2.7440    0.0700   -0.5800 nb        1 4LI     -0.838000
     30 N31        -4.1170    1.5920    0.0070 nh        1 4LI     -0.629000
     31 N32        -1.3200    1.0660   -0.5190 nh        1 4LI     -0.729300
     32 N33         3.2630    2.2390    0.2540 nh        1 4LI     -0.759300
     33 N34         2.1850   -2.1120   -1.3180 nh        1 4LI     -0.708300
     34 N35         1.5800   -4.0560    2.1870 n         1 4LI     -0.566900
     35 N36         5.0130    0.2390    1.5010 n         1 4LI     -0.531900
     36 O37         3.3700   -3.6170    0.8280 o         1 4LI     -0.622100
     37 O38         6.3430    0.4080   -0.3700 o         1 4LI     -0.607100
     38 S39         4.3540    4.6140    0.6490 ss        1 4LI     -0.305200
     39 CL40       -5.9950   -0.1920    1.5510 cl        1 4LI     -0.087400
     40 H1         -7.6330    4.3250   -1.3060 ha        1 4LI      0.137000
     41 H2         -9.2930    2.9370   -0.0550 ha        1 4LI      0.139000
     42 H3         -0.9850   -6.3980   -1.4320 ha        1 4LI      0.139000
     43 H4          0.4850   -6.0020    0.5340 ha        1 4LI      0.138000
     44 H5         -0.9990   -4.7840   -3.3250 ha        1 4LI      0.139000
     45 H6         -5.2460    3.7070   -1.3250 ha        1 4LI      0.139000
     46 H7         -8.5300    0.9250    1.2000 ha        1 4LI      0.148000
     47 H18        -3.8160    0.7390   -1.9350 h1        1 4LI      0.049450
     48 H18A       -4.4270   -0.3910   -0.6380 h1        1 4LI      0.049450
     49 H19        -3.4670    3.4970    0.6130 h1        1 4LI      0.049450
     50 H19A       -3.1900    3.1420   -1.1580 h1        1 4LI      0.049450
     51 H20        -2.2900   -0.5760    0.4240 h1        1 4LI      0.063950
     52 H20A       -2.0290   -0.7280   -1.3800 h1        1 4LI      0.063950
     53 H21        -1.0690    3.1210   -0.0890 h1        1 4LI      0.063950
     54 H21A       -1.6390    2.0970    1.3150 h1        1 4LI      0.063950
     55 H22         6.1070    3.0610    1.1320 h1        1 4LI      0.094200
     56 H22A        6.1470    3.6210   -0.5870 h1        1 4LI      0.094200
     57 H23         2.2390    4.0350   -0.3200 h2        1 4LI      0.083700
     58 H23A        2.2950    3.6580    1.4630 h2        1 4LI      0.083700
     59 H24         4.6710    2.0060   -1.3250 h1        1 4LI      0.094700
     60 H25        -0.0160   -1.5600   -3.3100 hc        1 4LI      0.054700
     61 H25A        1.4790   -2.3460   -3.9690 hc        1 4LI      0.054700
     62 H25B       -0.1560   -2.9700   -4.4410 hc        1 4LI      0.054700
     63 H26         1.8030   -3.0810    4.0300 h1        1 4LI      0.046033
     64 H26A        2.3170   -4.8320    3.9920 h1        1 4LI      0.046033
     65 H26B        3.3570   -3.5590    3.1900 h1        1 4LI      0.046033
     66 H27         6.5140   -1.2280    1.3880 h1        1 4LI      0.051700
     67 H27A        5.6750   -1.0440    3.0040 h1        1 4LI      0.051700
     68 H27B        4.8210   -1.8730    1.6140 h1        1 4LI      0.051700
     69 HN34        3.1240   -2.3530   -1.0400 hn        1 4LI      0.470800
     70 HN35        0.6140   -4.2700    2.2450 hn        1 4LI      0.316500
     71 HN36        4.1380    0.4900    1.8990 hn        1 4LI      0.310500
     72 C16         2.1620   -3.9190    0.9450 c         1 4LI      0.671700
@<TRIPOS>BOND
     1    1    2 ar  
     2    1    6 ar  
     3    1   40 1   
     4    2    7 ar  
     5    2   41 1   
     6    3    4 ar  
     7    3    5 ar  
     8    3   42 1   
     9    4    8 ar  
    10    4   43 1   
    11    5    9 ar  
    12    5   44 1   
    13    6   10 ar  
    14    6   45 1   
    15    7   12 ar  
    16    7   46 1   
    17    8   11 ar  
    18    8   72 1   
    19    9   11 ar  
    20    9   24 1   
    21   10   12 ar  
    22   10   30 1   
    23   11   33 1   
    24   12   39 1   
    25   13   27 ar  
    26   13   28 ar  
    27   13   31 1   
    28   14   27 ar  
    29   14   29 ar  
    30   14   32 1   
    31   15   28 ar  
    32   15   29 ar  
    33   15   33 1   
    34   16   23 1   
    35   16   35 1   
    36   16   37 2   
    37   17   19 1   
    38   17   30 1   
    39   17   47 1   
    40   17   48 1   
    41   18   20 1   
    42   18   30 1   
    43   18   49 1   
    44   18   50 1   
    45   19   31 1   
    46   19   51 1   
    47   19   52 1   
    48   20   31 1   
    49   20   53 1   
    50   20   54 1   
    51   21   23 1   
    52   21   38 1   
    53   21   55 1   
    54   21   56 1   
    55   22   32 1   
    56   22   38 1   
    57   22   57 1   
    58   22   58 1   
    59   23   32 1   
    60   23   59 1   
    61   24   60 1   
    62   24   61 1   
    63   24   62 1   
    64   25   34 1   
    65   25   63 1   
    66   25   64 1   
    67   25   65 1   
    68   26   35 1   
    69   26   66 1   
    70   26   67 1   
    71   26   68 1   
    72   33   69 1   
    73   34   70 1   
    74   34   72 1   
    75   35   71 1   
    76   36   72 2   
@<TRIPOS>SUBSTRUCTURE
     1 4LI         1 TEMP              0 ****  ****    0 ROOT
