@<TRIPOS>MOLECULE
4LI
   72    66     1     0     0
SMALL
bcc


@<TRIPOS>ATOM
      1 C1          3.4040    0.4490   -8.3580 c1        1 4LI     -0.069167
      2 C2          2.8890   -0.6860   -8.9340 c1        1 4LI     -0.069167
      3 C3          0.0740    2.0870    6.0980 c1        1 4LI     -0.069167
      4 C4         -0.8610    2.7980    5.3610 c1        1 4LI     -0.050500
      5 C5          1.1270    1.4940    5.4720 c1        1 4LI     -0.069167
      6 C6          3.1500    0.7250   -7.0300 c1        1 4LI     -0.069167
      7 C7          2.1110   -1.5590   -8.1780 c1        1 4LI     -0.069167
      8 C8         -0.7220    2.9060    3.9640 cg        1 4LI     -0.105200
      9 C9          1.2690    1.6000    4.0740 c1        1 4LI     -0.010100
     10 C10         2.3660   -0.1540   -6.2690 c1        1 4LI      0.094800
     11 C11         0.3320    2.3110    3.3360 c1        1 4LI      0.135800
     12 C12         1.8560   -1.2800   -6.8390 c1        1 4LI      0.026900
     13 C13         0.7140    0.1430   -0.9430 c1        1 4LI      0.599600
     14 C14        -0.6590   -1.1480    0.4400 c1        1 4LI      0.494500
     15 C15         0.2070    0.8600    1.2450 c1        1 4LI      0.596600
     16 C16        -1.7410    3.7750    3.1420 c         1 4LI      0.619300
     17 C17        -1.5610   -3.8590    2.6690 c1        1 4LI      0.534500
     18 C18         2.8020   -0.5280   -3.9840 c3        1 4LI      0.171800
     19 C19         0.8480    0.6620   -4.6600 c3        1 4LI      0.171800
     20 C20         2.2630   -0.6430   -2.6070 c3        1 4LI      0.202300
     21 C21         0.2970    0.5450   -3.2600 c3        1 4LI      0.202300
     22 C22        -3.0220   -2.2000    2.4520 c3        1 4LI     -0.089600
     23 C23        -2.8220   -2.1670   -0.0180 c3        1 4LI      0.131400
     24 C24        -1.7110   -2.5510    2.3430 c2        1 4LI      0.285200
     25 C25         2.7720    1.3670    4.1110 c3        1 4LI     -0.087000
     26 C26        -3.4090    5.5810    3.1730 c3        1 4LI      0.077300
     27 C27        -2.4580   -5.8280    3.9680 c3        1 4LI      0.016600
     28 N28        -0.0240   -0.9470   -0.7570 n1        1 4LI     -0.650800
     29 N29         0.8380    1.0600    0.0580 n1        1 4LI     -0.635800
     30 N30        -0.5360   -0.2380    1.4310 n1        1 4LI     -0.652800
     31 N31         1.7690   -0.3910   -4.9700 n3        1 4LI     -0.603200
     32 N32         1.3270    0.4130   -2.2870 n3        1 4LI     -0.592200
     33 N33        -1.4300   -2.3390    0.6500 nh        1 4LI     -0.253100
     34 N34         0.7130    2.0390    1.9170 n3        1 4LI     -0.547400
     35 N35        -2.7670    4.4310    3.7980 n         1 4LI     -0.565900
     36 N36        -2.1910   -4.3790    3.8500 n3        1 4LI     -0.385400
     37 O37        -1.7360    3.7230    1.9310 o         1 4LI     -0.619100
     38 O38        -0.8850   -4.6130    1.9360 o         1 4LI     -0.618500
     39 S39        -3.7520   -2.5250    0.9520 ss        1 4LI     -0.307200
     40 CL40        0.8070   -2.6180   -6.7270 cl        1 4LI     -0.097900
     41 H1          3.9500    1.0630   -8.8900 ha        1 4LI      0.083000
     42 H2          3.0630   -0.8750   -9.8460 ha        1 4LI      0.083000
     43 H3         -0.0230    2.0140    7.0580 ha        1 4LI      0.083000
     44 H4         -1.5450    3.1830    5.7690 ha        1 4LI      0.081500
     45 H5          1.7940    0.9860    5.9990 ha        1 4LI      0.083000
     46 H6          3.5370    1.5780   -6.5970 ha        1 4LI      0.083000
     47 H7          1.7340   -2.3920   -8.6000 ha        1 4LI      0.083000
     48 H18         3.3200   -1.3290   -4.1820 h1        1 4LI      0.049950
     49 H18A        3.4080    0.2710   -4.0330 h1        1 4LI      0.049950
     50 H19         1.3020    1.4990   -4.7430 h1        1 4LI      0.049950
     51 H19A        0.0430    0.6360   -5.3540 h1        1 4LI      0.049950
     52 H20         1.8100   -1.5170   -2.5110 h1        1 4LI      0.065450
     53 H20A        3.0370   -0.6010   -1.9520 h1        1 4LI      0.065450
     54 H21        -0.2590   -0.2080   -3.2170 h1        1 4LI      0.065450
     55 H21A       -0.2530    1.3720   -3.0500 h1        1 4LI      0.065450
     56 H22        -3.4680   -2.7350    3.1790 h1        1 4LI      0.098200
     57 H22A       -3.0950   -1.2110    2.6590 h1        1 4LI      0.098200
     58 H23        -2.9520   -1.2590   -0.2740 h2        1 4LI      0.084700
     59 H23A       -2.9010   -2.7910   -0.8470 h2        1 4LI      0.084700
     60 H24        -1.0900   -2.1410    2.9490 h4        1 4LI      0.022800
     61 H25         3.1850    1.6230    3.1970 hc        1 4LI      0.051033
     62 H25A        2.9460    0.4370    4.2960 hc        1 4LI      0.051033
     63 H25B        3.1750    1.9240    4.8210 hc        1 4LI      0.051033
     64 H26        -3.9260    6.1020    3.8730 h1        1 4LI      0.046700
     65 H26A       -2.7150    6.1680    2.7710 h1        1 4LI      0.046700
     66 H26B       -4.0150    5.2770    2.4830 h1        1 4LI      0.046700
     67 H27        -1.6920   -6.3430    3.5730 h1        1 4LI      0.045033
     68 H27A       -3.2890   -6.0510    3.4820 h1        1 4LI      0.045033
     69 H27B       -2.5580   -6.0650    4.9070 h1        1 4LI      0.045033
     70 HN34        1.2400    2.6680    1.4400 hn        1 4LI      0.467800
     71 HN35       -2.9490    4.2310    4.6110 hn        1 4LI      0.315500
     72 HN36       -2.4640   -3.8310    4.4780 hn        1 4LI      0.283700
@<TRIPOS>BOND
     1    1    6 3   
     2    1   41 1   
     3    2    7 3   
     4    2   42 1   
     5    3    5 3   
     6    3   43 1   
     7    4    8 3   
     8    4   44 1   
     9    5   45 1   
    10    6   46 1   
    11    7   47 1   
    12    8   16 1   
    13    9   11 3   
    14    9   25 1   
    15   10   12 3   
    16   10   31 1   
    17   11   34 1   
    18   12   40 1   
    19   13   29 3   
    20   13   32 1   
    21   14   28 3   
    22   14   33 1   
    23   15   30 3   
    24   15   34 1   
    25   16   35 1   
    26   16   37 2   
    27   17   36 2   
    28   17   38 2   
    29   18   20 1   
    30   18   31 1   
    31   18   48 1   
    32   18   49 1   
    33   19   21 1   
    34   19   31 1   
    35   19   50 1   
    36   19   51 1   
    37   20   32 1   
    38   20   52 1   
    39   20   53 1   
    40   21   32 1   
    41   21   54 1   
    42   21   55 1   
    43   22   24 1   
    44   22   39 1   
    45   22   56 1   
    46   22   57 1   
    47   23   33 1   
    48   23   39 1   
    49   23   58 1   
    50   23   59 1   
    51   24   33 2   
    52   24   60 1   
    53   25   61 1   
    54   25   62 1   
    55   25   63 1   
    56   26   35 1   
    57   26   64 1   
    58   26   65 1   
    59   26   66 1   
    60   27   36 1   
    61   27   67 1   
    62   27   68 1   
    63   27   69 1   
    64   34   70 1   
    65   35   71 1   
    66   36   72 1   
@<TRIPOS>SUBSTRUCTURE
     1 4LI         1 TEMP              0 ****  ****    0 ROOT
