@<TRIPOS>MOLECULE
4LJ
   14    13     1     0     0
SMALL
bcc


@<TRIPOS>ATOM
      1 Br          0.0490   -0.0080   -0.1070 br        1 4LJ     -0.078400
      2 C1          1.9600   -0.0040    0.0130 c3        1 4LJ     -0.048000
      3 C2          2.4400   -0.0010    1.4460 c3        1 4LJ     -0.105400
      4 C3          3.9660    0.0010    1.4540 c3        1 4LJ      0.095800
      5 N1          4.5290    0.0050    2.8370 nz        1 4LJ     -0.837600
      6 H1          2.3210   -0.9130   -0.5260 h1        1 4LJ      0.090700
      7 H2          2.3180    0.9030   -0.5290 h1        1 4LJ      0.090700
      8 H3          2.0470    0.9080    1.9780 hc        1 4LJ      0.082700
      9 H4          2.0490   -0.9090    1.9810 hc        1 4LJ      0.082700
     10 H5          4.3570   -0.9170    0.9260 hx        1 4LJ      0.116700
     11 H6          4.3550    0.9180    0.9220 hx        1 4LJ      0.116700
     12 H7          5.5540    0.0060    2.7990 hn        1 4LJ      0.464133
     13 H8          4.2120    0.8380    3.3450 hn        1 4LJ      0.464133
     14 H13         4.2140   -0.8270    3.3490 hn        1 4LJ      0.464133
@<TRIPOS>BOND
     1    1    2 1   
     2    2    3 1   
     3    2    6 1   
     4    2    7 1   
     5    3    4 1   
     6    3    8 1   
     7    3    9 1   
     8    4    5 1   
     9    4   10 1   
    10    4   11 1   
    11    5   12 1   
    12    5   13 1   
    13    5   14 1   
@<TRIPOS>SUBSTRUCTURE
     1 4LJ         1 TEMP              0 ****  ****    0 ROOT
