@<TRIPOS>MOLECULE
4LJ
   14    13     1     0     0
SMALL
bcc


@<TRIPOS>ATOM
      1 BR          0.0480   -0.0070   -0.1050 br        1 4LJ     -0.078400
      2 C1          1.9590   -0.0020    0.0140 c3        1 4LJ     -0.048000
      3 C2          2.4400   -0.0020    1.4460 c3        1 4LJ     -0.105400
      4 C3          3.9660    0.0020    1.4540 c3        1 4LJ      0.095800
      5 N1          4.5300    0.0030    2.8360 n4        1 4LJ     -0.837600
      6 H1          2.3210   -0.9090   -0.5270 h1        1 4LJ      0.090700
      7 H2          2.3170    0.9070   -0.5270 h1        1 4LJ      0.090700
      8 H3          2.0500   -0.9110    1.9800 hc        1 4LJ      0.082700
      9 H4          2.0460    0.9060    1.9800 hc        1 4LJ      0.082700
     10 H5          4.3580   -0.9150    0.9240 hx        1 4LJ      0.116700
     11 H6          4.3540    0.9200    0.9240 hx        1 4LJ      0.116700
     12 H7          5.5540    0.0050    2.7980 hn        1 4LJ      0.464133
     13 H8          4.2160   -0.8310    3.3460 hn        1 4LJ      0.464133
     14 H13         4.2130    0.8340    3.3460 hn        1 4LJ      0.464133
@<TRIPOS>BOND
     1    1    2 1   
     2    2    3 1   
     3    2    6 1   
     4    2    7 1   
     5    3    4 1   
     6    3    8 1   
     7    3    9 1   
     8    4    5 1   
     9    4   10 1   
    10    4   11 1   
    11    5   12 1   
    12    5   13 1   
    13    5   14 1   
@<TRIPOS>SUBSTRUCTURE
     1 4LJ         1 TEMP              0 ****  ****    0 ROOT
