@<TRIPOS>MOLECULE
4LK
   51    55     1     0     0
SMALL
bcc


@<TRIPOS>ATOM
      1 C25        -0.4550   -0.8650    0.5740 ca        1 4LK     -0.127000
      2 C24         0.8510   -0.4870    0.2670 ca        1 4LK     -0.126000
      3 C26        -0.8750   -0.8870    1.9030 ca        1 4LK     -0.126000
      4 C23         1.7410   -0.1230    1.2750 ca        1 4LK     -0.116000
      5 C27        -0.0020   -0.5340    2.9290 ca        1 4LK     -0.116000
      6 C5         -4.3510    1.5230    7.7130 ca        1 4LK     -0.194000
      7 C6         -3.4430    1.8420    6.7160 ca        1 4LK     -0.077000
      8 C18         3.1200    1.1890    5.4930 cc        1 4LK     -0.259300
      9 C3         -2.5790    1.6410    9.3730 ca        1 4LK     -0.208000
     10 C19         4.0220    0.2500    4.8700 cc        1 4LK      0.291200
     11 C22         1.3140   -0.1380    2.6180 ca        1 4LK      0.020800
     12 C4         -3.9340    1.4130    9.0620 ca        1 4LK      0.133600
     13 C13        -2.0900    2.0800    7.0120 ca        1 4LK      0.067600
     14 C2         -1.6630    1.9750    8.3630 ca        1 4LK      0.188900
     15 C17         1.9700    1.1630    4.6890 cd        1 4LK     -0.113200
     16 C28        -1.4540    3.5520    5.1780 cc        1 4LK     -0.041000
     17 C16         0.7610    1.9740    4.8190 cd        1 4LK      0.311900
     18 C29        -0.6020    3.9150    4.1710 cd        1 4LK     -0.034100
     19 C32         0.6180    3.1290    3.8870 c         1 4LK      0.482000
     20 C11        -4.5910    0.9270   11.4300 c         1 4LK      0.834600
     21 C8         -6.2340    0.7160    9.7700 c3        1 4LK      0.059000
     22 C9         -6.8090    0.3050   11.1450 c3        1 4LK      0.109400
     23 C31        -1.8790    5.8440    3.6450 c3        1 4LK      0.102700
     24 N20         3.4480   -0.3040    3.7720 nd        1 4LK     -0.492800
     25 N15        -0.1000    1.6640    5.7810 nc        1 4LK     -0.327400
     26 N21         2.2180    0.2270    3.6600 na        1 4LK      0.169300
     27 N14        -1.1760    2.4160    5.9590 na        1 4LK     -0.190900
     28 N7         -4.8610    1.0990   10.0580 n         1 4LK     -0.399000
     29 O33         1.4210    3.3950    2.9920 o         1 4LK     -0.493100
     30 O10        -5.7240    0.4730   12.0880 os        1 4LK     -0.385900
     31 O30        -0.7760    4.9970    3.3420 os        1 4LK     -0.280900
     32 F1         -0.3750    2.1960    8.7070 f         1 4LK     -0.110900
     33 H1         -1.1500   -1.1480   -0.2290 ha        1 4LK      0.134000
     34 H2          1.1880   -0.4710   -0.7810 ha        1 4LK      0.135000
     35 H3         -1.9030   -1.1930    2.1500 ha        1 4LK      0.135000
     36 H4          2.7700    0.1740    1.0190 ha        1 4LK      0.153000
     37 H5         -0.3430   -0.5700    3.9750 ha        1 4LK      0.153000
     38 H6         -5.4020    1.3530    7.4330 ha        1 4LK      0.143000
     39 H7         -3.7960    1.9080    5.6730 ha        1 4LK      0.152000
     40 H8          3.2980    1.7840    6.3800 ha        1 4LK      0.171000
     41 H9         -2.2080    1.5670   10.4120 ha        1 4LK      0.195000
     42 H10         5.0300   -0.0170    5.1880 h4        1 4LK      0.044100
     43 H11        -2.3720    4.1010    5.4420 h4        1 4LK      0.169000
     44 H12        -6.7970    1.5870    9.3380 h1        1 4LK      0.069200
     45 H13        -7.1120   -0.7690   11.1830 h1        1 4LK      0.078700
     46 H14        -1.7940    6.2520    4.6820 h1        1 4LK      0.046700
     47 H15        -2.8430    5.2940    3.5190 h1        1 4LK      0.046700
     48 H16        -1.7900    6.6640    2.8880 h1        1 4LK      0.046700
     49 H17        -6.2670   -0.1390    9.0430 h1        1 4LK      0.069200
     50 H18        -7.6400    0.9720   11.4810 h1        1 4LK      0.078700
     51 O12        -3.5820    1.1190   12.1050 o         1 4LK     -0.572500
@<TRIPOS>BOND
     1    1    2 ar  
     2    1    3 ar  
     3    1   33 1   
     4    2    4 ar  
     5    2   34 1   
     6    3    5 ar  
     7    3   35 1   
     8    4   11 ar  
     9    4   36 1   
    10    5   11 ar  
    11    5   37 1   
    12    6    7 ar  
    13    6   12 ar  
    14    6   38 1   
    15    7   13 ar  
    16    7   39 1   
    17    8   10 1   
    18    8   15 2   
    19    8   40 1   
    20    9   12 ar  
    21    9   14 ar  
    22    9   41 1   
    23   10   24 2   
    24   10   42 1   
    25   11   26 1   
    26   12   28 1   
    27   13   14 ar  
    28   13   27 1   
    29   14   32 1   
    30   15   17 1   
    31   15   26 1   
    32   16   18 2   
    33   16   27 1   
    34   16   43 1   
    35   17   19 1   
    36   17   25 2   
    37   18   19 1   
    38   18   31 1   
    39   19   29 2   
    40   20   28 1   
    41   20   30 1   
    42   20   51 2   
    43   21   22 1   
    44   21   28 1   
    45   21   44 1   
    46   21   49 1   
    47   22   30 1   
    48   22   45 1   
    49   22   50 1   
    50   23   31 1   
    51   23   46 1   
    52   23   47 1   
    53   23   48 1   
    54   24   26 1   
    55   25   27 1   
@<TRIPOS>SUBSTRUCTURE
     1 4LK         1 TEMP              0 ****  ****    0 ROOT
