@<TRIPOS>MOLECULE
4LK
   51    53     1     0     0
SMALL
bcc


@<TRIPOS>ATOM
      1 C25        -2.1530   -0.5720    3.7830 c1        1 4LK     -0.071000
      2 C24         0.9120   -1.0110   -0.0560 c2        1 4LK     -0.126000
      3 C26        -1.1140   -1.4960    3.5500 c2        1 4LK     -0.556000
      4 C23         1.1200   -0.2010    0.9330 c1        1 4LK     -0.198000
      5 C27        -0.7650   -2.4040    4.4570 c1        1 4LK      0.399000
      6 C5         -3.6910    0.7210    7.4780 ca        1 4LK     -0.191000
      7 C6         -2.7080    1.1050    6.5780 ca        1 4LK     -0.064000
      8 C18         2.8770    0.5340    5.1750 c2        1 4LK     -0.193000
      9 C3         -3.1770    2.6370    8.8840 ca        1 4LK     -0.208000
     10 C19         3.5990   -0.4360    4.3850 c2        1 4LK     -0.172000
     11 C22         1.3390    0.6650    1.8940 c2        1 4LK      0.029000
     12 C4         -3.9450    1.4790    8.6460 ca        1 4LK      0.138000
     13 C13        -1.9360    2.2580    6.8040 ca        1 4LK     -0.023000
     14 C2         -2.1750    3.0190    7.9800 ca        1 4LK      0.125000
     15 C17         1.9190    1.0660    4.2990 c2        1 4LK     -0.004000
     16 C28        -0.9570    3.9450    5.3300 c2        1 4LK     -0.112000
     17 C16         0.8910    2.0640    4.5820 c2        1 4LK     -0.152000
     18 C29        -0.0560    4.3180    4.3690 c2        1 4LK     -0.062000
     19 C32         0.9510    3.3640    3.8640 c2        1 4LK      0.290000
     20 C11        -5.2960    1.7170   10.7430 c2        1 4LK      0.402000
     21 C8         -5.6840   -0.1630    9.3960 c3        1 4LK     -0.057000
     22 C9         -6.5600   -0.2280   10.6680 c3        1 4LK     -0.041000
     23 C31        -0.8670    6.5470    4.3280 c3        1 4LK     -0.088000
     24 N20         3.1020   -0.4880    3.1250 n2        1 4LK     -0.062000
     25 N15        -0.0110    1.7530    5.5110 n2        1 4LK      0.046000
     26 N21         2.1000    0.4080    3.0580 na        1 4LK     -0.072000
     27 N14        -0.9140    2.6470    5.8700 na        1 4LK     -0.095000
     28 N7         -4.9510    1.0870    9.5330 n         1 4LK     -0.302000
     29 O33         1.7350    3.6030    2.9410 o         1 4LK     -0.276000
     30 O10        -6.2470    0.9670   11.4200 os        1 4LK     -0.226000
     31 O30        -0.0010    5.5580    3.7790 os        1 4LK     -0.167000
     32 F1         -1.4570    4.1350    8.2480 f         1 4LK     -0.093000
     33 H1         -0.5220   -1.4720    2.6020 ha        1 4LK      0.186000
     34 H2          1.5920   -1.0670   -0.9210 ha        1 4LK      0.133000
     35 H3         -2.3910    0.1070    2.9490 ha        1 4LK      0.050000
     36 H4          0.0420   -1.6850   -0.0940 ha        1 4LK      0.133000
     37 H5          0.9390    1.7000    1.8610 h4        1 4LK      0.184000
     38 H6         -2.5430    0.4790    5.6710 ha        1 4LK      0.205000
     39 H7         -4.2710   -0.1890    7.2580 ha        1 4LK      0.148000
     40 H8          3.0430    0.7930    6.2140 ha        1 4LK      0.173000
     41 H9         -3.3400    3.2590    9.7820 ha        1 4LK      0.192000
     42 H10         4.4340   -1.0630    4.7020 h4        1 4LK      0.183000
     43 H11        -1.7300    4.6100    5.7480 h4        1 4LK      0.178000
     44 H12        -4.9790   -1.0350    9.3390 h1        1 4LK      0.110000
     45 H13        -6.3090   -1.1000   11.3190 h1        1 4LK      0.117000
     46 H14        -1.9360    6.2670    4.1610 h1        1 4LK      0.088333
     47 H15        -0.6040    7.4680    3.7490 h1        1 4LK      0.088333
     48 H16        -0.6650    6.6920    5.4170 h1        1 4LK      0.088333
     49 H17        -6.3160   -0.1410    8.4670 h1        1 4LK      0.110000
     50 H18        -7.6530   -0.1940   10.4400 h1        1 4LK      0.117000
     51 O12        -4.9290    2.7690   11.2630 o         1 4LK     -0.302000
@<TRIPOS>BOND
     1    1    3 1   
     2    1   35 1   
     3    2    4 1   
     4    2   34 1   
     5    2   36 1   
     6    3    5 1   
     7    3   33 1   
     8    4   11 1   
     9    6    7 1   
    10    6   12 1   
    11    6   39 1   
    12    7   13 1   
    13    7   38 1   
    14    8   10 1   
    15    8   15 1   
    16    8   40 1   
    17    9   12 1   
    18    9   14 1   
    19    9   41 1   
    20   10   24 1   
    21   10   42 1   
    22   11   26 1   
    23   11   37 1   
    24   12   28 1   
    25   13   14 1   
    26   13   27 1   
    27   14   32 1   
    28   15   17 1   
    29   15   26 1   
    30   16   18 1   
    31   16   27 1   
    32   16   43 1   
    33   17   19 1   
    34   17   25 1   
    35   18   19 1   
    36   18   31 1   
    37   19   29 1   
    38   20   28 1   
    39   20   30 1   
    40   20   51 1   
    41   21   22 1   
    42   21   28 1   
    43   21   44 1   
    44   21   49 1   
    45   22   30 1   
    46   22   45 1   
    47   22   50 1   
    48   23   31 1   
    49   23   46 1   
    50   23   47 1   
    51   23   48 1   
    52   24   26 1   
    53   25   27 1   
@<TRIPOS>SUBSTRUCTURE
     1 4LK         1 TEMP              0 ****  ****    0 ROOT
