@<TRIPOS>MOLECULE
4LL
   32    33     1     0     0
SMALL
bcc


@<TRIPOS>ATOM
      1 C01         0.0500   -0.4680    0.1600 c3        1 4LL     -0.094100
      2 C02         1.5440   -0.2760    0.1490 c3        1 4LL     -0.078400
      3 C03         2.0500    0.1800    1.5010 c3        1 4LL     -0.095400
      4 C04         3.5660    0.3660    1.4560 c3        1 4LL      0.185800
      5 N05         4.1230    0.8520    2.7010 nu        1 4LL     -0.833900
      6 C06         5.4610    0.5130    2.9910 ca        1 4LL      0.645200
      7 N07         5.8230    0.3230    4.2730 nb        1 4LL     -0.753000
      8 C08         7.1510    0.1130    4.5580 ca        1 4LL      0.379600
      9 C09         8.1570    0.0550    3.5480 ca        1 4LL     -0.146300
     10 C10         9.5090   -0.1770    3.8930 ca        1 4LL     -0.140000
     11 C11         9.8710   -0.3490    5.2080 ca        1 4LL     -0.104000
     12 C12         8.9060   -0.2960    6.2320 ca        1 4LL     -0.162000
     13 C13         7.5740   -0.0700    5.9250 ca        1 4LL      0.078800
     14 O14         6.7050   -0.0380    6.9880 oh        1 4LL     -0.499100
     15 C15         7.7410    0.2380    2.1970 ca        1 4LL     -0.064000
     16 C16         6.4250    0.4640    1.9050 ca        1 4LL     -0.258300
     17 H01        -0.2440   -1.2380    0.9130 hc        1 4LL      0.035700
     18 H01A       -0.4690    0.4880    0.4150 hc        1 4LL      0.035700
     19 H01B       -0.3040   -0.8040   -0.8450 hc        1 4LL      0.035700
     20 H02         2.0460   -1.2400   -0.1340 hc        1 4LL      0.042200
     21 H02A        1.8220    0.4820   -0.6300 hc        1 4LL      0.042200
     22 H03         1.5520    1.1450    1.7820 hc        1 4LL      0.050200
     23 H03A        1.7770   -0.5790    2.2800 hc        1 4LL      0.050200
     24 H04         3.8170    1.1260    0.6600 h1        1 4LL      0.043200
     25 H04A        4.0380   -0.6130    1.1480 h1        1 4LL      0.043200
     26 HN05        3.4970    0.7770    3.4790 hn        1 4LL      0.411800
     27 H10        10.2610   -0.2160    3.0900 ha        1 4LL      0.133000
     28 H11        10.9220   -0.5290    5.4810 ha        1 4LL      0.135000
     29 H12         9.2030   -0.4320    7.2820 ha        1 4LL      0.151000
     30 HO14        5.8120    0.1560    6.6650 ho        1 4LL      0.443000
     31 H15         8.4990    0.1980    1.4000 ha        1 4LL      0.140000
     32 H16         6.0900    0.6220    0.8710 ha        1 4LL      0.147000
@<TRIPOS>BOND
     1    1    2 1   
     2    1   17 1   
     3    1   18 1   
     4    1   19 1   
     5    2    3 1   
     6    2   20 1   
     7    2   21 1   
     8    3    4 1   
     9    3   22 1   
    10    3   23 1   
    11    4    5 1   
    12    4   24 1   
    13    4   25 1   
    14    5    6 1   
    15    5   26 1   
    16    6    7 ar  
    17    6   16 ar  
    18    7    8 ar  
    19    8    9 ar  
    20    8   13 ar  
    21    9   10 ar  
    22    9   15 ar  
    23   10   11 ar  
    24   10   27 1   
    25   11   12 ar  
    26   11   28 1   
    27   12   13 ar  
    28   12   29 1   
    29   13   14 1   
    30   14   30 1   
    31   15   16 ar  
    32   15   31 1   
    33   16   32 1   
@<TRIPOS>SUBSTRUCTURE
     1 4LL         1 TEMP              0 ****  ****    0 ROOT
