@<TRIPOS>MOLECULE
4LL
   32    33     1     0     0
SMALL
bcc


@<TRIPOS>ATOM
      1 C01         6.5310    0.5330    0.4280 c3        1 4LL     -0.094100
      2 C02         5.2930   -0.3040    0.2370 c3        1 4LL     -0.078400
      3 C03         4.1180    0.5450   -0.2010 c3        1 4LL     -0.095400
      4 C04         2.8800   -0.3320   -0.3860 c3        1 4LL      0.185800
      5 N05         1.7220    0.3990   -0.8560 nh        1 4LL     -0.833900
      6 C06         0.4520   -0.1060   -0.5110 ca        1 4LL      0.645200
      7 N07        -0.5600    0.7580   -0.3040 nb        1 4LL     -0.753000
      8 C08        -1.8210    0.2550   -0.0890 ca        1 4LL      0.379600
      9 C09        -2.0970   -1.1440   -0.0420 ca        1 4LL     -0.146300
     10 C10        -3.4110   -1.6100    0.1960 ca        1 4LL     -0.140000
     11 C11        -4.4410   -0.7180    0.3850 ca        1 4LL     -0.104000
     12 C12        -4.2060    0.6700    0.3440 ca        1 4LL     -0.162000
     13 C13        -2.9290    1.1560    0.1130 ca        1 4LL      0.078800
     14 O14        -2.7970    2.5230    0.0930 oh        1 4LL     -0.499100
     15 C15        -1.0020   -2.0340   -0.2440 ca        1 4LL     -0.064000
     16 C16         0.2520   -1.5450   -0.4750 ca        1 4LL     -0.258300
     17 H01         6.8130    1.0430   -0.5250 hc        1 4LL      0.035700
     18 H01A        6.3640    1.3150    1.2080 hc        1 4LL      0.035700
     19 H01B        7.3860   -0.1100    0.7500 hc        1 4LL      0.035700
     20 H02         5.4890   -1.0980   -0.5310 hc        1 4LL      0.042200
     21 H02A        5.0400   -0.8270    1.1980 hc        1 4LL      0.042200
     22 H03         3.9190    1.3370    0.5680 hc        1 4LL      0.050200
     23 H03A        4.3690    1.0650   -1.1630 hc        1 4LL      0.050200
     24 H04         3.1080   -1.1260   -1.1560 h1        1 4LL      0.043200
     25 H04A        2.6660   -0.8610    0.5890 h1        1 4LL      0.043200
     26 HN05        1.8120    1.3930   -0.7710 hn        1 4LL      0.411800
     27 H10        -3.5910   -2.6950    0.2250 ha        1 4LL      0.133000
     28 H11        -5.4650   -1.0770    0.5700 ha        1 4LL      0.135000
     29 H12        -5.0350    1.3770    0.4940 ha        1 4LL      0.151000
     30 HO14       -1.8770    2.7510   -0.1060 ho        1 4LL      0.443000
     31 H15        -1.1900   -3.1190   -0.2130 ha        1 4LL      0.140000
     32 H16         1.1030   -2.2170   -0.6470 ha        1 4LL      0.147000
@<TRIPOS>BOND
     1    1    2 1   
     2    1   17 1   
     3    1   18 1   
     4    1   19 1   
     5    2    3 1   
     6    2   20 1   
     7    2   21 1   
     8    3    4 1   
     9    3   22 1   
    10    3   23 1   
    11    4    5 1   
    12    4   24 1   
    13    4   25 1   
    14    5    6 1   
    15    5   26 1   
    16    6    7 ar  
    17    6   16 ar  
    18    7    8 ar  
    19    8    9 ar  
    20    8   13 ar  
    21    9   10 ar  
    22    9   15 ar  
    23   10   11 ar  
    24   10   27 1   
    25   11   12 ar  
    26   11   28 1   
    27   12   13 ar  
    28   12   29 1   
    29   13   14 1   
    30   14   30 1   
    31   15   16 ar  
    32   15   31 1   
    33   16   32 1   
@<TRIPOS>SUBSTRUCTURE
     1 4LL         1 TEMP              0 ****  ****    0 ROOT
