@<TRIPOS>MOLECULE
4LL
   32    33     1     0     0
SMALL
bcc


@<TRIPOS>ATOM
      1 C01         0.0510   -0.4450    0.1500 c3        1 4LL     -0.094100
      2 C02         1.5460   -0.2580    0.1430 c3        1 4LL     -0.078400
      3 C03         2.0510    0.1900    1.4980 c3        1 4LL     -0.095400
      4 C04         3.5680    0.3710    1.4580 c3        1 4LL      0.185800
      5 N05         4.1230    0.8490    2.7060 nh        1 4LL     -0.833900
      6 C06         5.4610    0.5090    2.9950 ca        1 4LL      0.645200
      7 N07         5.8220    0.3110    4.2770 nb        1 4LL     -0.753000
      8 C08         7.1500    0.1000    4.5610 ca        1 4LL      0.379600
      9 C09         8.1570    0.0480    3.5510 ca        1 4LL     -0.146300
     10 C10         9.5090   -0.1850    3.8960 ca        1 4LL     -0.140000
     11 C11         9.8700   -0.3640    5.2110 ca        1 4LL     -0.104000
     12 C12         8.9030   -0.3170    6.2340 ca        1 4LL     -0.162000
     13 C13         7.5710   -0.0900    5.9280 ca        1 4LL      0.078800
     14 O14         6.7010   -0.0650    6.9900 oh        1 4LL     -0.499100
     15 C15         7.7410    0.2390    2.2010 ca        1 4LL     -0.064000
     16 C16         6.4260    0.4650    1.9090 ca        1 4LL     -0.258300
     17 H01        -0.4650    0.5110    0.4090 hc        1 4LL      0.035700
     18 H01A       -0.3020   -0.7740   -0.8570 hc        1 4LL      0.035700
     19 H01B       -0.2470   -1.2180    0.8990 hc        1 4LL      0.035700
     20 H02         2.0450   -1.2220   -0.1440 hc        1 4LL      0.042200
     21 H02A        1.8280    0.5030   -0.6320 hc        1 4LL      0.042200
     22 H03         1.7740   -0.5730    2.2730 hc        1 4LL      0.050200
     23 H03A        1.5550    1.1550    1.7830 hc        1 4LL      0.050200
     24 H04         4.0370   -0.6080    1.1460 h1        1 4LL      0.043200
     25 H04A        3.8220    1.1330    0.6650 h1        1 4LL      0.043200
     26 HN05        3.4960    0.7690    3.4830 hn        1 4LL      0.411800
     27 H10        10.2610   -0.2190    3.0940 ha        1 4LL      0.133000
     28 H11        10.9200   -0.5450    5.4830 ha        1 4LL      0.135000
     29 H12         9.2000   -0.4590    7.2840 ha        1 4LL      0.151000
     30 HO14        5.8090    0.1300    6.6670 ho        1 4LL      0.443000
     31 H15         8.5000    0.2030    1.4050 ha        1 4LL      0.140000
     32 H16         6.0920    0.6290    0.8760 ha        1 4LL      0.147000
@<TRIPOS>BOND
     1    1    2 1   
     2    1   17 1   
     3    1   18 1   
     4    1   19 1   
     5    2    3 1   
     6    2   20 1   
     7    2   21 1   
     8    3    4 1   
     9    3   22 1   
    10    3   23 1   
    11    4    5 1   
    12    4   24 1   
    13    4   25 1   
    14    5    6 1   
    15    5   26 1   
    16    6    7 ar  
    17    6   16 ar  
    18    7    8 ar  
    19    8    9 ar  
    20    8   13 ar  
    21    9   10 ar  
    22    9   15 ar  
    23   10   11 ar  
    24   10   27 1   
    25   11   12 ar  
    26   11   28 1   
    27   12   13 ar  
    28   12   29 1   
    29   13   14 1   
    30   14   30 1   
    31   15   16 ar  
    32   15   31 1   
    33   16   32 1   
@<TRIPOS>SUBSTRUCTURE
     1 4LL         1 TEMP              0 ****  ****    0 ROOT
