@<TRIPOS>MOLECULE
4LL
   32    29     1     0     0
SMALL
bcc


@<TRIPOS>ATOM
      1 C01        -5.2820    0.9330   -2.0590 c3        1 4LL     -0.211000
      2 C02        -3.7980    1.2740   -1.9510 c3        1 4LL     -0.157000
      3 C03        -3.0350    0.0620   -1.4280 c3        1 4LL     -0.174000
      4 C04        -1.5320    0.3830   -1.3800 c3        1 4LL     -0.052000
      5 N05        -0.8920   -0.4440   -0.3790 n3        1 4LL     -0.275000
      6 C06         0.5620   -0.5210   -0.3180 c2        1 4LL      0.108000
      7 N07         0.7990   -0.5910    1.0310 n2        1 4LL     -0.174000
      8 C08         2.1030   -0.5100    1.5150 c1        1 4LL      0.031000
      9 C09         3.1540   -0.3610    0.6400 c1        1 4LL     -0.088000
     10 C10         4.4780   -0.3090    1.1300 c1        1 4LL     -0.104500
     11 C11         4.7190   -0.4090    2.4990 c1        1 4LL     -0.162000
     12 C12         3.6550   -0.5610    3.3840 c1        1 4LL     -0.162000
     13 C13         2.3490   -0.6120    2.9020 c1        1 4LL      0.103000
     14 O14         1.2960   -0.6000    3.8420 oh        1 4LL     -0.224000
     15 C15         2.9140   -0.2900   -0.7280 c1        1 4LL     -0.104500
     16 C16         1.6250   -0.3700   -1.2050 c1        1 4LL     -0.189000
     17 H01        -5.7680    1.7000   -2.4250 hc        1 4LL      0.074667
     18 H01A       -5.3970    0.1590   -2.6520 hc        1 4LL      0.074667
     19 H01B       -5.6350    0.7170   -1.1650 hc        1 4LL      0.074667
     20 H02        -3.4550    1.5200   -2.8340 hc        1 4LL      0.080500
     21 H02A       -3.6800    2.0260   -1.3330 hc        1 4LL      0.080500
     22 H03        -3.3480   -0.1570   -0.5360 hc        1 4LL      0.089500
     23 H03A       -3.1860   -0.6960   -2.0210 hc        1 4LL      0.089500
     24 H04        -1.1310    0.2030   -2.2570 h1        1 4LL      0.081000
     25 H04A       -1.4070    1.3280   -1.1510 h1        1 4LL      0.081000
     26 HN05       -1.3990   -0.9350    0.1980 hn        1 4LL      0.209000
     27 H10         5.2270   -0.2030    0.5080 ha        1 4LL      0.136000
     28 H11         5.6370   -0.3740    2.8380 ha        1 4LL      0.134000
     29 H12         3.8260   -0.6310    4.3510 ha        1 4LL      0.134000
     30 HO14        1.4820   -1.1630    4.5010 ho        1 4LL      0.213000
     31 H15         3.6570   -0.1850   -1.3480 ha        1 4LL      0.136000
     32 H16         1.4620   -0.3840   -2.1690 ha        1 4LL      0.146000
@<TRIPOS>BOND
     1    1    2 1   
     2    1   17 1   
     3    1   18 1   
     4    1   19 1   
     5    2    3 1   
     6    2   20 1   
     7    2   21 1   
     8    3    4 1   
     9    3   22 1   
    10    3   23 1   
    11    4    5 1   
    12    4   24 1   
    13    4   25 1   
    14    5    6 1   
    15    5   26 1   
    16    6    7 1   
    17    6   16 1   
    18    7    8 1   
    19    8   13 1   
    20    9   10 1   
    21    9   15 1   
    22   10   27 1   
    23   11   12 1   
    24   11   28 1   
    25   12   29 1   
    26   13   14 1   
    27   14   30 1   
    28   15   31 1   
    29   16   32 1   
@<TRIPOS>SUBSTRUCTURE
     1 4LL         1 TEMP              0 ****  ****    0 ROOT
