@<TRIPOS>MOLECULE
4LL
   33    34     1     0     0
SMALL
bcc


@<TRIPOS>ATOM
      1 C01         0.1220    0.6970    0.1580 c3        1 4LL     -0.100100
      2 C02         1.5340    0.9350    0.6280 c3        1 4LL     -0.076400
      3 C03         2.0720   -0.2830    1.3560 c3        1 4LL     -0.112400
      4 C04         3.4970   -0.0050    1.8130 c3        1 4LL      0.105800
      5 N05         4.0930   -1.1710    2.5420 n4        1 4LL     -0.742700
      6 C06         5.5100   -0.9230    2.9060 ca        1 4LL      0.447200
      7 N07         5.7330   -0.1200    3.9490 nb        1 4LL     -0.594000
      8 C08         7.0360    0.1170    4.3070 ca        1 4LL      0.376600
      9 C09         8.1360   -0.4700    3.5920 ca        1 4LL     -0.089300
     10 C10         9.4650   -0.2080    3.9880 ca        1 4LL     -0.153000
     11 C11         9.7220    0.6140    5.0650 ca        1 4LL     -0.036000
     12 C12         8.6690    1.2050    5.7860 ca        1 4LL     -0.208000
     13 C13         7.3480    0.9730    5.4280 ca        1 4LL      0.117800
     14 O14         6.2930    1.5280    6.0980 oh        1 4LL     -0.466100
     15 C15         7.8370   -1.3160    2.4850 ca        1 4LL     -0.045000
     16 C16         6.5340   -1.5550    2.1230 ca        1 4LL     -0.233300
     17 H01        -0.2580    1.6030   -0.3750 hc        1 4LL      0.050700
     18 H01A        0.0760   -0.1700   -0.5450 hc        1 4LL      0.050700
     19 H01B       -0.5550    0.4880    1.0220 hc        1 4LL      0.050700
     20 H02         2.1910    1.1680   -0.2520 hc        1 4LL      0.055200
     21 H02A        1.5600    1.8240    1.3120 hc        1 4LL      0.055200
     22 H03         2.0430   -1.1700    0.6680 hc        1 4LL      0.064700
     23 H03A        1.4130   -0.5100    2.2360 hc        1 4LL      0.064700
     24 H04         4.1570    0.2200    0.9270 hx        1 4LL      0.114200
     25 H04A        3.5180    0.8820    2.5100 hx        1 4LL      0.114200
     26 HN05        4.0590   -2.0060    1.9470 hn        1 4LL      0.459300
     27 H10        10.2920   -0.6700    3.4250 ha        1 4LL      0.161000
     28 H11        10.7610    0.8180    5.3750 ha        1 4LL      0.165000
     29 H12         8.9000    1.8580    6.6430 ha        1 4LL      0.164000
     30 HO14        6.6420    2.0690    6.8270 ho        1 4LL      0.443000
     31 H15         8.6690   -1.7750    1.9240 ha        1 4LL      0.175000
     32 H16         6.2880   -2.2040    1.2710 ha        1 4LL      0.162000
     33 H052        3.5420   -1.3510    3.3920 hn        1 4LL      0.459300
@<TRIPOS>BOND
     1    1    2 1   
     2    1   17 1   
     3    1   18 1   
     4    1   19 1   
     5    2    3 1   
     6    2   20 1   
     7    2   21 1   
     8    3    4 1   
     9    3   22 1   
    10    3   23 1   
    11    4    5 1   
    12    4   24 1   
    13    4   25 1   
    14    5    6 1   
    15    5   26 1   
    16    5   33 1   
    17    6    7 ar  
    18    6   16 ar  
    19    7    8 ar  
    20    8    9 ar  
    21    8   13 ar  
    22    9   10 ar  
    23    9   15 ar  
    24   10   11 ar  
    25   10   27 1   
    26   11   12 ar  
    27   11   28 1   
    28   12   13 ar  
    29   12   29 1   
    30   13   14 1   
    31   14   30 1   
    32   15   16 ar  
    33   15   31 1   
    34   16   32 1   
@<TRIPOS>SUBSTRUCTURE
     1 4LL         1 TEMP              0 ****  ****    0 ROOT
