@<TRIPOS>MOLECULE
4LM
   34    32     1     0     0
SMALL
bcc


@<TRIPOS>ATOM
      1 C        -247.2330  352.1840   69.9460 c2        1 4LM      0.363000
      2 N        -249.1820  352.4430   68.4280 n2        1 4LM     -0.366000
      3 O1       -246.6400  351.0650   69.8750 o         1 4LM     -0.602000
      4 N1       -252.3330  352.4150   64.4640 n2        1 4LM     -0.128000
      5 C2       -251.1150  351.7590   64.6940 c2        1 4LM     -0.280000
      6 C3       -250.2540  352.1650   65.7020 c2        1 4LM      0.129000
      7 O3       -249.0590  351.5230   65.8050 oh        1 4LM     -0.303000
      8 C4       -250.5540  353.3030   66.6260 c3        1 4LM     -0.113000
      9 C5       -252.0230  353.7130   66.5730 c3        1 4LM     -0.115000
     10 C6       -252.7180  353.3110   65.3160 c2        1 4LM     -0.172000
     11 CA       -248.7550  352.2290   69.7370 c2        1 4LM      0.075000
     12 CB       -249.5800  351.9680   70.7870 c2        1 4LM     -0.348000
     13 CG       -249.1120  351.6080   72.1340 c3        1 4LM     -0.123000
     14 C4A      -250.2040  353.1690   68.1100 c1        1 4LM     -0.300000
     15 C5A      1175.6920-1649.2590 -296.2600 c1        1 4LM      0.201000
     16 OP1      1173.1680-1649.8820 -297.3420 o         1 4LM     -1.130333
     17 OP2      1172.8150-1652.3090 -296.6310 o         1 4LM     -1.130333
     18 OP3      1173.6870-1651.7750 -298.9740 o         1 4LM     -1.130333
     19 OP4      1175.3380-1650.3120 -296.6320 o         1 4LM     -0.200000
     20 O2       -246.6190  353.2580   70.2200 o         1 4LM     -0.602000
     21 HO3      -248.6840  351.7010   66.7080 ho        1 4LM      0.300000
     22 H6       -253.6830  353.8090   65.1070 h4        1 4LM      0.095000
     23 HB       -250.6720  352.0240   70.6650 ha        1 4LM      0.087000
     24 HG       -249.4130  352.3880   72.8820 hc        1 4LM      0.035667
     25 HGA      -249.5650  350.6380   72.4680 hc        1 4LM      0.035667
     26 HGB      -247.9990  351.5030   72.1640 hc        1 4LM      0.035667
     27 H2A      -249.8990  350.0640   64.2090 hc        1 4LM      0.050667
     28 H2A1     -251.6300  349.9180   63.6790 hc        1 4LM      0.050667
     29 H2A2     -250.4970  350.9990   62.7730 hc        1 4LM      0.050667
     30 H4A      -249.9190  354.1630   66.2560 hc        1 4LM      0.084000
     31 H5A      -252.5610  353.2480   67.4460 hc        1 4LM      0.082500
     32 H5A1     -252.0940  354.8240   66.7060 hc        1 4LM      0.082500
     33 C2A      -250.7710  350.6270   63.7930 c3        1 4LM     -0.107000
     34 P        1173.2400-1651.3270 -297.6440 p3        1 4LM      2.389000
@<TRIPOS>BOND
     1    1    3 1   
     2    1   11 1   
     3    1   20 1   
     4    2   11 1   
     5    2   14 1   
     6    4    5 1   
     7    4   10 1   
     8    5    6 1   
     9    5   33 1   
    10    6    7 1   
    11    6    8 1   
    12    7   21 1   
    13    8    9 1   
    14    8   14 1   
    15    8   30 1   
    16    9   10 1   
    17    9   31 1   
    18    9   32 1   
    19   10   22 1   
    20   11   12 1   
    21   12   13 1   
    22   12   23 1   
    23   13   24 1   
    24   13   25 1   
    25   13   26 1   
    26   15   19 1   
    27   16   34 1   
    28   17   34 1   
    29   18   34 1   
    30   27   33 1   
    31   28   33 1   
    32   29   33 1   
@<TRIPOS>SUBSTRUCTURE
     1 4LM         1 TEMP              0 ****  ****    0 ROOT
