@<TRIPOS>MOLECULE
4LM
   34    34     1     0     0
SMALL
bcc


@<TRIPOS>ATOM
      1 C           5.1570   -0.3860    0.4200 c         1 4LM      0.926800
      2 N           2.8300    0.2980   -0.1670 ne        1 4LM     -0.616300
      3 O1          6.1340   -0.3260   -0.3810 o         1 4LM     -0.844300
      4 N1         -1.4290    3.1980    0.2230 nb        1 4LM     -0.672000
      5 C2         -0.1320    3.4960    0.5090 ca        1 4LM      0.290600
      6 C3          0.8880    2.5160    0.4650 ca        1 4LM      0.027800
      7 O3          2.1450    2.9750    0.7870 oh        1 4LM     -0.540100
      8 C4          0.5700    1.1740    0.1310 ca        1 4LM     -0.217900
      9 C5         -0.7680    0.8810   -0.1660 ca        1 4LM     -0.127600
     10 C6         -1.7240    1.9400   -0.1040 ca        1 4LM      0.353200
     11 CA          3.7700   -0.7490   -0.1440 ce        1 4LM      0.078400
     12 CB          3.5250   -1.9910   -0.6260 c2        1 4LM     -0.258200
     13 CG          4.5370   -3.0590   -0.7050 c3        1 4LM     -0.032900
     14 C4A         1.5870    0.1110    0.1380 cf        1 4LM      0.494800
     15 C5A        -1.3020   -0.4680   -0.5950 c3        1 4LM      0.244700
     16 OP1        -4.8330   -1.7210   -0.3450 o         1 4LM     -0.924500
     17 OP2        -3.2920   -1.3190   -2.3460 o         1 4LM     -0.924500
     18 OP3        -4.2580    0.6610   -1.0780 o         1 4LM     -0.924500
     19 OP4        -2.5040   -0.7670   -0.0090 os        1 4LM     -0.563200
     20 O2          5.2620   -0.2050    1.6650 o         1 4LM     -0.844300
     21 HO3         2.7840    2.2510    0.6910 ho        1 4LM      0.454000
     22 H6         -2.8030    1.6670   -0.3600 h4        1 4LM      0.151100
     23 HB          2.5290   -2.2650   -1.0130 ha        1 4LM      0.105000
     24 HG          4.5400   -3.5180   -1.7270 hc        1 4LM      0.020367
     25 HGA         5.5630   -2.6640   -0.4920 hc        1 4LM      0.020367
     26 HGB         4.3030   -3.8690    0.0320 hc        1 4LM      0.020367
     27 H2A         0.6690    4.8960    1.9170 hc        1 4LM      0.019033
     28 H2A1        1.0420    5.2560    0.1850 hc        1 4LM      0.019033
     29 H2A2       -0.6200    5.5920    0.8420 hc        1 4LM      0.019033
     30 H4A         1.1860   -0.8820    0.4490 h4        1 4LM     -0.010200
     31 H5A        -1.4000   -0.4540   -1.7250 h1        1 4LM      0.020700
     32 H5A1       -0.5480   -1.2630   -0.3160 h1        1 4LM      0.020700
     33 C2A         0.2470    4.8900    0.8810 c3        1 4LM     -0.104400
     34 P          -3.8870   -0.8030   -1.0630 p5        1 4LM      1.316900
@<TRIPOS>BOND
     1    1    3 1   
     2    1   11 1   
     3    1   20 1   
     4    2   11 1   
     5    2   14 2   
     6    4    5 ar  
     7    4   10 ar  
     8    5    6 ar  
     9    5   33 1   
    10    6    7 1   
    11    6    8 ar  
    12    7   21 1   
    13    8    9 ar  
    14    8   14 1   
    15    9   10 ar  
    16    9   15 1   
    17   10   22 1   
    18   11   12 2   
    19   12   13 1   
    20   12   23 1   
    21   13   24 1   
    22   13   25 1   
    23   13   26 1   
    24   14   30 1   
    25   15   19 1   
    26   15   31 1   
    27   15   32 1   
    28   16   34 1   
    29   17   34 1   
    30   18   34 1   
    31   19   34 1   
    32   27   33 1   
    33   28   33 1   
    34   29   33 1   
@<TRIPOS>SUBSTRUCTURE
     1 4LM         1 TEMP              0 ****  ****    0 ROOT
