@<TRIPOS>MOLECULE
4LM
   34    32     1     0     0
SMALL
bcc


@<TRIPOS>ATOM
      1 C        -121.7070  150.4060   15.1880 c2        1 4LM      0.363000
      2 N        -119.4590  149.4400   14.7590 n2        1 4LM     -0.366000
      3 O1       -122.2250  150.1000   16.3040 o         1 4LM     -0.602000
      4 N1       -114.6860  147.8070   15.0910 n2        1 4LM     -0.128000
      5 C2       -115.6150  148.1840   16.0710 c2        1 4LM     -0.280000
      6 C3       -116.7390  148.9290   15.7540 c2        1 4LM      0.129000
      7 O3       -117.5440  149.3230   16.7780 oh        1 4LM     -0.303000
      8 C4       -117.0690  149.3620   14.3610 c3        1 4LM     -0.113000
      9 C5       -116.2330  148.6310   13.3140 c3        1 4LM     -0.115000
     10 C6       -114.9750  148.0360   13.8500 c2        1 4LM     -0.172000
     11 CA       -120.8210  149.3720   14.4750 c2        1 4LM      0.075000
     12 CB       -121.4020  148.4090   13.7100 c2        1 4LM     -0.348000
     13 CG       -122.8550  148.2600   13.5360 c3        1 4LM     -0.123000
     14 C4A      -118.5220  149.2660   13.8830 c1        1 4LM     -0.300000
     15 C5A       557.9470 -699.3940  -51.4210 c1        1 4LM      0.201000
     16 OP1       560.1110 -701.0990  -52.0030 o         1 4LM     -1.130333
     17 OP2       559.4060 -703.3180  -50.9550 o         1 4LM     -1.130333
     18 OP3       560.9740 -701.7450  -49.6890 o         1 4LM     -1.130333
     19 OP4       558.3160 -700.2940  -50.7680 o         1 4LM     -0.200000
     20 O2       -121.9240  151.5190   14.6230 o         1 4LM     -0.602000
     21 HO3      -118.4300  149.5690   16.4030 ho        1 4LM      0.300000
     22 H6       -114.2220  147.7270   13.1020 h4        1 4LM      0.095000
     23 HB       -120.7840  147.6780   13.1680 ha        1 4LM      0.087000
     24 HG       -123.1860  147.2220   13.8030 hc        1 4LM      0.035667
     25 HGA      -123.4180  148.9840   14.1770 hc        1 4LM      0.035667
     26 HGB      -123.1480  148.4340   12.4670 hc        1 4LM      0.035667
     27 H2A      -114.4740  148.3610   17.8930 hc        1 4LM      0.050667
     28 H2A1     -116.2300  147.9570   18.1100 hc        1 4LM      0.050667
     29 H2A2     -115.0640  146.6890   17.5350 hc        1 4LM      0.050667
     30 H4A      -116.8250  150.4660   14.3220 hc        1 4LM      0.084000
     31 H5A      -116.8560  147.8100   12.8610 hc        1 4LM      0.082500
     32 H5A1     -115.9890  149.3450   12.4840 hc        1 4LM      0.082500
     33 C2A      -115.3300  147.7740   17.4730 c3        1 4LM     -0.107000
     34 P         560.1500 -702.0490  -50.8710 p3        1 4LM      2.389000
@<TRIPOS>BOND
     1    1    3 1   
     2    1   11 1   
     3    1   20 1   
     4    2   11 1   
     5    2   14 1   
     6    4    5 1   
     7    4   10 1   
     8    5    6 1   
     9    5   33 1   
    10    6    7 1   
    11    6    8 1   
    12    7   21 1   
    13    8    9 1   
    14    8   14 1   
    15    8   30 1   
    16    9   10 1   
    17    9   31 1   
    18    9   32 1   
    19   10   22 1   
    20   11   12 1   
    21   12   13 1   
    22   12   23 1   
    23   13   24 1   
    24   13   25 1   
    25   13   26 1   
    26   15   19 1   
    27   16   34 1   
    28   17   34 1   
    29   18   34 1   
    30   27   33 1   
    31   28   33 1   
    32   29   33 1   
@<TRIPOS>SUBSTRUCTURE
     1 4LM         1 TEMP              0 ****  ****    0 ROOT
