@<TRIPOS>MOLECULE
4LM
   34    27     1     0     0
SMALL
bcc


@<TRIPOS>ATOM
      1 C          -0.2780   -1.8500   -2.3650 c1        1 4LM      0.374000
      2 N          -2.1630   -0.8580   -0.9370 n1        1 4LM     -0.173000
      3 O1          0.9660   -1.9610   -2.2450 o         1 4LM     -0.579000
      4 P          -1.2400    1.8790    4.3610 p3        1 4LM      2.508000
      5 N1          2.2240    1.6600    0.0520 n1        1 4LM     -0.150000
      6 C2          1.7240    1.5640   -1.2200 c1        1 4LM     -0.128000
      7 C3          0.4430    1.0810   -1.4280 c1        1 4LM      0.051000
      8 O3         -0.0320    0.8800   -2.7520 oh        1 4LM     -0.294000
      9 C4         -0.3300    0.6960   -0.3560 c1        1 4LM     -0.177000
     10 C5          0.1740    0.7920    0.9210 c1        1 4LM     -0.058000
     11 C6          1.4590    1.2780    1.1230 c1        1 4LM     -0.107000
     12 CA         -1.1580   -1.8900   -1.1450 c1        1 4LM     -0.069000
     13 CB         -1.0150   -2.8980   -0.2330 c1        1 4LM     -0.233000
     14 CG          0.0490   -3.9930   -0.4530 c2        1 4LM     -0.159000
     15 C2A         2.5430    2.0660   -2.4000 c3        1 4LM     -0.129000
     16 C4A        -1.7930    0.3740   -0.5630 c2        1 4LM      0.012000
     17 C5A        -0.7610    0.5580    2.1380 c3        1 4LM      0.083000
     18 OP1        -0.7020    1.6900    5.7640 o         1 4LM     -1.243000
     19 OP2        -2.5840    1.2050    4.2430 os        1 4LM     -1.254000
     20 OP3        -1.3910    3.3570    4.0750 o         1 4LM     -1.243000
     21 OP4        -0.2170    1.2270    3.3000 os        1 4LM     -0.724000
     22 O2         -0.7930   -1.7670   -3.5100 o         1 4LM     -0.579000
     23 HO3         0.6130    1.0770   -3.3310 ho        1 4LM      0.266000
     24 H6          1.8150    1.3460    2.0210 ha        1 4LM      0.280000
     25 HB         -1.5880   -2.9240    0.5610 ha        1 4LM      0.115000
     26 HG          0.0010   -4.3140   -1.3820 ha        1 4LM      0.060000
     27 HGA        -0.1210   -4.7460    0.1650 ha        1 4LM      0.060000
     28 HGB         0.9410   -3.6230   -0.2790 ha        1 4LM      0.060000
     29 H2A         2.7290    1.3210   -3.0070 hc        1 4LM      0.058667
     30 H2A1        3.3920    2.4440   -2.0750 hc        1 4LM      0.058667
     31 H2A2        2.0380    2.7580   -2.8780 hc        1 4LM      0.058667
     32 H4A        -2.4670    1.0630   -0.4250 h4        1 4LM      0.134000
     33 H5A        -1.6510    0.9170    1.9410 h1        1 4LM      0.060000
     34 H5A1       -0.8290   -0.4080    2.3180 h1        1 4LM      0.060000
@<TRIPOS>BOND
     1    1    3 1   
     2    1   22 1   
     3    2   16 1   
     4    4   18 1   
     5    4   20 1   
     6    4   21 1   
     7    5    6 1   
     8    6   15 1   
     9    7    8 1   
    10    7    9 1   
    11    8   23 1   
    12    9   16 1   
    13   10   11 1   
    14   10   17 1   
    15   11   24 1   
    16   12   13 1   
    17   13   25 1   
    18   14   26 1   
    19   14   27 1   
    20   14   28 1   
    21   15   29 1   
    22   15   30 1   
    23   15   31 1   
    24   16   32 1   
    25   17   21 1   
    26   17   33 1   
    27   17   34 1   
@<TRIPOS>SUBSTRUCTURE
     1 4LM         1 TEMP              0 ****  ****    0 ROOT
