@<TRIPOS>MOLECULE
4LN
   53    57     1     0     0
SMALL
bcc


@<TRIPOS>ATOM
      1 O           0.5880   -2.0350    0.4370 o         1 4LN     -0.434100
      2 C13         1.6130   -1.3630    0.4660 c         1 4LN      0.575700
      3 C14         2.1830   -0.6850    1.6320 ca        1 4LN     -0.230600
      4 C19         1.2850   -0.2560    2.6250 ca        1 4LN     -0.037500
      5 C18         1.7460    0.3760    3.7700 ca        1 4LN     -0.164500
      6 C17         3.1340    0.5830    3.9690 ca        1 4LN      0.118800
      7 N3          3.6050    1.2180    5.1120 na        1 4LN     -0.311800
      8 C21         2.8700    1.6120    6.2650 cc        1 4LN      0.384900
      9 N5          3.7190    2.1960    7.1360 nd        1 4LN     -0.307500
     10 N4          4.9490    2.2070    6.6220 nd        1 4LN     -0.307500
     11 C20         4.9360    1.6270    5.4050 cc        1 4LN      0.384900
     12 C16         4.0320    0.1210    2.9710 ca        1 4LN     -0.164500
     13 C15         3.5600   -0.5000    1.8260 ca        1 4LN     -0.037500
     14 N2          2.3560   -1.2260   -0.8380 ny        1 4LN     -0.673800
     15 C9          1.6000   -0.4420   -1.9140 c3        1 4LN      0.159200
     16 C12         1.0800    0.8760   -1.3500 c3        1 4LN     -0.125100
     17 C8          2.5960   -0.1550   -3.0660 c3        1 4LN     -0.004200
     18 C7          2.9760   -1.4210   -3.6890 cc        1 4LN     -0.354800
     19 C5          4.1120   -1.7810   -4.4470 cd        1 4LN     -0.016300
     20 C4          5.3280   -1.1290   -4.8220 cd        1 4LN      0.120100
     21 O1          5.4910    0.1420   -4.3240 oh        1 4LN     -0.498100
     22 C3          6.2420   -1.7930   -5.6090 cc        1 4LN     -0.172000
     23 C2          5.9730   -3.1200   -6.0300 cc        1 4LN     -0.135000
     24 C10         0.4250   -1.2750   -2.4630 c3        1 4LN     -0.096400
     25 C11         0.8170   -2.6350   -3.0190 c3        1 4LN     -0.104700
     26 C6          2.1260   -2.5850   -3.7090 cc        1 4LN      0.339600
     27 N1          2.7030   -3.5970   -4.4280 nd        1 4LN     -0.526100
     28 N           3.8780   -3.1220   -4.8730 na        1 4LN      0.220000
     29 C1          4.8170   -3.7900   -5.6750 cd        1 4LN     -0.005600
     30 C           4.5380   -5.1830   -6.1190 c3        1 4LN     -0.055800
     31 H18         0.2020   -0.4260    2.4920 ha        1 4LN      0.154000
     32 H17         1.0130    0.7090    4.5240 ha        1 4LN      0.168500
     33 H20         1.7970    1.4450    6.3980 h5        1 4LN      0.083100
     34 H19         5.7860    1.4870    4.7310 h5        1 4LN      0.083100
     35 H16         5.1210    0.2400    3.1020 ha        1 4LN      0.168500
     36 H15         4.3010   -0.8730    1.1010 ha        1 4LN      0.154000
     37 H14         3.2500   -0.7520   -0.6830 hn        1 4LN      0.461300
     38 H13         1.9180    1.5280   -1.0010 hc        1 4LN      0.072700
     39 H12         0.5330    1.4170   -2.1630 hc        1 4LN      0.072700
     40 H11         0.3680    0.7040   -0.5070 hc        1 4LN      0.072700
     41 H5          3.4960    0.4150   -2.7070 hc        1 4LN      0.087200
     42 H6          2.0670    0.5060   -3.8080 hc        1 4LN      0.087200
     43 H21         6.2640    0.5320   -4.7620 ho        1 4LN      0.440000
     44 H4          7.1800   -1.3120   -5.9230 ha        1 4LN      0.160000
     45 H3          6.7130   -3.6340   -6.6640 ha        1 4LN      0.172000
     46 H8         -0.0390   -0.6590   -3.2810 hc        1 4LN      0.088200
     47 H7         -0.3490   -1.4150   -1.6630 hc        1 4LN      0.088200
     48 H10         0.0170   -2.9750   -3.7350 hc        1 4LN      0.084200
     49 H9          0.8480   -3.3980   -2.1930 hc        1 4LN      0.084200
     50 H2          4.4110   -5.8620   -5.2380 hc        1 4LN      0.072367
     51 H1          3.5990   -5.2220   -6.7280 hc        1 4LN      0.072367
     52 H           5.3860   -5.5580   -6.7430 hc        1 4LN      0.072367
     53 H22         2.5380   -2.1620   -1.2300 hn        1 4LN      0.461300
@<TRIPOS>BOND
     1    1    2 2   
     2    2    3 1   
     3    2   14 1   
     4    3    4 ar  
     5    3   13 ar  
     6    4    5 ar  
     7    4   31 1   
     8    5    6 ar  
     9    5   32 1   
    10    6    7 1   
    11    6   12 ar  
    12    7    8 1   
    13    7   11 1   
    14    8    9 2   
    15    8   33 1   
    16    9   10 1   
    17   10   11 2   
    18   11   34 1   
    19   12   13 ar  
    20   12   35 1   
    21   13   36 1   
    22   14   15 1   
    23   14   37 1   
    24   14   53 1   
    25   15   16 1   
    26   15   17 1   
    27   15   24 1   
    28   16   38 1   
    29   16   39 1   
    30   16   40 1   
    31   17   18 1   
    32   17   41 1   
    33   17   42 1   
    34   18   19 2   
    35   18   26 1   
    36   19   20 1   
    37   19   28 1   
    38   20   21 1   
    39   20   22 2   
    40   21   43 1   
    41   22   23 1   
    42   22   44 1   
    43   23   29 2   
    44   23   45 1   
    45   24   25 1   
    46   24   46 1   
    47   24   47 1   
    48   25   26 1   
    49   25   48 1   
    50   25   49 1   
    51   26   27 2   
    52   27   28 1   
    53   28   29 1   
    54   29   30 1   
    55   30   50 1   
    56   30   51 1   
    57   30   52 1   
@<TRIPOS>SUBSTRUCTURE
     1 4LN         1 TEMP              0 ****  ****    0 ROOT
