@<TRIPOS>MOLECULE
4LN
   53    57     1     0     0
SMALL
bcc


@<TRIPOS>ATOM
      1 O           0.5720   -2.0200    0.4240 o         1 4LN     -0.434100
      2 C13         1.6040   -1.3570    0.4590 c         1 4LN      0.575700
      3 C14         2.1750   -0.6880    1.6290 ca        1 4LN     -0.230600
      4 C19         1.2770   -0.2520    2.6200 ca        1 4LN     -0.037500
      5 C18         1.7390    0.3720    3.7680 ca        1 4LN     -0.164500
      6 C17         3.1280    0.5660    3.9730 ca        1 4LN      0.118800
      7 N3          3.6010    1.1930    5.1200 na        1 4LN     -0.311800
      8 C21         2.8650    1.5920    6.2710 cc        1 4LN      0.384900
      9 N5          3.7160    2.1660    7.1460 nd        1 4LN     -0.307500
     10 N4          4.9480    2.1660    6.6380 nd        1 4LN     -0.307500
     11 C20         4.9350    1.5890    5.4190 cc        1 4LN      0.384900
     12 C16         4.0270    0.0980    2.9780 ca        1 4LN     -0.164500
     13 C15         3.5530   -0.5160    1.8290 ca        1 4LN     -0.037500
     14 N2          2.3520   -1.2250   -0.8420 n4        1 4LN     -0.673800
     15 C9          1.6090   -0.4310   -1.9190 c3        1 4LN      0.159200
     16 C12         1.0990    0.8910   -1.3550 c3        1 4LN     -0.125100
     17 C8          2.6120   -0.1510   -3.0670 c3        1 4LN     -0.004200
     18 C7          2.9820   -1.4190   -3.6910 cc        1 4LN     -0.354800
     19 C5          4.1180   -1.7890   -4.4440 cd        1 4LN     -0.016300
     20 C4          5.3420   -1.1480   -4.8130 cd        1 4LN      0.120100
     21 O1          5.5140    0.1210   -4.3130 oh        1 4LN     -0.498100
     22 C3          6.2530   -1.8190   -5.5970 cc        1 4LN     -0.172000
     23 C2          5.9730   -3.1430   -6.0220 cc        1 4LN     -0.135000
     24 C10         0.4280   -1.2520   -2.4750 c3        1 4LN     -0.096400
     25 C11         0.8100   -2.6140   -3.0310 c3        1 4LN     -0.104700
     26 C6          2.1220   -2.5760   -3.7160 cc        1 4LN      0.339600
     27 N1          2.6920   -3.5920   -4.4340 nd        1 4LN     -0.526100
     28 N           3.8730   -3.1270   -4.8730 na        1 4LN      0.220000
     29 C1          4.8100   -3.8030   -5.6730 cd        1 4LN     -0.005600
     30 C           4.5190   -5.1920   -6.1200 c3        1 4LN     -0.055800
     31 H18         0.1930   -0.4120    2.4820 ha        1 4LN      0.154000
     32 H17         1.0070    0.7110    4.5200 ha        1 4LN      0.168500
     33 H20         1.7900    1.4360    6.3980 h5        1 4LN      0.083100
     34 H19         5.7860    1.4410    4.7480 h5        1 4LN      0.083100
     35 H16         5.1150    0.2060    3.1130 ha        1 4LN      0.168500
     36 H15         4.2930   -0.8940    1.1060 ha        1 4LN      0.154000
     37 H14         3.2500   -0.7590   -0.6820 hn        1 4LN      0.461300
     38 H13         1.9410    1.5340   -1.0010 hc        1 4LN      0.072700
     39 H12         0.5610    1.4380   -2.1690 hc        1 4LN      0.072700
     40 H11         0.3820    0.7240   -0.5150 hc        1 4LN      0.072700
     41 H5          3.5150    0.4090   -2.7030 hc        1 4LN      0.087200
     42 H6          2.0920    0.5160   -3.8090 hc        1 4LN      0.087200
     43 H21         6.2930    0.5050   -4.7470 ho        1 4LN      0.440000
     44 H4          7.1970   -1.3460   -5.9070 ha        1 4LN      0.160000
     45 H3          6.7110   -3.6620   -6.6540 ha        1 4LN      0.172000
     46 H8         -0.0260   -0.6300   -3.2930 hc        1 4LN      0.088200
     47 H7         -0.3510   -1.3870   -1.6770 hc        1 4LN      0.088200
     48 H10         0.8300   -3.3800   -2.2070 hc        1 4LN      0.084200
     49 H9          0.0100   -2.9460   -3.7510 hc        1 4LN      0.084200
     50 H2          5.3670   -5.5730   -6.7420 hc        1 4LN      0.072367
     51 H1          3.5830   -5.2210   -6.7330 hc        1 4LN      0.072367
     52 H           4.3830   -5.8710   -5.2410 hc        1 4LN      0.072367
     53 H22         2.5280   -2.1610   -1.2340 hn        1 4LN      0.461300
@<TRIPOS>BOND
     1    1    2 2   
     2    2    3 1   
     3    2   14 1   
     4    3    4 ar  
     5    3   13 ar  
     6    4    5 ar  
     7    4   31 1   
     8    5    6 ar  
     9    5   32 1   
    10    6    7 1   
    11    6   12 ar  
    12    7    8 1   
    13    7   11 1   
    14    8    9 2   
    15    8   33 1   
    16    9   10 1   
    17   10   11 2   
    18   11   34 1   
    19   12   13 ar  
    20   12   35 1   
    21   13   36 1   
    22   14   15 1   
    23   14   37 1   
    24   14   53 1   
    25   15   16 1   
    26   15   17 1   
    27   15   24 1   
    28   16   38 1   
    29   16   39 1   
    30   16   40 1   
    31   17   18 1   
    32   17   41 1   
    33   17   42 1   
    34   18   19 2   
    35   18   26 1   
    36   19   20 1   
    37   19   28 1   
    38   20   21 1   
    39   20   22 2   
    40   21   43 1   
    41   22   23 1   
    42   22   44 1   
    43   23   29 2   
    44   23   45 1   
    45   24   25 1   
    46   24   46 1   
    47   24   47 1   
    48   25   26 1   
    49   25   48 1   
    50   25   49 1   
    51   26   27 2   
    52   27   28 1   
    53   28   29 1   
    54   29   30 1   
    55   30   50 1   
    56   30   51 1   
    57   30   52 1   
@<TRIPOS>SUBSTRUCTURE
     1 4LN         1 TEMP              0 ****  ****    0 ROOT
