@<TRIPOS>MOLECULE
4LP
   63    79     1     0     0
SMALL
bcc


@<TRIPOS>ATOM
      1 C33         0.0000    0.0000    0.0000 c3        1 4LP      0.304000
      2 C32         1.3830    0.0000    0.0000 c3        1 4LP     -0.223000
      3 C34        -0.6940    0.0070    1.1950 c2        1 4LP     -0.187000
      4 C31         2.0740    0.0000    1.1950 c2        1 4LP     -0.220000
      5 C35        -0.0090    0.0080    2.3940 c2        1 4LP     -0.131000
      6 C21         2.2510   -4.9350   -1.5470 c3        1 4LP     -0.056000
      7 C22         3.0610   -4.1530   -0.7520 c3        1 4LP     -0.204000
      8 C26         3.5470   -0.4410    5.1990 c3        1 4LP     -0.356000
      9 C27         2.6490    0.5120    5.6780 c2        1 4LP     -0.221000
     10 C9          1.0790   -5.6960    0.4030 c2        1 4LP     -0.354000
     11 C30         1.3810    0.0020    2.3980 c3        1 4LP      0.661000
     12 C20         1.2470   -5.7160   -0.9750 c2        1 4LP     -0.022000
     13 C6          2.8830   -4.1350    0.6260 c2        1 4LP     -0.271000
     14 C7          1.8810   -4.9120    1.2020 c2        1 4LP      0.209000
     15 C25         3.1820   -0.7480    3.9070 c2        1 4LP     -0.142000
     16 C4          5.0480   -3.4990    1.3350 c2        1 4LP     -0.423000
     17 C24         3.8560   -1.7080    3.0100 c2        1 4LP     -0.222000
     18 C3          5.8940   -2.7470    2.0890 c3        1 4LP      0.044000
     19 C36         5.3230   -1.7990    2.9780 c2        1 4LP      0.246000
     20 C13        -0.4940   -7.1440   -0.6540 c2        1 4LP      0.198000
     21 C17         1.5840   -9.5050   -2.9000 DU        1 4LP     -0.234000
     22 C18         2.1520   -8.7630   -4.1110 DU        1 4LP     -0.234000
     23 C16         1.9130   -8.0140   -2.7990 cx        1 4LP     -0.312000
     24 C10        -0.0710   -6.6290    0.7050 DU        1 4LP     -0.057000
     25 C11        -1.2190   -5.8680    1.3710 c3        1 4LP     -0.386000
     26 C12         0.3940   -7.7820    1.5970 c3        1 4LP     -0.386000
     27 C1          7.7220   -3.8790    1.0730 c3        1 4LP     -0.002000
     28 N28         1.7790    0.7800    4.7370 n2        1 4LP     -0.159000
     29 N23         3.1540   -2.4940    2.2200 n2        1 4LP     -0.143000
     30 N29         2.0790    0.0020    3.6120 n3        1 4LP      0.319000
     31 N5          3.7070   -3.3390    1.4300 n3        1 4LP      0.555000
     32 N14         0.3140   -6.5710   -1.5630 n         1 4LP      0.219000
     33 O37         6.0210   -1.0890    3.6860 o         1 4LP     -0.256000
     34 O19        -1.3920   -7.9270   -0.8800 o         1 4LP     -0.233000
     35 O2          7.2420   -2.9000    1.9950 os        1 4LP     -0.146000
     36 F8          1.7010   -4.9000    2.5410 f         1 4LP     -0.063000
     37 H1          0.0470   -0.9850   -0.4480 hc        1 4LP      0.175000
     38 H2          0.4100   -0.0000   -0.4760 DU        1 4LP      0.240000
     39 H3          0.1460    0.0030    0.5100 ha        1 4LP     -0.205000
     40 H4          0.9910    0.0030    1.1940 DU        1 4LP      0.053000
     41 H5          1.0050    0.0050    2.0100 ha        1 4LP     -0.483000
     42 H6          1.8460   -4.2200   -0.8410 DU        1 4LP      0.202000
     43 H7          2.7240   -4.5540   -1.7010 DU        1 4LP      0.202000
     44 H8          3.5920   -0.9130    4.2250 hc        1 4LP      0.291000
     45 H9          3.4970   -0.1610    5.7120 DU        1 4LP      0.260000
     46 H10         4.6970   -2.8420    2.1210 DU        1 4LP      0.182000
     47 H12         2.0320   -8.5700   -2.5850 DU        1 4LP      0.115500
     48 H13         1.3610   -9.2430   -3.5480 DU        1 4LP      0.106000
     49 H14         1.4450   -8.5540   -4.9050 ha        1 4LP      0.144500
     50 H15         2.5350   -8.4820   -3.5520 DU        1 4LP      0.115500
     51 H16        -0.6080   -6.2990    0.5870 DU        1 4LP      0.276000
     52 H17        -1.4550   -4.9880    0.7860 hc        1 4LP      0.095500
     53 H18        -0.9230   -5.5690    2.3690 hc        1 4LP      0.095500
     54 H19        -0.5690   -7.2900    1.5320 DU        1 4LP      0.276000
     55 H20         1.2940   -8.2200    1.1820 hc        1 4LP      0.095500
     56 H21         0.6010   -7.4070    2.5930 hc        1 4LP      0.095500
     57 H22         6.7840   -4.4180    1.1390 h1        1 4LP      0.071333
     58 H23         8.3940   -3.4280    0.3540 h1        1 4LP      0.071333
     59 H24         8.2110   -4.6900    1.5990 h1        1 4LP      0.071333
     60 C15         0.2230   -6.8150   -3.0040 c2        1 4LP     -0.042000
     61 H11         2.2730  -10.1710   -2.3940 ha        1 4LP      0.144500
     62 H25        -0.4300   -7.6110   -3.3420 h4        1 4LP      0.119000
     63 H26         0.5830   -6.3110   -3.8930 h4        1 4LP      0.119000
@<TRIPOS>BOND
     1    1    2 1   
     2    1    3 1   
     3    1   37 1   
     4    1   38 1   
     5    2    4 1   
     6    2   38 1   
     7    2   40 1   
     8    3    5 1   
     9    3   39 1   
    10    4   11 1   
    11    4   40 1   
    12    5   11 1   
    13    5   41 1   
    14    6    7 1   
    15    6   12 1   
    16    6   42 1   
    17    6   43 1   
    18    7   13 1   
    19    7   42 1   
    20    7   43 1   
    21    8    9 1   
    22    8   15 1   
    23    8   44 1   
    24    8   45 1   
    25    9   28 1   
    26    9   45 1   
    27   10   12 1   
    28   10   14 1   
    29   10   24 1   
    30   11   30 1   
    31   11   40 1   
    32   12   32 1   
    33   13   14 1   
    34   13   31 1   
    35   14   36 1   
    36   15   17 1   
    37   15   30 1   
    38   16   18 1   
    39   16   31 1   
    40   16   46 1   
    41   17   19 1   
    42   17   29 1   
    43   18   19 1   
    44   18   35 1   
    45   18   46 1   
    46   19   33 1   
    47   20   24 1   
    48   20   32 1   
    49   20   34 1   
    50   21   22 1   
    51   21   23 1   
    52   21   47 1   
    53   21   48 1   
    54   21   61 1   
    55   22   23 1   
    56   22   48 1   
    57   22   49 1   
    58   22   50 1   
    59   23   47 1   
    60   23   50 1   
    61   24   25 1   
    62   24   26 1   
    63   24   51 1   
    64   24   54 1   
    65   25   51 1   
    66   25   52 1   
    67   25   53 1   
    68   26   54 1   
    69   26   55 1   
    70   26   56 1   
    71   27   35 1   
    72   27   57 1   
    73   27   58 1   
    74   27   59 1   
    75   28   30 1   
    76   29   31 1   
    77   32   60 1   
    78   60   62 1   
    79   60   63 1   
@<TRIPOS>SUBSTRUCTURE
     1 4LP         1 TEMP              0 ****  ****    0 ROOT
