@<TRIPOS>MOLECULE
4LR
   19    18     1     0     0
SMALL
bcc


@<TRIPOS>ATOM
      1 OAD         0.1850   -0.2380   -0.8450 o         1 4LR     -0.934833
      2 PAJ         1.4390   -0.1460   -0.0130 p5        1 4LR      1.311900
      3 OAE         1.2600    0.0760    1.4620 o         1 4LR     -0.934833
      4 OAC         2.5460   -1.0810   -0.4310 o         1 4LR     -0.934833
      5 OAH         2.0810    1.3890   -0.5460 os        1 4LR     -0.567200
      6 CAG         2.2980    1.3270   -1.9050 c3        1 4LR      0.191600
      7 CAF         2.8480    2.6170   -2.4170 c2        1 4LR     -0.062200
      8 CAI         3.1700    2.8900   -3.6940 c2        1 4LR     -0.276400
      9 CAB         3.7120    4.2080   -4.1010 c3        1 4LR     -0.019900
     10 CAA         3.0160    1.9150   -4.7980 c3        1 4LR     -0.019900
     11 H3          1.3230    1.0920   -2.4320 h1        1 4LR      0.039700
     12 H4          3.0200    0.4860   -2.1340 h1        1 4LR      0.039700
     13 H5          2.9850    3.3870   -1.6360 ha        1 4LR      0.109000
     14 H6          4.7250    4.0920   -4.5640 hc        1 4LR      0.009533
     15 H7          3.8050    4.9010   -3.2290 hc        1 4LR      0.009533
     16 H8          3.0460    4.6910   -4.8610 hc        1 4LR      0.009533
     17 H9          4.0030    1.7190   -5.2880 hc        1 4LR      0.009533
     18 H10         2.6070    0.9440   -4.4220 hc        1 4LR      0.009533
     19 H11         2.3210    2.3150   -5.5800 hc        1 4LR      0.009533
@<TRIPOS>BOND
     1    1    2 1   
     2    2    3 1   
     3    2    4 1   
     4    2    5 1   
     5    5    6 1   
     6    6    7 1   
     7    6   11 1   
     8    6   12 1   
     9    7    8 2   
    10    7   13 1   
    11    8    9 1   
    12    8   10 1   
    13    9   14 1   
    14    9   15 1   
    15    9   16 1   
    16   10   17 1   
    17   10   18 1   
    18   10   19 1   
@<TRIPOS>SUBSTRUCTURE
     1 4LR         1 TEMP              0 ****  ****    0 ROOT
