@<TRIPOS>MOLECULE
4LS
   65    82     1     0     0
SMALL
bcc


@<TRIPOS>ATOM
      1 C4A         0.0000    0.0000    0.0000 c2        1 4LS     -0.497000
      2 CAA         4.7650    0.8040   -1.9990 c3        1 4LS     -0.315000
      3 CAC         4.0790    0.0040    5.0160 c3        1 4LS     -0.373000
      4 CAD         5.5580    0.5720    2.6080 c3        1 4LS     -0.178000
      5 OAL        -3.6670   -7.6290    7.0630 o         1 4LS     -0.675167
      6 PBK        -2.1930   -7.7530    7.0170 p5        1 4LS      0.844500
      7 OAM        -1.5750   -7.3470    8.4470 o         1 4LS     -0.675167
      8 OAH        -1.8180   -9.2840    6.6860 o         1 4LS     -0.675167
      9 CAR        -1.8320   -5.3870    5.8300 DU        1 4LS      0.354000
     10 CBF        -1.1080   -4.7820    4.6260 DU        1 4LS     -0.485000
     11 OAI        -1.6680   -5.3050    3.4190 oh        1 4LS     -0.361000
     12 CBH        -1.2690   -3.2600    4.6450 DU        1 4LS     -0.420000
     13 OAK        -0.7090   -2.7360    5.8510 oh        1 4LS     -0.508000
     14 CBG        -0.5450   -2.6550    3.4410 DU        1 4LS     -0.518000
     15 OAJ        -1.1060   -3.1780    2.2350 oh        1 4LS     -0.512000
     16 CAS        -0.7070   -1.1340    3.4600 c3        1 4LS     -0.459000
     17 N10        -0.0020   -0.5530    2.3140 n3        1 4LS      0.257000
     18 C9A         1.3720   -0.2760    2.3980 c3        1 4LS     -0.267000
     19 C9          2.0180   -0.2740    3.6200 c2        1 4LS     -0.226000
     20 C8          3.3740    0.0010    3.6830 c3        1 4LS     -0.175000
     21 C7          4.0830    0.2730    2.5290 c3        1 4LS     -0.090000
     22 C6          3.4430    0.2740    1.3010 c2        1 4LS     -0.365000
     23 C5A         2.0890    0.0000    1.2320 c3        1 4LS     -0.039000
     24 N5          1.4170    0.0000    0.0000 n3        1 4LS      0.183000
     25 CAQ         2.1650   -0.0010   -1.2590 DU        1 4LS      0.001000
     26 CAN         2.4220    1.4190   -1.6920 c2        1 4LS     -0.611000
     27 CAW         3.6410    1.8080   -1.9750 c3        1 4LS     -0.053000
     28 CAB         3.9180    3.2580   -2.2770 c3        1 4LS     -0.452000
     29 C11        -0.6850   -0.2740    1.1510 c2        1 4LS      0.129000
     30 N1         -2.0600   -0.2680    1.1340 ns        1 4LS     -0.246000
     31 C2         -2.7220    0.0040   -0.0060 c2        1 4LS      0.534000
     32 O2         -3.9380    0.0050   -0.0040 o         1 4LS     -0.289000
     33 N3         -2.0630    0.2740   -1.1480 ns        1 4LS     -0.461000
     34 C4         -0.7140    0.2860   -1.1750 c3        1 4LS      0.361000
     35 O4         -0.1220    0.5310   -2.2120 o         1 4LS     -0.368000
     36 H2          4.2170    0.1590   -1.3240 hc        1 4LS      0.130667
     37 H3          5.0540    0.5610   -0.9840 hc        1 4LS      0.130667
     38 H4          5.6130    1.2260   -2.5250 hc        1 4LS      0.130667
     39 H5          4.1300   -0.0110    3.9340 DU        1 4LS      0.314000
     40 H6          4.6160    0.9360    5.1380 hc        1 4LS      0.101500
     41 H7          3.3490   -0.1000    5.8100 hc        1 4LS      0.101500
     42 H8          5.2700    0.0540    3.5140 hc        1 4LS      0.092333
     43 H9          6.0540   -0.2040    3.1790 hc        1 4LS      0.092333
     44 H10         5.7080    1.5290    3.0920 hc        1 4LS      0.092333
     45 H13        -1.0420   -4.7810    5.4020 DU        1 4LS      0.127000
     46 H14        -2.9010   -5.2370    5.7430 ha        1 4LS      0.109000
     47 H15        -1.2830   -4.8670    5.6910 DU        1 4LS      0.127000
     48 H16        -0.9290   -5.1820    3.9920 DU        1 4LS      0.320000
     49 H17        -1.2040   -4.1910    4.0950 ha        1 4LS      0.391000
     50 H18        -1.4480   -2.8600    5.2780 DU        1 4LS      0.335000
     51 H19        -0.8450   -2.5400    4.4760 DU        1 4LS      0.448000
     52 H20        -0.3670   -3.0550    2.8070 DU        1 4LS      0.342000
     53 H21        -1.2490   -1.9450    2.9880 DU        1 4LS      0.347000
     54 H22        -0.2900   -0.7380    4.3780 h1        1 4LS      0.162000
     55 H23         0.9500   -0.4450    3.5590 DU        1 4LS      0.298000
     56 H24         2.8850    0.0730    2.2080 DU        1 4LS      0.331000
     57 H25         2.9640    0.1700   -0.5480 ha        1 4LS      0.169500
     58 H26         1.5890   -0.5120   -2.0210 ha        1 4LS      0.169500
     59 H27         2.7730    0.4370   -1.4000 DU        1 4LS      0.250000
     60 H30         2.9680    2.8000   -2.0290 DU        1 4LS      0.272000
     61 H31         2.9870    3.7670   -2.4950 hc        1 4LS      0.100000
     62 H32         4.3910    3.7220   -1.4190 hc        1 4LS      0.100000
     63 H33        -1.1860    0.6770   -1.4100 DU        1 4LS      0.345000
     64 H1         -2.2200   -0.0400    0.1730 hn        1 4LS      0.167000
     65 OAV        -1.5840   -6.7930    5.8760 os        1 4LS     -0.464000
@<TRIPOS>BOND
     1    1   24 1   
     2    1   29 1   
     3    1   34 1   
     4    2   27 1   
     5    2   36 1   
     6    2   37 1   
     7    2   38 1   
     8    3   20 1   
     9    3   39 1   
    10    3   40 1   
    11    3   41 1   
    12    4   21 1   
    13    4   42 1   
    14    4   43 1   
    15    4   44 1   
    16    5    6 1   
    17    6    7 1   
    18    6    8 1   
    19    6   65 1   
    20    9   10 1   
    21    9   45 1   
    22    9   46 1   
    23    9   47 1   
    24    9   65 1   
    25   10   11 1   
    26   10   12 1   
    27   10   45 1   
    28   10   47 1   
    29   10   48 1   
    30   11   48 1   
    31   12   13 1   
    32   12   14 1   
    33   12   49 1   
    34   12   50 1   
    35   12   51 1   
    36   13   50 1   
    37   14   15 1   
    38   14   16 1   
    39   14   51 1   
    40   14   52 1   
    41   14   53 1   
    42   15   52 1   
    43   16   17 1   
    44   16   53 1   
    45   16   54 1   
    46   17   18 1   
    47   17   29 1   
    48   18   19 1   
    49   18   23 1   
    50   18   55 1   
    51   19   20 1   
    52   19   55 1   
    53   20   21 1   
    54   20   39 1   
    55   21   22 1   
    56   21   56 1   
    57   22   23 1   
    58   22   56 1   
    59   23   24 1   
    60   23   56 1   
    61   24   25 1   
    62   25   26 1   
    63   25   57 1   
    64   25   58 1   
    65   25   59 1   
    66   26   27 1   
    67   26   59 1   
    68   27   28 1   
    69   27   60 1   
    70   28   60 1   
    71   28   61 1   
    72   28   62 1   
    73   29   30 1   
    74   30   31 1   
    75   30   64 1   
    76   31   32 1   
    77   31   33 1   
    78   33   34 1   
    79   33   63 1   
    80   34   35 1   
    81   34   63 1   
    82   45   47 1   
@<TRIPOS>SUBSTRUCTURE
     1 4LS         1 TEMP              0 ****  ****    0 ROOT
