@<TRIPOS>MOLECULE
4LS
   65    66     1     0     0
SMALL
bcc


@<TRIPOS>ATOM
      1 C4A         0.0370    0.5100   -0.5840 c2        1 4LS      0.077000
      2 CAA         5.1470    1.6550   -1.9340 c3        1 4LS     -0.176000
      3 CAC         3.6850   -0.6350    4.6100 c3        1 4LS     -0.168000
      4 CAD         5.1980   -0.5320    1.9370 c3        1 4LS     -0.202000
      5 OAL        -3.4310   -9.2290    8.0330 o         1 4LS     -0.839500
      6 PBK        -2.3470   -8.7450    8.9240 p5        1 4LS      1.465500
      7 OAM        -2.7390   -7.7250    9.9290 o         1 4LS     -0.839500
      8 OAH        -1.0410   -9.4270    8.9880 o         1 4LS     -0.839500
      9 CAR        -3.2440   -6.6260    7.5670 c2        1 4LS      0.201000
     10 CBF        -0.4100   -4.4000    4.9190 c3        1 4LS     -0.014000
     11 OAI        -1.5600   -5.0160    5.4750 oh        1 4LS     -0.355000
     12 CBH        -0.9020   -3.1820    4.1280 c3        1 4LS      0.000000
     13 OAK        -0.6300   -2.0410    4.9270 oh        1 4LS     -0.324000
     14 CBG        -0.1930   -3.0700    2.7580 c3        1 4LS      0.066000
     15 OAJ        -0.3920   -4.2650    2.0160 oh        1 4LS     -0.319000
     16 CAS        -0.7600   -1.9070    2.0080 c2        1 4LS     -0.411000
     17 N10        -0.0810   -0.9000    1.4330 na        1 4LS      0.229000
     18 C9A         1.2080   -0.5310    1.7090 c2        1 4LS     -0.207000
     19 C9          1.8320   -0.7810    2.9880 c2        1 4LS     -0.092000
     20 C8          3.0970   -0.4070    3.2700 c2        1 4LS     -0.137000
     21 C7          3.9640    0.2930    2.2770 c3        1 4LS     -0.007000
     22 C6          3.2440    0.6590    1.0310 c2        1 4LS     -0.243000
     23 C5A         1.9880    0.2450    0.7250 c2        1 4LS      0.073000
     24 N5          1.3960    0.5180   -0.5400 na        1 4LS     -0.152000
     25 CAQ         2.2870    0.8340   -1.7210 c3        1 4LS      0.103000
     26 CAN         2.7090    2.2030   -1.8450 c2        1 4LS     -0.575000
     27 CAW         4.0390    2.6550   -1.8320 c2        1 4LS      0.075000
     28 CAB         4.3750    3.9750   -1.8140 c2        1 4LS     -0.479000
     29 C11        -0.7380   -0.1030    0.4230 c2        1 4LS     -0.170000
     30 N1         -2.1440    0.0860    0.5010 n         1 4LS     -0.261000
     31 C2         -2.7620    1.0170   -0.3380 c2        1 4LS      0.387000
     32 O2         -3.9460    1.3820   -0.1330 o         1 4LS     -0.410000
     33 N3         -2.0620    1.4680   -1.4660 n         1 4LS     -0.372000
     34 C4         -0.7270    1.1280   -1.7260 c2        1 4LS      0.355000
     35 O4         -0.2980    1.3530   -2.8640 o         1 4LS     -0.297000
     36 H2          5.2180    1.0270   -1.0110 hc        1 4LS      0.052333
     37 H3          6.1350    2.1570   -2.0800 hc        1 4LS      0.052333
     38 H4          4.9720    0.9740   -2.8030 hc        1 4LS      0.052333
     39 H5          4.1490    0.3060    4.9970 hc        1 4LS      0.071667
     40 H6          2.9160   -0.9780    5.3450 hc        1 4LS      0.071667
     41 H7          4.4840   -1.4170    4.5490 hc        1 4LS      0.071667
     42 H8          5.8290   -0.6770    2.8460 hc        1 4LS      0.067333
     43 H9          5.8010   -0.0070    1.1570 hc        1 4LS      0.067333
     44 H10         4.9020   -1.5330    1.5440 hc        1 4LS      0.067333
     45 H13         0.2920   -4.0760    5.7320 h1        1 4LS      0.084000
     46 H14        -4.0810   -7.0170    8.1870 h4        1 4LS      0.116000
     47 H15        -3.4250   -5.7380    6.9230 h4        1 4LS      0.116000
     48 H16        -1.2480   -5.7410    6.0370 ho        1 4LS      0.231000
     49 H17         0.1080   -5.1180    4.2280 h1        1 4LS      0.084000
     50 H18        -2.0140   -3.2700    3.9620 h1        1 4LS      0.086000
     51 H19        -0.9270   -1.2740    4.4190 ho        1 4LS      0.204000
     52 H20         0.9240   -3.0280    2.8870 h1        1 4LS      0.142000
     53 H21        -1.3400   -4.3630    1.8630 ho        1 4LS      0.194000
     54 H22        -1.8190   -2.0400    1.7380 h4        1 4LS      0.143000
     55 H23         1.2130   -1.2350    3.7840 ha        1 4LS      0.135000
     56 H24         4.3200    1.2560    2.7570 hc        1 4LS      0.081000
     57 H25         3.8020    1.3150    0.3410 ha        1 4LS      0.172000
     58 H26         1.6640    0.4890   -2.5970 h1        1 4LS      0.063500
     59 H27         3.1550    0.1220   -1.6060 h1        1 4LS      0.063500
     60 H30         1.9210    2.9500   -1.9850 ha        1 4LS      0.099000
     61 H31         5.4100    4.3160   -1.8830 ha        1 4LS      0.070500
     62 H32         3.6190    4.7580   -1.7370 ha        1 4LS      0.070500
     63 H33        -2.5710    1.9930   -2.1420 hn        1 4LS      0.258000
     64 H1         -2.5780   -0.0390    1.3920 hn        1 4LS      0.246000
     65 OAV        -2.1210   -7.1570    7.5800 os        1 4LS     -0.375000
@<TRIPOS>BOND
     1    1   24 1   
     2    1   29 1   
     3    1   34 1   
     4    2   27 1   
     5    2   36 1   
     6    2   37 1   
     7    2   38 1   
     8    3   20 1   
     9    3   39 1   
    10    3   40 1   
    11    3   41 1   
    12    4   21 1   
    13    4   42 1   
    14    4   43 1   
    15    4   44 1   
    16    5    6 1   
    17    6    7 1   
    18    6    8 1   
    19    6   65 1   
    20    9   46 1   
    21    9   47 1   
    22    9   65 1   
    23   10   11 1   
    24   10   12 1   
    25   10   45 1   
    26   10   49 1   
    27   11   48 1   
    28   12   13 1   
    29   12   14 1   
    30   12   50 1   
    31   13   51 1   
    32   14   15 1   
    33   14   16 1   
    34   14   52 1   
    35   15   53 1   
    36   16   17 1   
    37   16   54 1   
    38   17   18 1   
    39   17   29 1   
    40   18   19 1   
    41   18   23 1   
    42   19   20 1   
    43   19   55 1   
    44   20   21 1   
    45   21   22 1   
    46   21   56 1   
    47   22   23 1   
    48   22   57 1   
    49   23   24 1   
    50   24   25 1   
    51   25   26 1   
    52   25   58 1   
    53   25   59 1   
    54   26   27 1   
    55   26   60 1   
    56   27   28 1   
    57   28   61 1   
    58   28   62 1   
    59   29   30 1   
    60   30   31 1   
    61   30   64 1   
    62   31   32 1   
    63   31   33 1   
    64   33   34 1   
    65   33   63 1   
    66   34   35 1   
@<TRIPOS>SUBSTRUCTURE
     1 4LS         1 TEMP              0 ****  ****    0 ROOT
