@<TRIPOS>MOLECULE
4LU
   64    81     1     0     0
SMALL
bcc


@<TRIPOS>ATOM
      1 C9          0.0000    0.0000    0.0000 c2        1 4LU     -0.390000
      2 C8          1.3790    0.0000    0.0000 c3        1 4LU     -0.134000
      3 C7          2.0920    0.0000    1.1940 c2        1 4LU     -0.017000
      4 C10        -2.6770    0.6020    2.3680 c2        1 4LU     -0.095000
      5 C6          1.4380   -0.0900    2.4040 c2        1 4LU     -0.301000
      6 N3         -3.8410    1.6110    4.6360 n7        1 4LU     -0.320000
      7 C2         -4.5480    1.4830    3.5020 c3        1 4LU      0.316000
      8 C5          2.1630   -0.3570    3.6950 DU        1 4LU      0.128000
      9 C1         -0.1360   -0.1820    4.7150 c3        1 4LU     -0.523000
     10 O2         -5.7230    1.7920    3.4900 o         1 4LU     -0.343000
     11 N1         -3.9810    1.0180    2.3700 nu        1 4LU      0.045000
     12 C4         -2.5380    1.2600    4.6820 c3        1 4LU      0.397000
     13 O4         -1.9040    1.4850    5.6980 o         1 4LU     -0.264000
     14 C4A        -1.9400    0.6680    3.5470 c2        1 4LU     -0.477000
     15 N5         -0.6690    0.1460    3.5850 na        1 4LU      0.739000
     16 C3          1.2010   -0.8510    4.7800 DU        1 4LU     -0.441000
     17 C12         2.8450    0.9190    4.1950 c3        1 4LU     -0.588000
     18 C5A         0.0430    0.0200    2.4110 c2        1 4LU     -0.216000
     19 C7M         3.5830    0.2000    1.0540 c3        1 4LU     -0.504000
     20 C8M         2.1300    0.0000   -1.3080 c3        1 4LU     -0.238000
     21 C9A        -0.6760    0.0550    1.2050 c2        1 4LU     -0.281000
     22 N10        -2.0700    0.1300    1.2360 na        1 4LU      0.232000
     23 C1'        -2.8680   -0.2650    0.0730 DU        1 4LU     -0.308000
     24 C2'        -3.2080   -1.7540    0.1700 DU        1 4LU     -0.490000
     25 O2'        -2.0010   -2.5180    0.2010 oh        1 4LU     -0.495000
     26 C3'        -4.0420   -2.1660   -1.0440 DU        1 4LU     -0.385000
     27 O3'        -5.2490   -1.4020   -1.0760 oh        1 4LU     -0.426000
     28 C4'        -4.3830   -3.6540   -0.9470 DU        1 4LU     -0.276000
     29 O4'        -3.1750   -4.4180   -0.9160 oh        1 4LU     -0.439000
     30 C5'        -5.2160   -4.0670   -2.1630 c3        1 4LU     -0.176000
     31 O5'        -5.6320   -5.4260   -2.0150 os        1 4LU     -0.540000
     32 P          -6.5290   -6.1930   -3.1110 p5        1 4LU      1.079500
     33 O2P        -5.8660   -6.1160   -4.4310 o         1 4LU     -0.328167
     34 O3P        -6.6970   -7.7360   -2.6830 o         1 4LU     -0.328167
     35 O1P        -7.9800   -5.4990   -3.1970 o         1 4LU     -0.328167
     36 H1          0.7320   -0.3530    0.7160 DU        1 4LU      0.373000
     37 H2         -3.3470    1.3690    3.7990 DU        1 4LU      0.252000
     38 H3          2.2510   -1.0290    3.7780 DU        1 4LU      0.233500
     39 H4          3.0970   -2.2720    2.8140 hc        1 4LU      0.096250
     40 H5          3.6760   -2.1070    4.2720 hc        1 4LU      0.096250
     41 H6          0.8520   -0.4070    4.3320 DU        1 4LU      0.127000
     42 H9          0.2950   -0.4270    5.1940 DU        1 4LU      0.127000
     43 H10         1.6420   -0.6560    5.7500 ha        1 4LU      0.148000
     44 H11         2.2750    0.0100    4.3440 DU        1 4LU      0.233500
     45 H12         2.7030    1.7120    3.4710 hc        1 4LU      0.096250
     46 H13         3.9050    0.7340    4.3250 hc        1 4LU      0.096250
     47 H14         3.2930    0.4510    2.0670 hc        1 4LU      0.229000
     48 H15         4.0460   -0.7320    0.7550 hc        1 4LU      0.229000
     49 H16         3.9950    0.5190    2.0040 hc        1 4LU      0.229000
     50 H17         2.8460    0.4170   -0.6100 hc        1 4LU      0.133333
     51 H18         1.4690   -0.3210   -2.1040 hc        1 4LU      0.133333
     52 H19         2.9720   -0.6790   -1.2410 hc        1 4LU      0.133333
     53 H20        -1.8550   -0.0250   -0.2280 ha        1 4LU      0.311000
     54 H21        -2.3010   -0.0830   -0.8330 ha        1 4LU      0.311000
     55 H22        -3.5000   -0.7120    0.1080 DU        1 4LU      0.276000
     56 H23        -2.8120   -2.2530    0.6020 DU        1 4LU      0.345000
     57 H24        -2.9900   -2.3690   -0.8830 DU        1 4LU      0.417000
     58 H25        -4.4380   -1.6670   -1.4770 DU        1 4LU      0.341000
     59 H26        -5.0720   -2.8360   -0.7730 DU        1 4LU      0.431000
     60 H27        -3.9860   -4.1530   -0.5150 DU        1 4LU      0.329000
     61 H28        -4.4820   -4.5350   -1.5170 DU        1 4LU      0.337000
     62 H29        -4.6190   -3.9680   -3.0610 h1        1 4LU      0.100000
     63 H7         -4.2940    0.3590    1.6860 hn        1 4LU      0.140000
     64 C13         3.2100   -1.4690    3.5310 c3        1 4LU     -0.588000
@<TRIPOS>BOND
     1    1    2 1   
     2    1   21 1   
     3    1   36 1   
     4    2    3 1   
     5    2   20 1   
     6    2   36 1   
     7    3    5 1   
     8    3   19 1   
     9    4   11 1   
    10    4   14 1   
    11    4   22 1   
    12    5    8 1   
    13    5   18 1   
    14    6    7 1   
    15    6   12 1   
    16    6   37 1   
    17    7   10 1   
    18    7   11 1   
    19    7   37 1   
    20    8   16 1   
    21    8   17 1   
    22    8   38 1   
    23    8   44 1   
    24    8   64 1   
    25    9   15 1   
    26    9   16 1   
    27    9   41 1   
    28    9   42 1   
    29   11   63 1   
    30   12   13 1   
    31   12   14 1   
    32   12   37 1   
    33   14   15 1   
    34   15   18 1   
    35   16   41 1   
    36   16   42 1   
    37   16   43 1   
    38   17   44 1   
    39   17   45 1   
    40   17   46 1   
    41   18   21 1   
    42   19   47 1   
    43   19   48 1   
    44   19   49 1   
    45   20   50 1   
    46   20   51 1   
    47   20   52 1   
    48   21   22 1   
    49   22   23 1   
    50   23   24 1   
    51   23   53 1   
    52   23   54 1   
    53   23   55 1   
    54   24   25 1   
    55   24   26 1   
    56   24   55 1   
    57   24   56 1   
    58   24   57 1   
    59   25   56 1   
    60   26   27 1   
    61   26   28 1   
    62   26   57 1   
    63   26   58 1   
    64   26   59 1   
    65   27   58 1   
    66   28   29 1   
    67   28   30 1   
    68   28   59 1   
    69   28   60 1   
    70   28   61 1   
    71   29   60 1   
    72   30   31 1   
    73   30   61 1   
    74   30   62 1   
    75   31   32 1   
    76   32   33 1   
    77   32   34 1   
    78   32   35 1   
    79   38   64 1   
    80   39   64 1   
    81   40   64 1   
@<TRIPOS>SUBSTRUCTURE
     1 4LU         1 TEMP              0 ****  ****    0 ROOT
