@<TRIPOS>MOLECULE
4LV
   21    21     1     0     0
SMALL
bcc


@<TRIPOS>ATOM
      1 C1         -0.0130   -0.1070   -0.3060 c3        1 4LV     -0.063900
      2 OXT         3.5630   -0.0800   -1.1600 o         1 4LV     -0.830800
      3 C           2.3240    0.1380   -1.2780 c         1 4LV      0.896800
      4 O           1.7700    0.4900   -2.3590 o         1 4LV     -0.830800
      5 CA          1.4380   -0.0300   -0.0420 ce        1 4LV     -0.116400
      6 CB          2.0070   -0.0700    1.1750 cf        1 4LV     -0.192200
      7 CG          1.3540   -0.2070    2.4630 ca        1 4LV      0.005200
      8 CD2         0.2290   -1.0230    2.6580 ca        1 4LV     -0.141000
      9 CE2        -0.3560   -1.1400    3.9170 ca        1 4LV     -0.137000
     10 CZ          0.1720   -0.4490    5.0060 ca        1 4LV     -0.166000
     11 CE1         1.2960    0.3580    4.8290 ca        1 4LV     -0.137000
     12 CD1         1.8840    0.4760    3.5740 ca        1 4LV     -0.141000
     13 H1         -0.6180    0.2900    0.5460 hc        1 4LV      0.035367
     14 H2         -0.2540    0.4770   -1.2320 hc        1 4LV      0.035367
     15 H3         -0.3090   -1.1720   -0.4860 hc        1 4LV      0.035367
     16 H5          3.1110    0.0240    1.2220 ha        1 4LV      0.149000
     17 H6         -0.1850   -1.5810    1.8050 ha        1 4LV      0.134000
     18 H7         -1.2380   -1.7830    4.0510 ha        1 4LV      0.111000
     19 H8         -0.2920   -0.5410    5.9970 ha        1 4LV      0.109000
     20 H9          1.7180    0.9030    5.6850 ha        1 4LV      0.111000
     21 H10         2.7720    1.1110    3.4370 ha        1 4LV      0.134000
@<TRIPOS>BOND
     1    1    5 1   
     2    1   13 1   
     3    1   14 1   
     4    1   15 1   
     5    2    3 1   
     6    3    4 1   
     7    3    5 1   
     8    5    6 2   
     9    6    7 1   
    10    6   16 1   
    11    7    8 ar  
    12    7   12 ar  
    13    8    9 ar  
    14    8   17 1   
    15    9   10 ar  
    16    9   18 1   
    17   10   11 ar  
    18   10   19 1   
    19   11   12 ar  
    20   11   20 1   
    21   12   21 1   
@<TRIPOS>SUBSTRUCTURE
     1 4LV         1 TEMP              0 ****  ****    0 ROOT
