@<TRIPOS>MOLECULE
4M0
   20    20     1     0     0
SMALL
bcc


@<TRIPOS>ATOM
      1 OAC         0.1060   -0.8040    0.0870 oh        1 4M0     -0.591100
      2 CAH         1.1070    0.1020   -0.1430 c         1 4M0      0.642700
      3 OAD         1.2620    0.8980    0.7830 o         1 4M0     -0.488000
      4 CAK         1.8610    0.0420   -1.4060 ca        1 4M0     -0.252600
      5 CAF         3.2600    0.0220   -1.3450 ca        1 4M0     -0.035000
      6 CAE         4.0210   -0.0340   -2.5030 ca        1 4M0     -0.184000
      7 CAI         3.3900   -0.0530   -3.7560 ca        1 4M0     -0.008300
      8 CAA         4.2110   -0.1200   -4.9880 c3        1 4M0     -0.063800
      9 CAG         2.0010   -0.0080   -3.8360 ca        1 4M0     -0.204000
     10 CAJ         1.2060    0.0380   -2.6630 ca        1 4M0      0.187600
     11 NAB        -0.1840    0.0110   -2.7540 nh        1 4M0     -0.839200
     12 H2          3.7490    0.0560   -0.3570 ha        1 4M0      0.150000
     13 H3          5.1190   -0.0560   -2.4440 ha        1 4M0      0.141000
     14 H4          5.0350    0.6340   -4.9480 hc        1 4M0      0.051033
     15 H5          4.6710   -1.1360   -5.0830 hc        1 4M0      0.051033
     16 H6          3.5960    0.0740   -5.9010 hc        1 4M0      0.051033
     17 H7          1.5160   -0.0130   -4.8230 ha        1 4M0      0.138000
     18 H8          0.1110   -1.4890   -0.5970 ho        1 4M0      0.437000
     19 H9         -0.6730    0.3880   -1.9710 hn        1 4M0      0.407300
     20 HAB3       -0.5570    0.2810   -3.6350 hn        1 4M0      0.407300
@<TRIPOS>BOND
     1    1    2 1   
     2    1   18 1   
     3    2    3 2   
     4    2    4 1   
     5    4    5 ar  
     6    4   10 ar  
     7    5    6 ar  
     8    5   12 1   
     9    6    7 ar  
    10    6   13 1   
    11    7    8 1   
    12    7    9 ar  
    13    8   14 1   
    14    8   15 1   
    15    8   16 1   
    16    9   10 ar  
    17    9   17 1   
    18   10   11 1   
    19   11   19 1   
    20   11   20 1   
@<TRIPOS>SUBSTRUCTURE
     1 4M0         1 TEMP              0 ****  ****    0 ROOT
