@<TRIPOS>MOLECULE
4M0
   19    19     1     0     0
SMALL
bcc


@<TRIPOS>ATOM
      1 OAC         0.0060    0.3890    0.1080 o         1 4M0     -0.838300
      2 CAH         1.2150    0.0080    0.0700 c         1 4M0      0.913200
      3 OAD         1.8790   -0.2870    1.1030 o         1 4M0     -0.838300
      4 CAK         1.9230   -0.0630   -1.2740 ca        1 4M0     -0.171600
      5 CAF         3.3060    0.1090   -1.2910 ca        1 4M0     -0.082000
      6 CAE         4.0260    0.1320   -2.4840 ca        1 4M0     -0.194000
      7 CAI         3.3570   -0.0200   -3.7000 ca        1 4M0     -0.083300
      8 CAA         4.1010    0.0350   -4.9810 c3        1 4M0     -0.036800
      9 CAG         1.9760   -0.2160   -3.7080 ca        1 4M0     -0.209000
     10 CAJ         1.2380   -0.2610   -2.5020 ca        1 4M0      0.149600
     11 NAB        -0.1300   -0.5800   -2.5450 nh        1 4M0     -0.817200
     12 H2          3.8200    0.2290   -0.3230 ha        1 4M0      0.147000
     13 H3          5.1150    0.2730   -2.4690 ha        1 4M0      0.104000
     14 H4          3.6840   -0.6970   -5.7160 hc        1 4M0      0.024033
     15 H5          4.0240    1.0580   -5.4270 hc        1 4M0      0.024033
     16 H6          5.1830   -0.1980   -4.8280 hc        1 4M0      0.024033
     17 H7          1.4610   -0.3440   -4.6710 ha        1 4M0      0.106000
     18 H8         -0.5790   -0.4580   -1.6520 hn        1 4M0      0.388300
     19 H9         -0.6080   -0.0830   -3.2670 hn        1 4M0      0.388300
@<TRIPOS>BOND
     1    1    2 1   
     2    2    3 1   
     3    2    4 1   
     4    4    5 ar  
     5    4   10 ar  
     6    5    6 ar  
     7    5   12 1   
     8    6    7 ar  
     9    6   13 1   
    10    7    8 1   
    11    7    9 ar  
    12    8   14 1   
    13    8   15 1   
    14    8   16 1   
    15    9   10 ar  
    16    9   17 1   
    17   10   11 1   
    18   11   18 1   
    19   11   19 1   
@<TRIPOS>SUBSTRUCTURE
     1 4M0         1 TEMP              0 ****  ****    0 ROOT
