@<TRIPOS>MOLECULE
4M0
   19    19     1     0     0
SMALL
bcc


@<TRIPOS>ATOM
      1 OAC         0.0060    0.4070    0.1060 o         1 4M0     -0.838300
      2 CAH         1.2150    0.0240    0.0690 c         1 4M0      0.913200
      3 OAD         1.8780   -0.2690    1.1030 o         1 4M0     -0.838300
      4 CAK         1.9230   -0.0530   -1.2740 ca        1 4M0     -0.171600
      5 CAF         3.3060    0.1170   -1.2920 ca        1 4M0     -0.082000
      6 CAE         4.0270    0.1350   -2.4850 ca        1 4M0     -0.193000
      7 CAI         3.3570   -0.0210   -3.7000 ca        1 4M0     -0.083300
      8 CAA         4.1000    0.0290   -4.9820 c3        1 4M0     -0.036800
      9 CAG         1.9750   -0.2140   -3.7070 ca        1 4M0     -0.209000
     10 CAJ         1.2370   -0.2540   -2.5010 ca        1 4M0      0.149600
     11 NAB        -0.1310   -0.5710   -2.5430 nv        1 4M0     -0.817200
     12 H2          3.8210    0.2390   -0.3240 ha        1 4M0      0.147000
     13 H3          5.1150    0.2750   -2.4700 ha        1 4M0      0.104000
     14 H4          3.6930   -0.7170   -5.7080 hc        1 4M0      0.024033
     15 H5          4.0100    1.0450   -5.4410 hc        1 4M0      0.024033
     16 H6          5.1860   -0.1880   -4.8260 hc        1 4M0      0.024033
     17 H7          1.4600   -0.3450   -4.6700 ha        1 4M0      0.106000
     18 H8         -0.5800   -0.4450   -1.6500 hn        1 4M0      0.388300
     19 H9         -0.6080   -0.0760   -3.2670 hn        1 4M0      0.388300
@<TRIPOS>BOND
     1    1    2 1   
     2    2    3 1   
     3    2    4 1   
     4    4    5 ar  
     5    4   10 ar  
     6    5    6 ar  
     7    5   12 1   
     8    6    7 ar  
     9    6   13 1   
    10    7    8 1   
    11    7    9 ar  
    12    8   14 1   
    13    8   15 1   
    14    8   16 1   
    15    9   10 ar  
    16    9   17 1   
    17   10   11 1   
    18   11   18 1   
    19   11   19 1   
@<TRIPOS>SUBSTRUCTURE
     1 4M0         1 TEMP              0 ****  ****    0 ROOT
