@<TRIPOS>MOLECULE
4M1
   58    61     1     0     0
SMALL
bcc


@<TRIPOS>ATOM
      1 C21         3.5590    0.1790    1.2330 c2        1 4M1      0.033000
      2 C22         2.8240    1.3360    1.2820 c2        1 4M1     -0.209000
      3 C20         3.2260   -0.9640    2.0810 c3        1 4M1     -0.223000
      4 C23         1.7260    1.4520    2.1580 c2        1 4M1      0.161000
      5 C19         2.0700   -0.7980    2.9590 c2        1 4M1      0.061000
      6 C2         -1.0940    4.3740    6.7770 c2        1 4M1     -0.220000
      7 C5          1.5750    4.9200    5.7160 c1        1 4M1     -0.036000
      8 C12         3.4280   -6.9910    0.7800 c1        1 4M1     -0.003000
      9 C14         2.6900   -8.0460    2.8740 c2        1 4M1     -0.097000
     10 C17         2.5470   -9.3200   -0.6630 c2        1 4M1     -0.102500
     11 C16         1.7300  -10.3590    1.1450 c2        1 4M1     -0.102500
     12 C10         3.6170   -5.7830    2.9970 c2        1 4M1     -0.170000
     13 C18         1.3460    0.3770    2.9950 c2        1 4M1     -0.110000
     14 C1         -0.4520    5.6550    6.9220 c2        1 4M1      0.084000
     15 C           0.7730    5.9160    6.3260 c2        1 4M1     -0.223000
     16 C3         -0.3950    3.3750    6.1800 c2        1 4M1     -0.003000
     17 C13         2.8080   -8.0830    1.5030 c2        1 4M1      0.015000
     18 C4          1.1060    3.5330    5.8840 c3        1 4M1     -0.095000
     19 C11         3.8000   -5.7870    1.5190 c3        1 4M1     -0.090000
     20 C15         3.0840   -6.8680    3.6130 c2        1 4M1     -0.018000
     21 C6          0.3110    1.7370    4.7900 c2        1 4M1      0.050000
     22 C9          3.9720   -4.5080    3.6830 c2        1 4M1      0.377000
     23 C8         -0.7680   -0.3560    4.0130 c2        1 4M1     -0.134000
     24 C7          0.2240    0.5400    3.9320 c2        1 4M1     -0.058000
     25 N5          2.0070  -10.5040   -1.0250 n2        1 4M1     -0.063500
     26 N4          1.5210  -11.1210    0.0510 n2        1 4M1     -0.063500
     27 N1         -0.7880    2.1440    5.6250 n3        1 4M1     -0.261000
     28 N3          2.3930   -9.1720    0.7400 na        1 4M1     -0.157000
     29 N           1.4000    2.4880    4.9000 n2        1 4M1     -0.150000
     30 N2          4.8040   -4.5520    4.7580 n         1 4M1     -0.387000
     31 O           3.5290   -3.4090    3.2580 o         1 4M1     -0.471000
     32 CL1         5.4740   -5.4140    1.1000 cl        1 4M1     -0.008000
     33 CL          2.8040   -6.9170    5.2850 cl        1 4M1      0.038000
     34 H1          3.0970   -1.9130    1.4600 hc        1 4M1      0.236500
     35 H2          1.1560    2.4020    2.1890 ha        1 4M1      0.195000
     36 H3          4.4270    0.0800    0.5560 ha        1 4M1      0.181000
     37 H4          3.0900    2.2010    0.6460 ha        1 4M1      0.191000
     38 H5          4.1260   -1.2490    2.7330 hc        1 4M1      0.236500
     39 H6         -2.1440    4.2700    7.0850 ha        1 4M1      0.154000
     40 H7          1.6870    3.2620    6.8410 h1        1 4M1      0.201000
     41 H10         3.0390   -8.5630   -1.2860 h5        1 4M1      0.225000
     42 H11         1.4500  -10.5860    2.1760 h5        1 4M1      0.225000
     43 H19         5.0640   -3.7130    5.2180 hn        1 4M1      0.245000
     44 H18         1.8150   -1.6610    3.6070 ha        1 4M1      0.194000
     45 H20        -1.6030   -0.2730    4.7240 ha        1 4M1      0.142500
     46 H21        -1.7260    1.9720    5.3580 hn        1 4M1      0.242000
     47 H23         5.1710   -5.4100    5.0910 hn        1 4M1      0.245000
     48 C24        -1.1930    6.7130    7.6420 c3        1 4M1     -0.213000
     49 H8          3.1780   -4.9420    1.0820 h1        1 4M1      0.190000
     50 H14        -1.5130    7.5100    6.9200 hc        1 4M1      0.107333
     51 H12        -0.5270    7.1950    8.4040 hc        1 4M1      0.107333
     52 H13        -2.0990    6.3140    8.1590 hc        1 4M1      0.107333
     53 H22        -0.8020   -1.2430    3.3640 ha        1 4M1      0.142500
     54 C25         1.3100    7.3010    6.3090 c3        1 4M1     -0.159000
     55 H9          2.2890   -8.8960    3.4560 ha        1 4M1      0.176000
     56 H17         2.2410    7.3530    5.6940 hc        1 4M1      0.087333
     57 H16         0.5570    8.0100    5.8830 hc        1 4M1      0.087333
     58 H15         1.5520    7.6350    7.3500 hc        1 4M1      0.087333
@<TRIPOS>BOND
     1    1    2 1   
     2    1    3 1   
     3    1   36 1   
     4    2    4 1   
     5    2   37 1   
     6    3    5 1   
     7    3   34 1   
     8    3   38 1   
     9    4   13 1   
    10    4   35 1   
    11    5   13 1   
    12    5   44 1   
    13    6   14 1   
    14    6   16 1   
    15    6   39 1   
    16    7   15 1   
    17    7   18 1   
    18    8   17 1   
    19    8   19 1   
    20    9   17 1   
    21    9   20 1   
    22    9   55 1   
    23   10   25 1   
    24   10   28 1   
    25   10   41 1   
    26   11   26 1   
    27   11   28 1   
    28   11   42 1   
    29   12   19 1   
    30   12   20 1   
    31   12   22 1   
    32   13   24 1   
    33   14   15 1   
    34   14   48 1   
    35   15   54 1   
    36   16   18 1   
    37   16   27 1   
    38   17   28 1   
    39   18   29 1   
    40   18   40 1   
    41   19   32 1   
    42   19   49 1   
    43   20   33 1   
    44   21   24 1   
    45   21   27 1   
    46   21   29 1   
    47   22   30 1   
    48   22   31 1   
    49   23   24 1   
    50   23   45 1   
    51   23   53 1   
    52   25   26 1   
    53   27   46 1   
    54   30   43 1   
    55   30   47 1   
    56   48   50 1   
    57   48   51 1   
    58   48   52 1   
    59   54   56 1   
    60   54   57 1   
    61   54   58 1   
@<TRIPOS>SUBSTRUCTURE
     1 4M1         1 TEMP              0 ****  ****    0 ROOT
