@<TRIPOS>MOLECULE
4M1
   58    61     1     0     0
SMALL
bcc


@<TRIPOS>ATOM
      1 C21         6.1400    0.0580    1.3410 c2        1 4M1      0.062000
      2 C22         6.1550    1.3830    1.7170 c2        1 4M1     -0.214000
      3 C20         5.4030   -0.9320    2.1140 c3        1 4M1     -0.262000
      4 C23         5.4780    1.8020    2.8730 c2        1 4M1      0.107000
      5 C19         4.7630   -0.4590    3.3320 c2        1 4M1      0.085000
      6 C2         -0.7530    1.8480    5.9790 c2        1 4M1     -0.250000
      7 C5         -0.4630   -0.5240    4.3210 c1        1 4M1     -0.139000
      8 C12         2.3750   -4.6690    3.1530 c1        1 4M1     -0.052000
      9 C14         0.8300   -2.7650    3.0070 c2        1 4M1     -0.105000
     10 C17         1.3820   -5.2330    5.7940 c2        1 4M1     -0.115000
     11 C16        -0.0530   -3.5210    5.8020 c2        1 4M1     -0.115000
     12 C10         2.3000   -3.2180    1.0930 c2        1 4M1     -0.208000
     13 C18         4.7810    0.8820    3.6830 c2        1 4M1     -0.116000
     14 C1         -1.8290    0.9340    5.7510 c2        1 4M1      0.138000
     15 C          -1.6470   -0.2370    5.0040 c2        1 4M1     -0.227000
     16 C3          0.4330    1.6110    5.3440 c2        1 4M1      0.060000
     17 C13         1.3250   -3.8550    3.6950 c2        1 4M1     -0.026000
     18 C4          0.5250    0.5590    4.2240 c3        1 4M1     -0.079000
     19 C11         2.8210   -4.4290    1.7830 c3        1 4M1     -0.073000
     20 C15         1.3110   -2.4900    1.6730 c2        1 4M1     -0.009000
     21 C6          2.5970    1.2040    4.8120 c2        1 4M1      0.089000
     22 C9          2.9020   -2.8480   -0.2230 c2        1 4M1      0.369000
     23 C8          4.7010    1.8530    5.9430 c2        1 4M1     -0.122000
     24 C7          4.0640    1.3530    4.8770 c2        1 4M1     -0.066000
     25 N5          0.7490   -5.1790    6.9890 n2        1 4M1     -0.084000
     26 N4         -0.1060   -4.1610    6.9940 n2        1 4M1     -0.084000
     27 N1          1.7280    2.0650    5.5600 n7        1 4M1     -0.279000
     28 N3          0.8950   -4.1770    4.9880 na        1 4M1     -0.140000
     29 N           1.9630    0.3100    4.0650 n2        1 4M1     -0.167000
     30 N2          2.4650   -3.4850   -1.3420 nt        1 4M1     -0.388000
     31 O           3.8080   -1.9790   -0.2850 o         1 4M1     -0.427000
     32 Cl1         4.5900   -4.4630    1.7680 cl        1 4M1     -0.051000
     33 Cl          0.5900   -1.1890    0.8560 cl        1 4M1      0.031000
     34 H1          4.5640   -1.3530    1.4110 hc        1 4M1      0.263500
     35 H2          5.4940    2.8720    3.1570 ha        1 4M1      0.178000
     36 H3          6.6620   -0.2870    0.4280 ha        1 4M1      0.189000
     37 H4          6.6990    2.1310    1.1110 ha        1 4M1      0.187000
     38 H5          6.0160   -1.8710    2.2980 hc        1 4M1      0.263500
     39 H6         -0.8820    2.6590    6.7100 ha        1 4M1      0.162000
     40 H7          0.1720    1.0570    3.2470 h1        1 4M1      0.201000
     41 H10         2.1430   -5.9420    5.4460 h5        1 4M1      0.230000
     42 H11        -0.6340   -2.6470    5.4790 h5        1 4M1      0.230000
     43 H19         2.8510   -3.2480   -2.2250 hn        1 4M1      0.245000
     44 H18         4.2410   -1.2040    3.9630 ha        1 4M1      0.196000
     45 H20         4.1840    2.1860    6.8550 ha        1 4M1      0.145000
     46 H21         2.0160    2.6690    6.2850 hn        1 4M1      0.267000
     47 H23         1.7220   -4.1370   -1.3050 hn        1 4M1      0.245000
     48 C24        -3.1220    1.2140    6.4090 c3        1 4M1     -0.224000
     49 H8          2.5000   -5.3510    1.1990 h1        1 4M1      0.199000
     50 H14        -3.3910    0.3680    7.0960 hc        1 4M1      0.116333
     51 H12        -3.9300    1.2900    5.6350 hc        1 4M1      0.116333
     52 H13        -3.1020    2.1620    6.9990 hc        1 4M1      0.116333
     53 H22         5.7970    1.9460    5.9760 ha        1 4M1      0.145000
     54 C25        -2.7430   -1.2390    4.9470 c3        1 4M1     -0.167000
     55 H9          0.1040   -1.9970    3.4750 ha        1 4M1      0.282000
     56 H17        -3.6910   -0.7610    4.5900 hc        1 4M1      0.090333
     57 H16        -2.4840   -2.0700    4.2460 hc        1 4M1      0.090333
     58 H15        -2.9320   -1.6730    5.9610 hc        1 4M1      0.090333
@<TRIPOS>BOND
     1    1    2 1   
     2    1    3 1   
     3    1   36 1   
     4    2    4 1   
     5    2   37 1   
     6    3    5 1   
     7    3   34 1   
     8    3   38 1   
     9    4   13 1   
    10    4   35 1   
    11    5   13 1   
    12    5   44 1   
    13    6   14 1   
    14    6   16 1   
    15    6   39 1   
    16    7   15 1   
    17    7   18 1   
    18    8   17 1   
    19    8   19 1   
    20    9   17 1   
    21    9   20 1   
    22    9   55 1   
    23   10   25 1   
    24   10   28 1   
    25   10   41 1   
    26   11   26 1   
    27   11   28 1   
    28   11   42 1   
    29   12   19 1   
    30   12   20 1   
    31   12   22 1   
    32   13   24 1   
    33   14   15 1   
    34   14   48 1   
    35   15   54 1   
    36   16   18 1   
    37   16   27 1   
    38   17   28 1   
    39   18   29 1   
    40   18   40 1   
    41   19   32 1   
    42   19   49 1   
    43   20   33 1   
    44   21   24 1   
    45   21   27 1   
    46   21   29 1   
    47   22   30 1   
    48   22   31 1   
    49   23   24 1   
    50   23   45 1   
    51   23   53 1   
    52   25   26 1   
    53   27   46 1   
    54   30   43 1   
    55   30   47 1   
    56   48   50 1   
    57   48   51 1   
    58   48   52 1   
    59   54   56 1   
    60   54   57 1   
    61   54   58 1   
@<TRIPOS>SUBSTRUCTURE
     1 4M1         1 TEMP              0 ****  ****    0 ROOT
