@<TRIPOS>MOLECULE
4M4
   21    21     1     0     0
SMALL
bcc


@<TRIPOS>ATOM
      1 C3         -0.0390   -0.0200    0.0230 ca        1 4M4      0.115100
      2 C2          1.3750   -0.0650    0.0660 ca        1 4M4      0.041100
      3 C1          3.4070   -0.2590   -1.1630 c3        1 4M4      0.121700
      4 C5         -0.0850    0.1530    2.4310 ca        1 4M4     -0.113000
      5 C4         -0.7620    0.0910    1.2160 ca        1 4M4     -0.139000
      6 C6          1.3130    0.1050    2.4820 ca        1 4M4     -0.062800
      7 O1          1.9870   -0.1700   -1.1740 os        1 4M4     -0.349900
      8 C7          2.0440    0.0000    1.2860 ca        1 4M4     -0.152000
      9 O8         -0.7540   -0.0780   -1.1480 oh        1 4M4     -0.495100
     10 C9          2.0380    0.1700    3.7410 ce        1 4M4     -0.110200
     11 C10         1.5220   -0.0970    4.9420 c2        1 4M4     -0.210000
     12 H1          3.7410   -1.1590   -0.5930 h1        1 4M4      0.045367
     13 H2          3.6700   -0.3560   -2.2470 h1        1 4M4      0.045367
     14 H3          3.8540    0.6680   -0.7290 h1        1 4M4      0.045367
     15 H4         -0.6640    0.2460    3.3620 ha        1 4M4      0.138000
     16 H5         -1.8600    0.1300    1.1750 ha        1 4M4      0.153000
     17 H6          3.1430   -0.0330    1.3240 ha        1 4M4      0.139000
     18 H7         -0.1250   -0.1570   -1.8820 ho        1 4M4      0.437000
     19 H8          3.1010    0.4600    3.6480 ha        1 4M4      0.121000
     20 H9          0.4800   -0.4030    5.0970 ha        1 4M4      0.114000
     21 H10         2.1250   -0.0300    5.8570 ha        1 4M4      0.114000
@<TRIPOS>BOND
     1    1    2 ar  
     2    1    5 ar  
     3    1    9 1   
     4    2    7 1   
     5    2    8 ar  
     6    3    7 1   
     7    3   12 1   
     8    3   13 1   
     9    3   14 1   
    10    4    5 ar  
    11    4    6 ar  
    12    4   15 1   
    13    5   16 1   
    14    6    8 ar  
    15    6   10 1   
    16    8   17 1   
    17    9   18 1   
    18   10   11 2   
    19   10   19 1   
    20   11   20 1   
    21   11   21 1   
@<TRIPOS>SUBSTRUCTURE
     1 4M4         1 TEMP              0 ****  ****    0 ROOT
