@<TRIPOS>MOLECULE
4M6
   51    55     1     0     0
SMALL
bcc


@<TRIPOS>ATOM
      1 OAA         0.1720   -0.6470   -0.0430 o         1 4M6     -0.816800
      2 CAT         1.3780   -0.2820    0.0450 c         1 4M6      0.929800
      3 OAB         1.9930   -0.0850    1.1270 o         1 4M6     -0.816800
      4 CAX         2.1580   -0.0710   -1.2480 cc        1 4M6     -0.050300
      5 NBC         1.5460   -0.0170   -2.5060 na        1 4M6     -0.045400
      6 CBB         2.5360    0.1210   -3.4760 ca        1 4M6     -0.077200
      7 CAR         0.1750   -0.1460   -2.9110 c3        1 4M6      0.042300
      8 CAN         0.0450   -0.6450   -4.3590 c3        1 4M6     -0.093400
      9 CAP         0.9520    0.0670   -5.3570 c3        1 4M6     -0.020100
     10 CAU         2.3530    0.1610   -4.8680 ca        1 4M6     -0.095300
     11 CAG         3.4960    0.2910   -5.6430 ca        1 4M6     -0.140000
     12 CAE         4.7660    0.3740   -5.0370 ca        1 4M6     -0.176000
     13 CAL         4.9420    0.3230   -3.6590 ca        1 4M6     -0.098000
     14 CBA         3.8240    0.1880   -2.8320 ca        1 4M6     -0.073800
     15 CAW         3.5530    0.0680   -1.4170 cd        1 4M6     -0.173400
     16 CAQ         4.5510    0.0680   -0.3390 c3        1 4M6      0.013800
     17 CAM         4.6990    1.4430    0.2910 c3        1 4M6     -0.080400
     18 CAO         5.6330    1.3610    1.4840 c3        1 4M6      0.128400
     19 OAS         6.0890    2.7070    1.7270 os        1 4M6     -0.329900
     20 CAV         6.9370    2.8760    2.7920 ca        1 4M6      0.170100
     21 CAZ         7.3740    4.2310    2.9960 ca        1 4M6     -0.063000
     22 CAK         6.9410    5.2940    2.1610 ca        1 4M6     -0.078000
     23 CAD         7.3800    6.5770    2.3850 ca        1 4M6     -0.158000
     24 CAC         8.2680    6.8500    3.4520 ca        1 4M6     -0.120000
     25 CAI         8.6990    5.8380    4.2740 ca        1 4M6     -0.140000
     26 CAY         8.2620    4.5000    4.0670 ca        1 4M6     -0.006000
     27 CAJ         8.6940    3.4390    4.9090 ca        1 4M6     -0.180000
     28 CAF         8.2540    2.1580    4.6880 ca        1 4M6     -0.080000
     29 CAH         7.3720    1.8620    3.6270 ca        1 4M6     -0.236000
     30 H2         -0.3470   -0.8480   -2.1950 h1        1 4M6      0.075700
     31 H3         -0.3200    0.8640   -2.8250 h1        1 4M6      0.075700
     32 H4         -1.0230   -0.5090   -4.6700 hc        1 4M6      0.040700
     33 H5          0.2710   -1.7430   -4.3860 hc        1 4M6      0.040700
     34 H6          0.9180   -0.4760   -6.3380 hc        1 4M6      0.035700
     35 H7          0.5620    1.1060   -5.5360 hc        1 4M6      0.035700
     36 H8          3.4180    0.3250   -6.7380 ha        1 4M6      0.108000
     37 H9          5.6460    0.4810   -5.6870 ha        1 4M6      0.105000
     38 H10         5.9470    0.3850   -3.2200 ha        1 4M6      0.118000
     39 H11         4.2180   -0.6530    0.4610 hc        1 4M6      0.044200
     40 H12         5.5430   -0.2730   -0.7400 hc        1 4M6      0.044200
     41 H13         3.6870    1.7920    0.6320 hc        1 4M6      0.066700
     42 H14         5.0930    2.1790   -0.4550 hc        1 4M6      0.066700
     43 H15         5.0950    0.9800    2.3910 h1        1 4M6      0.041700
     44 H16         6.5240    0.7150    1.2680 h1        1 4M6      0.041700
     45 H17         6.2470    5.0620    1.3370 ha        1 4M6      0.157000
     46 H18         7.0460    7.4030    1.7410 ha        1 4M6      0.127000
     47 H19         8.6070    7.8840    3.6130 ha        1 4M6      0.120000
     48 H20         9.3880    6.0410    5.1060 ha        1 4M6      0.123000
     49 H21         9.3810    3.6680    5.7350 ha        1 4M6      0.123000
     50 H22         8.5830    1.3350    5.3410 ha        1 4M6      0.123000
     51 H23         7.0390    0.8240    3.4860 ha        1 4M6      0.145000
@<TRIPOS>BOND
     1    1    2 1   
     2    2    3 1   
     3    2    4 1   
     4    4    5 1   
     5    4   15 2   
     6    5    6 1   
     7    5    7 1   
     8    6   10 ar  
     9    6   14 ar  
    10    7    8 1   
    11    7   30 1   
    12    7   31 1   
    13    8    9 1   
    14    8   32 1   
    15    8   33 1   
    16    9   10 1   
    17    9   34 1   
    18    9   35 1   
    19   10   11 ar  
    20   11   12 ar  
    21   11   36 1   
    22   12   13 ar  
    23   12   37 1   
    24   13   14 ar  
    25   13   38 1   
    26   14   15 1   
    27   15   16 1   
    28   16   17 1   
    29   16   39 1   
    30   16   40 1   
    31   17   18 1   
    32   17   41 1   
    33   17   42 1   
    34   18   19 1   
    35   18   43 1   
    36   18   44 1   
    37   19   20 1   
    38   20   21 ar  
    39   20   29 ar  
    40   21   22 ar  
    41   21   26 ar  
    42   22   23 ar  
    43   22   45 1   
    44   23   24 ar  
    45   23   46 1   
    46   24   25 ar  
    47   24   47 1   
    48   25   26 ar  
    49   25   48 1   
    50   26   27 ar  
    51   27   28 ar  
    52   27   49 1   
    53   28   29 ar  
    54   28   50 1   
    55   29   51 1   
@<TRIPOS>SUBSTRUCTURE
     1 4M6         1 TEMP              0 ****  ****    0 ROOT
