@<TRIPOS>MOLECULE
4M7
   53    57     1     0     0
SMALL
bcc


@<TRIPOS>ATOM
      1 OAA         0.1230    0.6440    0.0410 o         1 4M7     -0.809300
      2 CAU         1.3080    0.2130    0.0700 c         1 4M7      0.928800
      3 OAC         1.9000   -0.1800    1.1100 o         1 4M7     -0.809300
      4 CAY         2.1060    0.1530   -1.2310 cc        1 4M7     -0.051300
      5 NBD         1.5400    0.2110   -2.5210 na        1 4M7     -0.045400
      6 CBC         2.5560    0.0900   -3.4660 ca        1 4M7      0.023800
      7 CAR         0.1430    0.2050   -2.8550 c3        1 4M7     -0.001700
      8 CAO        -0.2780   -0.9970   -3.7060 c3        1 4M7     -0.064400
      9 CAS        -0.1460   -0.7680   -5.1890 c3        1 4M7     -0.078100
     10 SBE         1.1550    0.2020   -5.8850 sx        1 4M7      0.292400
     11 OAB         0.6470    1.6070   -5.8040 o         1 4M7     -0.519200
     12 CAX         2.5030    0.0500   -4.8660 ca        1 4M7     -0.146500
     13 CAI         3.7240   -0.0970   -5.5380 ca        1 4M7     -0.070000
     14 CAG         4.9430   -0.1870   -4.8670 ca        1 4M7     -0.194000
     15 CAM         5.0010   -0.1400   -3.4730 ca        1 4M7     -0.062000
     16 CBB         3.8240   -0.0110   -2.7530 ca        1 4M7     -0.088800
     17 CAW         3.4990    0.0380   -1.3450 cd        1 4M7     -0.167400
     18 CAQ         4.4660   -0.0130   -0.2400 c3        1 4M7      0.012800
     19 CAN         4.6680   -1.4320    0.2640 c3        1 4M7     -0.081400
     20 CAP         5.5770   -1.4190    1.4800 c3        1 4M7      0.129400
     21 OAT         6.1020   -2.7560    1.5990 os        1 4M7     -0.329900
     22 CAV         6.9380   -2.9860    2.6630 ca        1 4M7      0.169100
     23 CBA         7.4410   -4.3300    2.7440 ca        1 4M7     -0.062000
     24 CAL         7.0810   -5.3270    1.8000 ca        1 4M7     -0.079000
     25 CAE         7.5830   -6.6020    1.9090 ca        1 4M7     -0.158000
     26 CAD         8.4640   -6.9330    2.9650 ca        1 4M7     -0.120000
     27 CAJ         8.8260   -5.9850    3.8910 ca        1 4M7     -0.139000
     28 CAZ         8.3220   -4.6580    3.8050 ca        1 4M7     -0.007000
     29 CAK         8.6820   -3.6640    4.7560 ca        1 4M7     -0.178000
     30 CAF         8.1790   -2.3910    4.6510 ca        1 4M7     -0.080000
     31 CAH         7.3020   -2.0370    3.6020 ca        1 4M7     -0.235000
     32 H2         -0.0930    1.1570   -3.4170 h1        1 4M7      0.105700
     33 H3         -0.4450    0.2100   -1.8870 h1        1 4M7      0.105700
     34 H4          0.3060   -1.9090   -3.4100 hc        1 4M7      0.048700
     35 H5         -1.3540   -1.2150   -3.4680 hc        1 4M7      0.048700
     36 H6         -1.0890   -0.2730   -5.5490 h1        1 4M7      0.068700
     37 H7         -0.0850   -1.7660   -5.6930 h1        1 4M7      0.068700
     38 H9          3.7200   -0.1350   -6.6390 ha        1 4M7      0.107000
     39 H10         5.8710   -0.2950   -5.4450 ha        1 4M7      0.113000
     40 H11         5.9650   -0.2070   -2.9500 ha        1 4M7      0.124000
     41 H12         5.4490    0.4140   -0.5760 hc        1 4M7      0.046700
     42 H13         4.0750    0.6130    0.6120 hc        1 4M7      0.046700
     43 H14         3.6680   -1.8570    0.5490 hc        1 4M7      0.067700
     44 H15         5.1110   -2.0760   -0.5370 hc        1 4M7      0.067700
     45 H16         6.4350   -0.7080    1.3480 h1        1 4M7      0.042200
     46 H17         5.0030   -1.1590    2.4070 h1        1 4M7      0.042200
     47 H18         6.3910   -5.0510    0.9870 ha        1 4M7      0.156000
     48 H19         7.3040   -7.3770    1.1810 ha        1 4M7      0.127000
     49 H20         8.8540   -7.9590    3.0340 ha        1 4M7      0.121000
     50 H21         9.5090   -6.2340    4.7160 ha        1 4M7      0.124000
     51 H22         9.3640   -3.9380    5.5720 ha        1 4M7      0.124000
     52 H23         8.4520   -1.6210    5.3870 ha        1 4M7      0.124000
     53 H24         6.9180   -1.0090    3.5550 ha        1 4M7      0.145000
@<TRIPOS>BOND
     1    1    2 1   
     2    2    3 1   
     3    2    4 1   
     4    4    5 1   
     5    4   17 2   
     6    5    6 1   
     7    5    7 1   
     8    6   12 ar  
     9    6   16 ar  
    10    7    8 1   
    11    7   32 1   
    12    7   33 1   
    13    8    9 1   
    14    8   34 1   
    15    8   35 1   
    16    9   10 1   
    17    9   36 1   
    18    9   37 1   
    19   10   11 2   
    20   10   12 1   
    21   12   13 ar  
    22   13   14 ar  
    23   13   38 1   
    24   14   15 ar  
    25   14   39 1   
    26   15   16 ar  
    27   15   40 1   
    28   16   17 1   
    29   17   18 1   
    30   18   19 1   
    31   18   41 1   
    32   18   42 1   
    33   19   20 1   
    34   19   43 1   
    35   19   44 1   
    36   20   21 1   
    37   20   45 1   
    38   20   46 1   
    39   21   22 1   
    40   22   23 ar  
    41   22   31 ar  
    42   23   24 ar  
    43   23   28 ar  
    44   24   25 ar  
    45   24   47 1   
    46   25   26 ar  
    47   25   48 1   
    48   26   27 ar  
    49   26   49 1   
    50   27   28 ar  
    51   27   50 1   
    52   28   29 ar  
    53   29   30 ar  
    54   29   51 1   
    55   30   31 ar  
    56   30   52 1   
    57   31   53 1   
@<TRIPOS>SUBSTRUCTURE
     1 4M7         1 TEMP              0 ****  ****    0 ROOT
