@<TRIPOS>MOLECULE
4MA
   17    17     1     0     0
SMALL
bcc


@<TRIPOS>ATOM
      1 O1         -2.7530   -1.0540    0.0090 o         1 4MA     -0.833300
      2 C7         -2.1390    0.0510    0.0060 c         1 4MA      0.906200
      3 O2         -2.7130    1.1770    0.0090 o         1 4MA     -0.833300
      4 C1         -0.6190    0.0240    0.0010 ca        1 4MA     -0.123600
      5 C2          0.0690   -1.1940   -0.0030 ca        1 4MA     -0.108000
      6 C3          1.4620   -1.2200   -0.0080 ca        1 4MA     -0.159000
      7 C4          2.1930   -0.0270   -0.0090 ca        1 4MA     -0.118300
      8 C8          3.6730   -0.0530    0.0020 c3        1 4MA     -0.033800
      9 C5          1.5050    1.1930   -0.0080 ca        1 4MA     -0.159000
     10 C6          0.1120    1.2160   -0.0030 ca        1 4MA     -0.108000
     11 H2         -0.5200   -2.1250   -0.0010 ha        1 4MA      0.149000
     12 H3          1.9940   -2.1820   -0.0120 ha        1 4MA      0.102000
     13 H81         4.0510   -0.0590    1.0550 hc        1 4MA      0.023033
     14 H82         4.0620   -0.9670   -0.5120 hc        1 4MA      0.023033
     15 H83         4.0940    0.8460   -0.5130 hc        1 4MA      0.023033
     16 H5          2.0710    2.1350   -0.0110 ha        1 4MA      0.102000
     17 H6         -0.4430    2.1670   -0.0010 ha        1 4MA      0.149000
@<TRIPOS>BOND
     1    1    2 1   
     2    2    3 1   
     3    2    4 1   
     4    4    5 ar  
     5    4   10 ar  
     6    5    6 ar  
     7    5   11 1   
     8    6    7 ar  
     9    6   12 1   
    10    7    8 1   
    11    7    9 ar  
    12    8   13 1   
    13    8   14 1   
    14    8   15 1   
    15    9   10 ar  
    16    9   16 1   
    17   10   17 1   
@<TRIPOS>SUBSTRUCTURE
     1 4MA         1 TEMP              0 ****  ****    0 ROOT
