@<TRIPOS>MOLECULE
4MA
   17    15     1     0     0
SMALL
bcc


@<TRIPOS>ATOM
      1 O1         -2.4570    0.6890    2.8750 o         1 4MA     -0.568000
      2 C7         -1.4820   -0.0800    2.6680 c2        1 4MA      0.355000
      3 O2         -1.1090   -0.8790    3.5660 o         1 4MA     -0.568000
      4 C1         -0.7510   -0.0350    1.3440 c2        1 4MA     -0.103000
      5 C2         -1.3460   -0.5540    0.2050 c1        1 4MA     -0.108000
      6 C3         -0.6740   -0.5160   -1.0060 c1        1 4MA     -0.159000
      7 C4          0.5930    0.0420   -1.0790 c1        1 4MA     -0.111000
      8 C8          1.3400    0.0520   -2.3940 c2        1 4MA     -0.159000
      9 C5          1.1880    0.5610    0.0600 c2        1 4MA     -0.159000
     10 C6          0.5160    0.5230    1.2720 c2        1 4MA     -0.108000
     11 H2         -2.2380   -0.9470    0.2560 ha        1 4MA      0.149000
     12 H3         -1.0990   -0.8690   -1.8110 ha        1 4MA      0.102000
     13 H81         1.1150    0.8660   -2.8920 ha        1 4MA      0.062333
     14 H82         2.3050    0.0310   -2.2220 ha        1 4MA      0.062333
     15 H83         1.0850   -0.7330   -2.9220 ha        1 4MA      0.062333
     16 H5          2.0800    0.9530    0.0090 ha        1 4MA      0.102000
     17 H6          0.9320    0.8950    2.0720 ha        1 4MA      0.149000
@<TRIPOS>BOND
     1    1    2 1   
     2    2    3 1   
     3    2    4 1   
     4    4    5 1   
     5    4   10 1   
     6    5   11 1   
     7    6    7 1   
     8    6   12 1   
     9    7    9 1   
    10    8   13 1   
    11    8   14 1   
    12    8   15 1   
    13    9   10 1   
    14    9   16 1   
    15   10   17 1   
@<TRIPOS>SUBSTRUCTURE
     1 4MA         1 TEMP              0 ****  ****    0 ROOT
