@<TRIPOS>MOLECULE
4MB
   22    19     1     0     0
SMALL
bcc


@<TRIPOS>ATOM
      1 C3         -1.4330    0.3520   -0.0910 c1        1 4MB     -0.078500
      2 C5         -1.4010    0.3910    2.3090 cg        1 4MB     -0.076200
      3 N1          0.6450    0.4240   -1.3480 n3        1 4MB     -0.763700
      4 C2         -0.0470    0.3820   -0.1100 c1        1 4MB      0.063800
      5 C4         -2.1100    0.3570    1.1190 c1        1 4MB     -0.078500
      6 C6         -2.1400    0.3940    3.6300 c         1 4MB      0.857800
      7 C9         -0.0150    0.4200    2.2910 c1        1 4MB     -0.030500
      8 C12         2.2370   -0.5880   -3.4220 c3        1 4MB     -0.362300
      9 C10         0.6610    0.4160    1.0810 c1        1 4MB     -0.137500
     10 O7         -2.4500    1.4850    4.1750 o         1 4MB     -0.825300
     11 O8         -2.4610   -0.6950    4.1730 o         1 4MB     -0.825300
     12 S11         1.2420   -0.9600   -2.0030 s6        1 4MB      1.465900
     13 O14         1.9810   -1.7190   -1.0320 o         1 4MB     -0.672800
     14 O13         0.1880   -1.8790   -2.3310 o         1 4MB     -0.672800
     15 H3         -1.9320    0.3350   -0.9290 ha        1 4MB      0.077000
     16 HN1         0.7410    1.2160   -1.7900 hn        1 4MB      0.454800
     17 H4         -3.0860    0.3460    1.1320 ha        1 4MB      0.077000
     18 H9          0.4840    0.4440    3.1290 ha        1 4MB      0.102500
     19 H121        2.5710   -1.4210   -3.8140 h1        1 4MB      0.115367
     20 H122        2.9940   -0.0270   -3.1520 h1        1 4MB      0.115367
     21 H123        1.6950   -0.1090   -4.0840 h1        1 4MB      0.115367
     22 H10         1.6370    0.4370    1.0680 ha        1 4MB      0.078500
@<TRIPOS>BOND
     1    1    5 3   
     2    1   15 1   
     3    2    6 1   
     4    2    7 3   
     5    3    4 1   
     6    3   12 1   
     7    3   16 1   
     8    4    9 3   
     9    5   17 1   
    10    6   10 1   
    11    6   11 1   
    12    7   18 1   
    13    8   12 1   
    14    8   19 1   
    15    8   20 1   
    16    8   21 1   
    17    9   22 1   
    18   12   13 2   
    19   12   14 2   
@<TRIPOS>SUBSTRUCTURE
     1 4MB         1 TEMP              0 ****  ****    0 ROOT
