@<TRIPOS>MOLECULE
4MB
   22    22     1     0     0
SMALL
bcc


@<TRIPOS>ATOM
      1 C3          0.1190    0.8440   -0.1170 ca        1 4MB     -0.187000
      2 C5          2.3500   -0.1150   -0.1140 ca        1 4MB     -0.127600
      3 N1         -1.7750   -0.4630   -0.9800 nh        1 4MB     -0.789500
      4 C2         -0.3950   -0.3350   -0.6990 ca        1 4MB      0.090600
      5 C4          1.4770    0.9370    0.1740 ca        1 4MB     -0.090500
      6 C6          3.8330   -0.0060    0.2200 c         1 4MB      0.909200
      7 C9          1.8440   -1.2720   -0.7110 ca        1 4MB     -0.090500
      8 C12        -2.5830   -0.6020    1.5030 c3        1 4MB     -0.362300
      9 C10         0.4880   -1.3930   -1.0010 ca        1 4MB     -0.187000
     10 O7          4.5750   -0.9810   -0.0850 o         1 4MB     -0.825300
     11 O8          4.2320    1.0500    0.7850 o         1 4MB     -0.825300
     12 S11        -2.9730    0.0320   -0.0280 s6        1 4MB      1.465900
     13 O14        -4.1700   -0.5870   -0.4730 o         1 4MB     -0.672800
     14 O13        -3.0480    1.4340    0.0970 o         1 4MB     -0.672800
     15 H3         -0.5470    1.6940    0.1030 ha        1 4MB      0.123500
     16 HN1        -1.9590   -0.9970   -1.7980 hn        1 4MB      0.454800
     17 H4          1.8930    1.8480    0.6360 ha        1 4MB      0.159000
     18 H9          2.5470   -2.0890   -0.9430 ha        1 4MB      0.159000
     19 H121       -2.7780   -1.6980    1.5790 h1        1 4MB      0.115367
     20 H122       -1.5110   -0.4470    1.7900 h1        1 4MB      0.115367
     21 H123       -3.1920   -0.1080    2.3000 h1        1 4MB      0.115367
     22 H10         0.1120   -2.3120   -1.4720 ha        1 4MB      0.123500
@<TRIPOS>BOND
     1    1    4 ar  
     2    1    5 ar  
     3    1   15 1   
     4    2    5 ar  
     5    2    6 1   
     6    2    7 ar  
     7    3    4 1   
     8    3   12 1   
     9    3   16 1   
    10    4    9 ar  
    11    5   17 1   
    12    6   10 1   
    13    6   11 1   
    14    7    9 ar  
    15    7   18 1   
    16    8   12 1   
    17    8   19 1   
    18    8   20 1   
    19    8   21 1   
    20    9   22 1   
    21   12   13 2   
    22   12   14 2   
@<TRIPOS>SUBSTRUCTURE
     1 4MB         1 TEMP              0 ****  ****    0 ROOT
