@<TRIPOS>MOLECULE
4MB
   22    22     1     0     0
SMALL
bcc


@<TRIPOS>ATOM
      1 C3          0.2320   -0.3640    0.1000 ca        1 4MB     -0.187000
      2 C5          0.0940   -0.0030    2.4970 ca        1 4MB     -0.127600
      3 N1          2.3590    0.0030   -1.0750 nh        1 4MB     -0.789500
      4 C2          1.5930    0.0100    0.1140 ca        1 4MB      0.090600
      5 C4         -0.4960   -0.3740    1.2860 ca        1 4MB     -0.090500
      6 C6         -0.7090   -0.0290    3.7910 c         1 4MB      0.909200
      7 C9          1.4350    0.3890    2.5060 ca        1 4MB     -0.090500
      8 C12         2.4420   -2.5940   -1.3720 c3        1 4MB     -0.362300
      9 C10         2.1860    0.3970    1.3340 ca        1 4MB     -0.187000
     10 O7         -0.1270    0.3380    4.8500 o         1 4MB     -0.825300
     11 O8         -1.9080   -0.4200    3.7310 o         1 4MB     -0.825300
     12 S11         2.2990   -1.1240   -2.2200 s6        1 4MB      1.465900
     13 O14         3.4450   -0.9730   -3.0440 o         1 4MB     -0.672800
     14 O13         1.0740   -1.1510   -2.9170 o         1 4MB     -0.672800
     15 H3         -0.2600   -0.6440   -0.8460 ha        1 4MB      0.123500
     16 HN1         3.0430    0.7240   -1.1030 hn        1 4MB      0.454800
     17 H4         -1.5580   -0.6720    1.2930 ha        1 4MB      0.159000
     18 H9          1.8830    0.6910    3.4670 ha        1 4MB      0.159000
     19 H121        3.4840   -2.7930   -1.0260 h1        1 4MB      0.115367
     20 H122        1.7870   -2.6510   -0.4650 h1        1 4MB      0.115367
     21 H123        2.1470   -3.4530   -2.0230 h1        1 4MB      0.115367
     22 H10         3.2390    0.7110    1.3650 ha        1 4MB      0.123500
@<TRIPOS>BOND
     1    1    4 ar  
     2    1    5 ar  
     3    1   15 1   
     4    2    5 ar  
     5    2    6 1   
     6    2    7 ar  
     7    3    4 1   
     8    3   12 1   
     9    3   16 1   
    10    4    9 ar  
    11    5   17 1   
    12    6   10 1   
    13    6   11 1   
    14    7    9 ar  
    15    7   18 1   
    16    8   12 1   
    17    8   19 1   
    18    8   20 1   
    19    8   21 1   
    20    9   22 1   
    21   12   13 2   
    22   12   14 2   
@<TRIPOS>SUBSTRUCTURE
     1 4MB         1 TEMP              0 ****  ****    0 ROOT
