@<TRIPOS>MOLECULE
4MB
   22    22     1     0     0
SMALL
bcc


@<TRIPOS>ATOM
      1 C3          0.2250   -0.4220    0.0830 ca        1 4MB     -0.187000
      2 C5          0.0480    0.0060    2.4670 ca        1 4MB     -0.127600
      3 N1          2.3450    0.0040   -1.0850 nh        1 4MB     -0.789500
      4 C2          1.5670    0.0130    0.0970 ca        1 4MB      0.090600
      5 C4         -0.5130   -0.4270    1.2630 ca        1 4MB     -0.090500
      6 C6         -0.7660   -0.0160    3.7550 c         1 4MB      0.909200
      7 C9          1.3700    0.4580    2.4740 ca        1 4MB     -0.090500
      8 C12         2.5450   -2.5940   -1.3000 c3        1 4MB     -0.362300
      9 C10         2.1310    0.4630    1.3090 ca        1 4MB     -0.187000
     10 O7         -0.2110    0.4100    4.8060 o         1 4MB     -0.825300
     11 O8         -1.9460   -0.4610    3.6970 o         1 4MB     -0.825300
     12 S11         2.3450   -1.1590   -2.1950 s6        1 4MB      1.465900
     13 O14         3.4910   -0.9830   -3.0140 o         1 4MB     -0.672800
     14 O13         1.1290   -1.2620   -2.9000 o         1 4MB     -0.672800
     15 H3         -0.2450   -0.7520   -0.8580 ha        1 4MB      0.123500
     16 HN1         2.9960    0.7540   -1.1290 hn        1 4MB      0.454800
     17 H4         -1.5610   -0.7720    1.2700 ha        1 4MB      0.159000
     18 H9          1.7950    0.8090    3.4300 ha        1 4MB      0.159000
     19 H121        1.8840   -2.6520   -0.3980 h1        1 4MB      0.115367
     20 H122        2.2950   -3.4860   -1.9270 h1        1 4MB      0.115367
     21 H123        3.5910   -2.7360   -0.9390 h1        1 4MB      0.115367
     22 H10         3.1680    0.8250    1.3390 ha        1 4MB      0.123500
@<TRIPOS>BOND
     1    1    4 ar  
     2    1    5 ar  
     3    1   15 1   
     4    2    5 ar  
     5    2    6 1   
     6    2    7 ar  
     7    3    4 1   
     8    3   12 1   
     9    3   16 1   
    10    4    9 ar  
    11    5   17 1   
    12    6   10 1   
    13    6   11 1   
    14    7    9 ar  
    15    7   18 1   
    16    8   12 1   
    17    8   19 1   
    18    8   20 1   
    19    8   21 1   
    20    9   22 1   
    21   12   13 2   
    22   12   14 2   
@<TRIPOS>SUBSTRUCTURE
     1 4MB         1 TEMP              0 ****  ****    0 ROOT
