@<TRIPOS>MOLECULE
4MB
   22    22     1     0     0
SMALL
bcc


@<TRIPOS>ATOM
      1 C3          0.2340   -0.3560    0.0990 ca        1 4MB     -0.187000
      2 C5          0.0950   -0.0040    2.4980 ca        1 4MB     -0.127600
      3 N1          2.3650    0.0020   -1.0710 nu        1 4MB     -0.789500
      4 C2          1.5970    0.0100    0.1170 ca        1 4MB      0.089600
      5 C4         -0.4950   -0.3660    1.2840 ca        1 4MB     -0.090500
      6 C6         -0.7100   -0.0290    3.7910 c         1 4MB      0.909200
      7 C9          1.4380    0.3800    2.5100 ca        1 4MB     -0.090500
      8 C12         2.4330   -2.5940   -1.3770 c3        1 4MB     -0.362300
      9 C10         2.1900    0.3870    1.3390 ca        1 4MB     -0.187000
     10 O7         -0.1270    0.3300    4.8520 o         1 4MB     -0.825300
     11 O8         -1.9120   -0.4120    3.7280 o         1 4MB     -0.825300
     12 S11         2.2990   -1.1210   -2.2200 s6        1 4MB      1.465900
     13 O14         3.4470   -0.9730   -3.0420 o         1 4MB     -0.672800
     14 O13         1.0750   -1.1390   -2.9180 o         1 4MB     -0.672800
     15 H3         -0.2590   -0.6290   -0.8480 ha        1 4MB      0.123500
     16 HN1         3.0530    0.7200   -1.0960 hn        1 4MB      0.454800
     17 H4         -1.5590   -0.6570    1.2890 ha        1 4MB      0.159000
     18 H9          1.8870    0.6750    3.4730 ha        1 4MB      0.159000
     19 H121        1.7770   -2.6500   -0.4710 h1        1 4MB      0.115367
     20 H122        2.1350   -3.4490   -2.0310 h1        1 4MB      0.115367
     21 H123        3.4740   -2.8000   -1.0300 h1        1 4MB      0.115367
     22 H10         3.2450    0.6950    1.3720 ha        1 4MB      0.123500
@<TRIPOS>BOND
     1    1    4 ar  
     2    1    5 ar  
     3    1   15 1   
     4    2    5 ar  
     5    2    6 1   
     6    2    7 ar  
     7    3    4 1   
     8    3   12 1   
     9    3   16 1   
    10    4    9 ar  
    11    5   17 1   
    12    6   10 1   
    13    6   11 1   
    14    7    9 ar  
    15    7   18 1   
    16    8   12 1   
    17    8   19 1   
    18    8   20 1   
    19    8   21 1   
    20    9   22 1   
    21   12   13 2   
    22   12   14 2   
@<TRIPOS>SUBSTRUCTURE
     1 4MB         1 TEMP              0 ****  ****    0 ROOT
