@<TRIPOS>MOLECULE
4MC
   86    87     1     0     0
SMALL
bcc


@<TRIPOS>ATOM
      1 O5         99.9560 -275.1930  364.4160 o         1 4MC     -0.776800
      2 S1        100.9670 -276.1500  364.7960 sy        1 4MC      1.477200
      3 O4        100.6340 -276.4290  366.1750 o         1 4MC     -0.776800
      4 CAB       101.0470 -277.4550  363.8660 ca        1 4MC     -0.503500
      5 CAD       100.3410 -277.5060  362.6420 ca        1 4MC     -0.010500
      6 CAF       100.3850 -278.6310  361.8330 ca        1 4MC     -0.131500
      7 CAE       101.1470 -279.7420  362.2170 ca        1 4MC      0.014000
      8 CAC       101.8580 -279.7140  363.4210 ca        1 4MC     -0.131500
      9 CAA       101.8090 -278.5870  364.2300 ca        1 4MC     -0.010500
     10 C28       102.4370 -275.4170  364.6750 ce        1 4MC     -0.470100
     11 C27       102.9030 -274.5500  363.7680 c2        1 4MC      0.040800
     12 C18       102.1580 -274.1040  362.5300 c3        1 4MC      0.112700
     13 C19       103.1850 -273.8200  361.4200 c3        1 4MC     -0.114400
     14 C20       102.5390 -273.6460  360.0570 c3        1 4MC     -0.023100
     15 C21       103.5830 -273.4970  359.0060 ca        1 4MC     -0.139300
     16 C26       103.8390 -272.2460  358.4340 ca        1 4MC     -0.121500
     17 C25       104.8000 -272.1190  357.4320 ca        1 4MC     -0.110000
     18 C24       105.5100 -273.2390  356.9960 ca        1 4MC     -0.089000
     19 C23       105.2550 -274.4890  357.5640 ca        1 4MC     -0.110000
     20 C22       104.2940 -274.6190  358.5650 ca        1 4MC     -0.121500
     21 N2        101.2790 -272.9080  362.7990 ny        1 4MC     -0.673800
     22 C17        99.7760 -273.1450  362.7340 c         1 4MC      0.485100
     23 O3         99.3790 -274.1460  362.1680 o         1 4MC     -0.409100
     24 C9         98.8830 -272.0210  363.3740 c3        1 4MC      0.208500
     25 C10        98.5620 -272.4950  364.8100 c3        1 4MC     -0.087400
     26 C11        97.4190 -273.4840  364.8850 c3        1 4MC     -0.110400
     27 C01        97.2080 -274.0240  366.2980 c3        1 4MC      0.114800
     28 N01        98.1000 -275.2020  366.5870 ny        1 4MC     -0.783000
     29 C02        98.0260 -275.6830  368.0110 c2        1 4MC      0.615100
     30 N03        97.1570 -275.4210  368.9040 n2        1 4MC     -0.602100
     31 N02        99.1460 -276.6110  368.3950 nz        1 4MC     -0.803600
     32 N1         97.7540 -271.7150  362.5910 n8        1 4MC     -0.944800
     33 C8       -332.6350  922.1050-1213.1700 c1        1 4MC      0.647500
     34 O2       -333.3550  922.1780-1214.0930 o         1 4MC     -0.174500
     35 N3       -331.8820  921.8550-1212.1390 n3        1 4MC     -0.125400
     36 C39      -330.4260  921.6570-1212.3000 c3        1 4MC      0.010300
     37 C40      -329.6060  922.7860-1211.6430 c3        1 4MC      0.141800
     38 C48      -332.3170  922.2370-1210.7780 c3        1 4MC      0.010300
     39 C49      -331.4340  923.3470-1210.1730 c3        1 4MC      0.141800
     40 N4       -330.0200  923.0270-1210.2710 n3        1 4MC     -0.738600
     41 C33      -329.1670  923.9600-1209.5670 c3        1 4MC      0.152100
     42 H331     -329.1970  924.9960-1210.0010 h1        1 4MC      0.059033
     43 H332     -329.4940  924.0030-1208.4950 h1        1 4MC      0.059033
     44 H333     -328.1120  923.5790-1209.6060 h1        1 4MC      0.059033
     45 H491     -331.7060  923.4160-1209.0790 h1        1 4MC      0.076700
     46 H492     -331.6910  924.3330-1210.6590 h1        1 4MC      0.076700
     47 H481     -333.3900  922.5740-1210.7880 h1        1 4MC      0.112700
     48 H482     -332.2240  921.2870-1210.1730 h1        1 4MC      0.112700
     49 H391     -330.2150  920.6700-1211.7900 h1        1 4MC      0.112700
     50 H392     -330.1560  921.5820-1213.3890 h1        1 4MC      0.112700
     51 H401     -329.6700  923.7120-1212.2850 h1        1 4MC      0.076700
     52 H402     -328.5310  922.4420-1211.6330 h1        1 4MC      0.076700
     53 HN1        97.8900 -271.0670  361.8460 hn        1 4MC      0.432800
     54 H9         99.5170 -271.0840  363.4630 h1        1 4MC      0.101700
     55 H101       99.4930 -272.9450  365.2440 hc        1 4MC      0.069700
     56 H102       98.3020 -271.5750  365.4050 hc        1 4MC      0.069700
     57 H111       96.4510 -272.9730  364.6040 hc        1 4MC      0.116200
     58 H112       97.5900 -274.3160  364.1460 hc        1 4MC      0.116200
     59 H011       97.4290 -273.2180  367.0570 hx        1 4MC      0.120200
     60 H012       96.1370 -274.3660  366.4080 hx        1 4MC      0.120200
     61 H01        99.0800 -274.9450  366.3320 hn        1 4MC      0.490800
     62 H03        96.3640 -274.8210  368.7720 hn        1 4MC      0.531400
     63 H021       99.1530 -277.4380  367.7750 hn        1 4MC      0.513467
     64 H022      100.0610 -276.1360  368.2780 hn        1 4MC      0.513467
     65 HN2       101.4980 -272.5170  363.7190 hn        1 4MC      0.462300
     66 H18       101.4740 -274.9380  362.1700 hx        1 4MC      0.126700
     67 H191      103.8830 -274.7040  361.3770 hc        1 4MC      0.100200
     68 H192      103.8080 -272.9220  361.6750 hc        1 4MC      0.100200
     69 H201      101.8990 -274.5390  359.8250 hc        1 4MC      0.042700
     70 H202      101.8710 -272.7430  360.0520 hc        1 4MC      0.042700
     71 H26       103.2770 -271.3600  358.7620 ha        1 4MC      0.121000
     72 H25       104.9950 -271.1340  356.9800 ha        1 4MC      0.157500
     73 H24       106.2660 -273.1380  356.2010 ha        1 4MC      0.165000
     74 H23       105.8100 -275.3750  357.2150 ha        1 4MC      0.157500
     75 H22       104.0880 -275.6080  358.9980 ha        1 4MC      0.121000
     76 H27       103.9320 -274.1390  363.8550 ha        1 4MC      0.194000
     77 H28       103.1640 -275.6890  365.4790 h4        1 4MC      0.227000
     78 HAA       102.3790 -278.5770  365.1760 ha        1 4MC      0.153000
     79 HAC       102.4630 -280.5870  363.7240 ha        1 4MC      0.188500
     80 HAE       101.1880 -280.6380  361.5680 ha        1 4MC      0.193000
     81 HAF        99.8220 -278.6530  360.8830 ha        1 4MC      0.188500
     82 HAD        99.7400 -276.6310  362.3310 ha        1 4MC      0.153000
     83 H221      101.5020 -272.1920  362.0880 hn        1 4MC      0.462300
     84 H013       97.8360 -275.9760  365.9550 hn        1 4MC      0.490800
     85 H023       99.0340 -276.9160  369.3800 hn        1 4MC      0.513467
     86 H12        97.1310 -272.4620  362.3850 hn        1 4MC      0.432800
@<TRIPOS>BOND
     1    1    2 2   
     2    2    3 2   
     3    2    4 1   
     4    2   10 1   
     5    4    5 ar  
     6    4    9 ar  
     7    5    6 ar  
     8    5   82 1   
     9    6    7 ar  
    10    6   81 1   
    11    7    8 ar  
    12    7   80 1   
    13    8    9 ar  
    14    8   79 1   
    15    9   78 1   
    16   10   11 2   
    17   10   77 1   
    18   11   12 1   
    19   11   76 1   
    20   12   13 1   
    21   12   21 1   
    22   12   66 1   
    23   13   14 1   
    24   13   67 1   
    25   13   68 1   
    26   14   15 1   
    27   14   69 1   
    28   14   70 1   
    29   15   16 ar  
    30   15   20 ar  
    31   16   17 ar  
    32   16   71 1   
    33   17   18 ar  
    34   17   72 1   
    35   18   19 ar  
    36   18   73 1   
    37   19   20 ar  
    38   19   74 1   
    39   20   75 1   
    40   21   22 1   
    41   21   65 1   
    42   21   83 1   
    43   22   23 2   
    44   22   24 1   
    45   24   25 1   
    46   24   32 1   
    47   24   54 1   
    48   25   26 1   
    49   25   55 1   
    50   25   56 1   
    51   26   27 1   
    52   26   57 1   
    53   26   58 1   
    54   27   28 1   
    55   27   59 1   
    56   27   60 1   
    57   28   29 1   
    58   28   61 1   
    59   28   84 1   
    60   29   30 2   
    61   29   31 1   
    62   30   62 1   
    63   31   63 1   
    64   31   64 1   
    65   31   85 1   
    66   32   53 1   
    67   32   86 1   
    68   33   34 2   
    69   33   35 2   
    70   35   36 1   
    71   35   38 1   
    72   36   37 1   
    73   36   49 1   
    74   36   50 1   
    75   37   40 1   
    76   37   51 1   
    77   37   52 1   
    78   38   39 1   
    79   38   47 1   
    80   38   48 1   
    81   39   40 1   
    82   39   45 1   
    83   39   46 1   
    84   40   41 1   
    85   41   42 1   
    86   41   43 1   
    87   41   44 1   
@<TRIPOS>SUBSTRUCTURE
     1 4MC         1 TEMP              0 ****  ****    0 ROOT
