@<TRIPOS>MOLECULE
4MC
   86    88     1     0     0
SMALL
bcc


@<TRIPOS>ATOM
      1 O5          0.1360    1.5870   -1.3190 o         1 4MC     -0.784800
      2 S1          0.4910    0.6460   -0.2680 sy        1 4MC      1.480200
      3 O4         -0.8000    0.2010    0.1970 o         1 4MC     -0.784800
      4 CAB         1.4710   -0.5350   -0.7090 ca        1 4MC     -0.520500
      5 CAD         2.1490   -0.4980   -1.9520 ca        1 4MC     -0.010500
      6 CAF         2.9920   -1.5230   -2.3440 ca        1 4MC     -0.127000
      7 CAE         3.2010   -2.6260   -1.5010 ca        1 4MC      0.029000
      8 CAC         2.5470   -2.6860   -0.2660 ca        1 4MC     -0.127000
      9 CAA         1.7000   -1.6560    0.1220 ca        1 4MC     -0.010500
     10 C28         1.3080    1.5000    0.8840 ce        1 4MC     -0.450100
     11 C27         2.1740    2.5120    0.7620 c2        1 4MC      0.023800
     12 C18         2.6370    3.0960   -0.5540 c3        1 4MC      0.131700
     13 C19         4.0210    3.7410   -0.3680 c3        1 4MC     -0.108400
     14 C20         4.6250    4.2420   -1.6630 c3        1 4MC     -0.066100
     15 C21         4.0320    5.5170   -2.1560 ca        1 4MC     -0.156300
     16 C26         3.3950    5.5620   -3.4050 ca        1 4MC     -0.163500
     17 C25         2.9720    6.7820   -3.9340 ca        1 4MC     -0.132500
     18 C24         3.1670    7.9650   -3.2180 ca        1 4MC     -0.087000
     19 C23         3.7860    7.9250   -1.9660 ca        1 4MC     -0.132500
     20 C22         4.2180    6.7080   -1.4380 ca        1 4MC     -0.163500
     21 N2          1.6330    4.1020   -1.0940 n4        1 4MC     -0.659800
     22 C17         1.0300    3.7700   -2.4240 c         1 4MC      0.540100
     23 O3          1.4780    2.8620   -3.1060 o         1 4MC     -0.384100
     24 C9         -0.1490    4.6720   -2.8470 c3        1 4MC      0.082500
     25 C10        -1.4700    3.9770   -2.4730 c3        1 4MC     -0.099400
     26 C11        -1.8370    2.7480   -3.2790 c3        1 4MC     -0.116400
     27 C01        -3.0650    2.0390   -2.6960 c3        1 4MC      0.115800
     28 N01        -2.6950    0.9670   -1.7120 n4        1 4MC     -0.786000
     29 C02        -3.8740    0.3680   -0.9780 c2        1 4MC      0.620100
     30 N03        -5.1160    0.4910   -1.2180 n2        1 4MC     -0.591100
     31 N02        -3.4780   -0.5050    0.1810 n4        1 4MC     -0.807600
     32 N1         -0.0050    5.0650   -4.2780 n4        1 4MC     -0.704800
     33 C8         -0.9740    6.2890   -4.6600 c         1 4MC      0.633100
     34 O2         -1.6580    6.6300   -3.6900 o         1 4MC     -0.516100
     35 N3         -0.8700    6.8070   -5.9030 n         1 4MC     -0.353800
     36 C39        -1.9440    7.7520   -6.2880 c3        1 4MC      0.067000
     37 C40        -1.5870    8.6100   -7.5180 c3        1 4MC      0.162300
     38 C48        -0.0190    6.2400   -6.9410 c3        1 4MC      0.067000
     39 C49         0.2030    7.1790   -8.1570 c3        1 4MC      0.162300
     40 N4         -1.0330    7.7990   -8.5860 n3        1 4MC     -0.739600
     41 C33        -0.9390    8.4820   -9.8600 c3        1 4MC      0.148100
     42 H331       -1.9630    8.8440  -10.1440 h1        1 4MC      0.068367
     43 H332       -0.5890    7.7500  -10.6340 h1        1 4MC      0.068367
     44 H333       -0.2360    9.3580   -9.8370 h1        1 4MC      0.068367
     45 H491        0.9970    7.9330   -7.8780 h1        1 4MC      0.082950
     46 H492        0.6020    6.5400   -8.9950 h1        1 4MC      0.082950
     47 H481       -0.4870    5.2820   -7.3100 h1        1 4MC      0.073950
     48 H482        1.0030    6.0240   -6.5180 h1        1 4MC      0.073950
     49 H391       -2.8680    7.1440   -6.5080 h1        1 4MC      0.073950
     50 H392       -2.1430    8.4350   -5.4130 h1        1 4MC      0.073950
     51 H401       -0.8950    9.4420   -7.1970 h1        1 4MC      0.082950
     52 H402       -2.5530    9.0760   -7.8740 h1        1 4MC      0.082950
     53 HN1        -0.2150    4.2740   -4.8900 hn        1 4MC      0.463300
     54 H9         -0.1320    5.6520   -2.2610 hx        1 4MC      0.160700
     55 H101       -1.3750    3.6940   -1.3890 hc        1 4MC      0.103200
     56 H102       -2.2920    4.7500   -2.5580 hc        1 4MC      0.103200
     57 H111       -0.9510    2.0550   -3.3470 hc        1 4MC      0.106200
     58 H112       -2.1210    3.0400   -4.3290 hc        1 4MC      0.106200
     59 H011       -3.6420    1.5510   -3.5380 hx        1 4MC      0.127700
     60 H012       -3.7300    2.7890   -2.1750 hx        1 4MC      0.127700
     61 H01        -2.2020    0.2120   -2.2140 hn        1 4MC      0.489300
     62 H03        -5.5240    1.0280   -1.9600 hn        1 4MC      0.537400
     63 H021       -4.3230   -0.7620    0.7330 hn        1 4MC      0.518467
     64 H022       -2.7990   -0.0190    0.8010 hn        1 4MC      0.518467
     65 HN2         0.8730    4.2250   -0.4170 hn        1 4MC      0.483300
     66 H18         2.7310    2.2700   -1.3290 hx        1 4MC      0.130700
     67 H191        4.6890    2.9390    0.0600 hc        1 4MC      0.109200
     68 H192        3.9720    4.5710    0.3880 hc        1 4MC      0.109200
     69 H201        4.5580    3.4450   -2.4520 hc        1 4MC      0.101700
     70 H202        5.7280    4.4190   -1.4840 hc        1 4MC      0.101700
     71 H26         3.3400    4.6480   -4.0180 ha        1 4MC      0.149000
     72 H25         2.5700    6.8310   -4.9580 ha        1 4MC      0.162000
     73 H24         2.8740    8.9360   -3.6540 ha        1 4MC      0.180000
     74 H23         3.9740    8.8640   -1.4130 ha        1 4MC      0.162000
     75 H22         4.7630    6.6930   -0.4780 ha        1 4MC      0.149000
     76 H27         2.6560    2.9620    1.6590 ha        1 4MC      0.205000
     77 H28         1.1330    1.1610    1.9380 h4        1 4MC      0.239000
     78 HAA         1.1960   -1.7170    1.1040 ha        1 4MC      0.147000
     79 HAC         2.7110   -3.5510    0.4040 ha        1 4MC      0.195500
     80 HAE         3.8840   -3.4410   -1.8110 ha        1 4MC      0.203000
     81 HAF         3.5080   -1.4780   -3.3200 ha        1 4MC      0.195500
     82 HAD         1.9910    0.3680   -2.6200 ha        1 4MC      0.147000
     83 H221        2.1400    5.0130   -1.2080 hn        1 4MC      0.483300
     84 H013       -2.0100    1.3640   -1.0310 hn        1 4MC      0.489300
     85 H023       -3.0330   -1.3690   -0.1670 hn        1 4MC      0.518467
     86 H12         0.9700    5.3630   -4.4440 hn        1 4MC      0.463300
@<TRIPOS>BOND
     1    1    2 2   
     2    2    3 2   
     3    2    4 1   
     4    2   10 1   
     5    4    5 ar  
     6    4    9 ar  
     7    5    6 ar  
     8    5   82 1   
     9    6    7 ar  
    10    6   81 1   
    11    7    8 ar  
    12    7   80 1   
    13    8    9 ar  
    14    8   79 1   
    15    9   78 1   
    16   10   11 2   
    17   10   77 1   
    18   11   12 1   
    19   11   76 1   
    20   12   13 1   
    21   12   21 1   
    22   12   66 1   
    23   13   14 1   
    24   13   67 1   
    25   13   68 1   
    26   14   15 1   
    27   14   69 1   
    28   14   70 1   
    29   15   16 ar  
    30   15   20 ar  
    31   16   17 ar  
    32   16   71 1   
    33   17   18 ar  
    34   17   72 1   
    35   18   19 ar  
    36   18   73 1   
    37   19   20 ar  
    38   19   74 1   
    39   20   75 1   
    40   21   22 1   
    41   21   65 1   
    42   21   83 1   
    43   22   23 2   
    44   22   24 1   
    45   24   25 1   
    46   24   32 1   
    47   24   54 1   
    48   25   26 1   
    49   25   55 1   
    50   25   56 1   
    51   26   27 1   
    52   26   57 1   
    53   26   58 1   
    54   27   28 1   
    55   27   59 1   
    56   27   60 1   
    57   28   29 1   
    58   28   61 1   
    59   28   84 1   
    60   29   30 2   
    61   29   31 1   
    62   30   62 1   
    63   31   63 1   
    64   31   64 1   
    65   31   85 1   
    66   32   33 1   
    67   32   53 1   
    68   32   86 1   
    69   33   34 2   
    70   33   35 1   
    71   35   36 1   
    72   35   38 1   
    73   36   37 1   
    74   36   49 1   
    75   36   50 1   
    76   37   40 1   
    77   37   51 1   
    78   37   52 1   
    79   38   39 1   
    80   38   47 1   
    81   38   48 1   
    82   39   40 1   
    83   39   45 1   
    84   39   46 1   
    85   40   41 1   
    86   41   42 1   
    87   41   43 1   
    88   41   44 1   
@<TRIPOS>SUBSTRUCTURE
     1 4MC         1 TEMP              0 ****  ****    0 ROOT
