@<TRIPOS>MOLECULE
4MC
   82    76     1     0     0
SMALL
bcc


@<TRIPOS>ATOM
      1 O5          2.6870   -2.3970   -1.9370 o         1 4MC     -0.943500
      2 S1          3.6020   -1.3150   -1.7670 ss        1 4MC      2.899000
      3 O4          3.6470   -1.2130   -0.3470 o         1 4MC     -0.943500
      4 CAB         5.2710   -1.7270   -2.4670 c1        1 4MC     -0.815000
      5 CAD         6.3960   -1.6890   -1.6500 c2        1 4MC     -0.017000
      6 CAF         7.6370   -2.0740   -2.1550 c1        1 4MC     -0.156000
      7 CAE         7.7510   -2.4950   -3.4690 c1        1 4MC     -0.227667
      8 CAC         6.6300   -2.5340   -4.2840 c1        1 4MC     -0.227667
      9 CAA         5.3850   -2.1490   -3.7800 c1        1 4MC     -0.022000
     10 C28         2.9590    0.2230   -2.5260 c1        1 4MC     -0.227667
     11 C27         1.9460    0.9790   -1.8640 c1        1 4MC     -0.227667
     12 C18         1.4060    0.5200   -0.5500 c2        1 4MC      0.028000
     13 C19         2.5530    0.4090    0.4720 c3        1 4MC     -0.169000
     14 C20         2.8370    1.8260    1.1040 c3        1 4MC     -0.126000
     15 C21         4.1300    1.7470    2.0310 c2        1 4MC     -0.073000
     16 C26         5.4150    1.8510    1.4590 c2        1 4MC     -0.128000
     17 C25         6.5340    1.8160    2.2650 c1        1 4MC     -0.129000
     18 C24         6.3960    1.6790    3.6460 c1        1 4MC     -0.227667
     19 C23         5.1380    1.5770    4.2080 c1        1 4MC     -0.227667
     20 C22         3.9930    1.6120    3.3840 c1        1 4MC     -0.125000
     21 N2          0.7830   -0.7540   -0.7120 n         1 4MC     -0.374000
     22 C17        -0.5890   -0.8350   -1.1740 c2        1 4MC      0.296000
     23 O3         -0.8360   -1.2770   -2.2950 o         1 4MC     -0.367000
     24 C9         -1.7030   -0.4110   -0.2780 c3        1 4MC      0.009000
     25 C10        -2.2040   -1.6280    0.5310 c3        1 4MC     -0.176000
     26 C11        -2.5450   -1.1800    1.9670 c3        1 4MC     -0.174000
     27 C01        -2.3010   -2.3610    2.9580 c3        1 4MC     -0.051000
     28 N01        -2.7540   -1.9820    4.2790 n3        1 4MC     -0.333000
     29 C02        -2.3730   -2.7780    5.4380 c2        1 4MC      0.159000
     30 N03        -2.1620   -2.1970    6.5870 n1        1 4MC     -0.351000
     31 N02        -2.2270   -4.2230    5.3150 n3        1 4MC     -0.319000
     32 N1         -2.7790    0.1210   -1.0640 n         1 4MC     -0.357000
     33 C8         -3.6470    1.1890   -0.5050 c2        1 4MC      0.375000
     34 O2         -3.5550    1.4950    0.6770 o         1 4MC     -0.423000
     35 N3         -4.5760    1.9290   -1.3910 n         1 4MC     -0.294000
     36 C39        -4.7360    1.6280   -2.7800 c3        1 4MC     -0.037500
     37 C40        -6.1930    1.4300   -3.1590 c3        1 4MC     -0.075000
     38 C48        -5.3860    2.9980   -0.9410 c3        1 4MC     -0.037500
     39 C49        -6.8570    2.8070   -1.3170 c3        1 4MC     -0.075000
     40 N4         -7.0270    2.5180   -2.7190 n3        1 4MC     -0.257000
     41 C33        -8.4230    2.1950   -2.9830 c3        1 4MC     -0.120000
     42 H331       -8.9970    2.9310   -2.6640 h1        1 4MC      0.075333
     43 H332       -8.6620    1.3650   -2.5110 h1        1 4MC      0.075333
     44 H333       -8.5570    2.0710   -3.9710 h1        1 4MC      0.075333
     45 H491       -7.3450    3.6220   -1.1000 h1        1 4MC      0.083000
     46 H492       -7.2200    2.0780   -0.8010 h1        1 4MC      0.083000
     47 H481       -5.3110    3.0640    0.0450 h1        1 4MC      0.092750
     48 H482       -5.0670    3.8190   -1.3350 h1        1 4MC      0.092750
     49 H391       -4.3660    2.3660   -3.3110 h1        1 4MC      0.092750
     50 H392       -4.2430    0.8130   -2.9860 h1        1 4MC      0.092750
     51 H401       -6.5160    0.5970   -2.7470 h1        1 4MC      0.083000
     52 H402       -6.2620    1.3480   -4.1500 h1        1 4MC      0.083000
     53 HN1        -2.9210   -0.1860   -1.9210 hn        1 4MC      0.227000
     54 H9         -1.3770    0.2820    0.3430 h1        1 4MC      0.139000
     55 H101       -2.9850   -1.9880    0.1140 hc        1 4MC      0.110500
     56 H102       -1.5050   -2.3130    0.5590 hc        1 4MC      0.110500
     57 H111       -3.4900   -0.9060    2.0100 hc        1 4MC      0.089500
     58 H112       -1.9850   -0.4380    2.2100 hc        1 4MC      0.089500
     59 H011       -1.3540   -2.5680    2.9880 h1        1 4MC      0.084500
     60 H012       -2.7900   -3.1370    2.6610 h1        1 4MC      0.084500
     61 H01        -3.2370   -1.2170    4.3920 hn        1 4MC      0.190000
     62 H03        -2.2510   -1.3160    6.6620 DU        1 4MC      0.146000
     63 H021       -2.2320   -4.6150    4.4880 hn        1 4MC      0.190500
     64 H022       -2.1380   -4.7410    6.0670 hn        1 4MC      0.190500
     65 HN2         1.2280   -1.5150   -0.4700 hn        1 4MC      0.268000
     66 H18         0.7380    1.1750   -0.2220 h4        1 4MC      0.133000
     67 H191        3.3550    0.0860    0.0260 hc        1 4MC      0.105000
     68 H192        2.3040   -0.2060    1.1650 hc        1 4MC      0.105000
     69 H201        2.0590    2.1050    1.6490 hc        1 4MC      0.092500
     70 H202        2.9840    2.4690    0.4010 hc        1 4MC      0.092500
     71 H26         5.5110    1.9450    0.5150 ha        1 4MC      0.130000
     72 H25         7.4440    1.8900    1.8580 ha        1 4MC      0.130000
     73 H24         7.2110    1.6540    4.2310 ha        1 4MC      0.141167
     74 H23         5.0440    1.4820    5.1610 ha        1 4MC      0.141167
     75 H22         3.1080    1.5410    3.7780 ha        1 4MC      0.132000
     76 H27         1.6000    1.8070   -2.2750 ha        1 4MC      0.141167
     77 H28         3.3030    0.5190   -3.3690 ha        1 4MC      0.141167
     78 HAA         4.5980   -2.1750   -4.3540 ha        1 4MC      0.153000
     79 HAC         6.7110   -2.8320   -5.2150 ha        1 4MC      0.141167
     80 HAE         8.6360   -2.7690   -3.8280 ha        1 4MC      0.141167
     81 HAF         8.4390   -2.0460   -1.5730 ha        1 4MC      0.142000
     82 HAD         6.3170   -1.3930   -0.7300 ha        1 4MC      0.155000
@<TRIPOS>BOND
     1    1    2 1   
     2    2    3 1   
     3    4    5 1   
     4    4    9 1   
     5    5    6 1   
     6    5   82 1   
     7    6   81 1   
     8    7    8 1   
     9    7   80 1   
    10    8   79 1   
    11    9   78 1   
    12   10   11 1   
    13   10   77 1   
    14   11   76 1   
    15   12   13 1   
    16   12   21 1   
    17   12   66 1   
    18   13   14 1   
    19   13   67 1   
    20   13   68 1   
    21   14   15 1   
    22   14   69 1   
    23   14   70 1   
    24   15   16 1   
    25   15   20 1   
    26   16   17 1   
    27   16   71 1   
    28   17   72 1   
    29   18   19 1   
    30   18   73 1   
    31   19   74 1   
    32   20   75 1   
    33   21   22 1   
    34   21   65 1   
    35   22   23 1   
    36   22   24 1   
    37   24   25 1   
    38   24   32 1   
    39   24   54 1   
    40   25   26 1   
    41   25   55 1   
    42   25   56 1   
    43   26   27 1   
    44   26   57 1   
    45   26   58 1   
    46   27   28 1   
    47   27   59 1   
    48   27   60 1   
    49   28   29 1   
    50   28   61 1   
    51   29   30 1   
    52   29   31 1   
    53   31   63 1   
    54   31   64 1   
    55   32   33 1   
    56   32   53 1   
    57   33   34 1   
    58   33   35 1   
    59   35   36 1   
    60   35   38 1   
    61   36   37 1   
    62   36   49 1   
    63   36   50 1   
    64   37   40 1   
    65   37   51 1   
    66   37   52 1   
    67   38   39 1   
    68   38   47 1   
    69   38   48 1   
    70   39   40 1   
    71   39   45 1   
    72   39   46 1   
    73   40   41 1   
    74   41   42 1   
    75   41   43 1   
    76   41   44 1   
@<TRIPOS>SUBSTRUCTURE
     1 4MC         1 TEMP              0 ****  ****    0 ROOT
