@<TRIPOS>MOLECULE
4MC
   82    84     1     0     0
SMALL
bcc


@<TRIPOS>ATOM
      1 O5          3.5010    8.2790    1.6770 o         1 4MC     -0.677800
      2 S1          2.2000    8.4000    2.2010 sy        1 4MC      1.448200
      3 O4          2.0970    9.0840    3.4270 o         1 4MC     -0.677800
      4 CAB         1.1770    9.0880    1.0690 ca        1 4MC     -0.381500
      5 CAD         1.1530    8.6420   -0.2590 ca        1 4MC     -0.016500
      6 CAF         0.3130    9.2360   -1.1980 ca        1 4MC     -0.155500
      7 CAE        -0.5190   10.2890   -0.8190 ca        1 4MC     -0.064000
      8 CAC        -0.5060   10.7460    0.5000 ca        1 4MC     -0.155500
      9 CAA         0.3350   10.1480    1.4330 ca        1 4MC     -0.016500
     10 C28         1.5210    6.8890    2.3370 ce        1 4MC     -0.468100
     11 C27         0.8630    6.4140    3.3970 c2        1 4MC      0.008800
     12 C18         0.2380    5.0400    3.4510 c3        1 4MC      0.108900
     13 C19        -0.4490    4.8590    4.8160 c3        1 4MC     -0.090400
     14 C20        -1.3180    3.6180    4.8550 c3        1 4MC     -0.036100
     15 C21        -2.1040    3.5480    6.1190 ca        1 4MC     -0.085300
     16 C26        -1.7600    2.6320    7.1200 ca        1 4MC     -0.126500
     17 C25        -2.5050    2.5640    8.2960 ca        1 4MC     -0.126500
     18 C24        -3.5990    3.4100    8.4820 ca        1 4MC     -0.129000
     19 C23        -3.9470    4.3230    7.4870 ca        1 4MC     -0.126500
     20 C22        -3.2040    4.3920    6.3110 ca        1 4MC     -0.126500
     21 N2          1.1710    3.9780    3.1550 n         1 4MC     -0.565900
     22 C17         1.2620    3.4000    1.9070 c         1 4MC      0.661100
     23 O3          0.5910    3.8200    0.9450 o         1 4MC     -0.608100
     24 C9          2.2490    2.2160    1.7670 c3        1 4MC      0.037700
     25 C10         3.6110    2.7640    1.3120 c3        1 4MC     -0.108400
     26 C11         3.5870    3.4170   -0.0500 c3        1 4MC     -0.123400
     27 C01         4.9820    3.8370   -0.5140 c3        1 4MC      0.193800
     28 N01         5.6760    4.8330    0.2620 nh        1 4MC     -0.798200
     29 C02         5.2760    6.2160    0.1460 c2        1 4MC      0.760100
     30 N03         4.2980    6.5660   -0.6560 n2        1 4MC     -0.898100
     31 N02         6.1050    7.1420    0.8550 nh        1 4MC     -0.926800
     32 N1          1.6590    1.2080    0.9130 n         1 4MC     -0.533900
     33 C8          2.2090   -0.0880    0.9470 c         1 4MC      0.734100
     34 O2          2.9980   -0.4010    1.8730 o         1 4MC     -0.642100
     35 N3          1.9000   -1.0170   -0.0890 n         1 4MC     -0.417800
     36 C39         2.3820   -2.3750    0.1180 c3        1 4MC      0.064500
     37 C40         1.3630   -3.3150    0.7940 c3        1 4MC      0.136800
     38 C48         0.5920   -1.0060   -0.7180 c3        1 4MC      0.064500
     39 C49        -0.4450   -1.9260   -0.0370 c3        1 4MC      0.136800
     40 N4          0.0510   -3.2800    0.1610 n3        1 4MC     -0.733600
     41 C33        -0.9080   -4.1260    0.8330 c3        1 4MC      0.157100
     42 H331       -1.1370   -3.7950    1.8830 h1        1 4MC      0.034033
     43 H332       -0.5030   -5.1710    0.8690 h1        1 4MC      0.034033
     44 H333       -1.8620   -4.1280    0.2440 h1        1 4MC      0.034033
     45 H491       -0.7710   -1.4510    0.9340 h1        1 4MC      0.042700
     46 H492       -1.3450   -1.9880   -0.7100 h1        1 4MC      0.042700
     47 H481        0.7510   -1.3590   -1.7780 h1        1 4MC      0.071450
     48 H482        0.1530    0.0260   -0.7650 h1        1 4MC      0.071450
     49 H391        3.3160   -2.3600    0.7460 h1        1 4MC      0.071450
     50 H392        2.6390   -2.7750   -0.9040 h1        1 4MC      0.071450
     51 H401        1.7540   -4.3670    0.7070 h1        1 4MC      0.042700
     52 H402        1.3070   -3.0570    1.8910 h1        1 4MC      0.042700
     53 HN1         1.3110    1.5570    0.0450 hn        1 4MC      0.317500
     54 H9          2.4110    1.7230    2.7760 h1        1 4MC      0.092700
     55 H101        3.9490    3.5010    2.0880 hc        1 4MC      0.057200
     56 H102        4.3430    1.9110    1.3140 hc        1 4MC      0.057200
     57 H111        3.1900    2.6980   -0.8140 hc        1 4MC      0.062200
     58 H112        2.8930    4.3000   -0.0380 hc        1 4MC      0.062200
     59 H011        5.6490    2.9250   -0.5020 h1        1 4MC      0.063700
     60 H012        4.9050    4.1940   -1.5790 h1        1 4MC      0.063700
     61 H01         5.7620    4.5630    1.2230 hn        1 4MC      0.376800
     62 H03         4.1420    7.5500   -0.7170 hn        1 4MC      0.395400
     63 H021        6.6700    6.7520    1.5740 hn        1 4MC      0.401300
     64 H022        5.6120    7.9590    1.1560 hn        1 4MC      0.401300
     65 HN2         1.7290    3.6390    3.9010 hn        1 4MC      0.318500
     66 H18        -0.5650    5.0210    2.6440 h1        1 4MC      0.104700
     67 H191        0.3160    4.8170    5.6350 hc        1 4MC      0.057200
     68 H192       -1.0900    5.7630    5.0000 hc        1 4MC      0.057200
     69 H201       -2.0230    3.6280    3.9800 hc        1 4MC      0.055200
     70 H202       -0.6790    2.7010    4.7540 hc        1 4MC      0.055200
     71 H26        -0.9010    1.9600    6.9770 ha        1 4MC      0.130500
     72 H25        -2.2290    1.8410    9.0780 ha        1 4MC      0.133000
     73 H24        -4.1860    3.3560    9.4110 ha        1 4MC      0.133000
     74 H23        -4.8100    4.9900    7.6300 ha        1 4MC      0.133000
     75 H22        -3.4820    5.1110    5.5250 ha        1 4MC      0.130500
     76 H27         0.7170    7.0400    4.2990 ha        1 4MC      0.148000
     77 H28         1.6350    6.2230    1.4550 h4        1 4MC      0.197000
     78 HAA         0.3510   10.5130    2.4770 ha        1 4MC      0.159000
     79 HAC        -1.1590   11.5790    0.8020 ha        1 4MC      0.143500
     80 HAE        -1.1830   10.7610   -1.5590 ha        1 4MC      0.138000
     81 HAF         0.3090    8.8730   -2.2370 ha        1 4MC      0.143500
     82 HAD         1.8120    7.8100   -0.5670 ha        1 4MC      0.159000
@<TRIPOS>BOND
     1    1    2 2   
     2    2    3 2   
     3    2    4 1   
     4    2   10 1   
     5    4    5 ar  
     6    4    9 ar  
     7    5    6 ar  
     8    5   82 1   
     9    6    7 ar  
    10    6   81 1   
    11    7    8 ar  
    12    7   80 1   
    13    8    9 ar  
    14    8   79 1   
    15    9   78 1   
    16   10   11 2   
    17   10   77 1   
    18   11   12 1   
    19   11   76 1   
    20   12   13 1   
    21   12   21 1   
    22   12   66 1   
    23   13   14 1   
    24   13   67 1   
    25   13   68 1   
    26   14   15 1   
    27   14   69 1   
    28   14   70 1   
    29   15   16 ar  
    30   15   20 ar  
    31   16   17 ar  
    32   16   71 1   
    33   17   18 ar  
    34   17   72 1   
    35   18   19 ar  
    36   18   73 1   
    37   19   20 ar  
    38   19   74 1   
    39   20   75 1   
    40   21   22 1   
    41   21   65 1   
    42   22   23 2   
    43   22   24 1   
    44   24   25 1   
    45   24   32 1   
    46   24   54 1   
    47   25   26 1   
    48   25   55 1   
    49   25   56 1   
    50   26   27 1   
    51   26   57 1   
    52   26   58 1   
    53   27   28 1   
    54   27   59 1   
    55   27   60 1   
    56   28   29 1   
    57   28   61 1   
    58   29   30 2   
    59   29   31 1   
    60   30   62 1   
    61   31   63 1   
    62   31   64 1   
    63   32   33 1   
    64   32   53 1   
    65   33   34 2   
    66   33   35 1   
    67   35   36 1   
    68   35   38 1   
    69   36   37 1   
    70   36   49 1   
    71   36   50 1   
    72   37   40 1   
    73   37   51 1   
    74   37   52 1   
    75   38   39 1   
    76   38   47 1   
    77   38   48 1   
    78   39   40 1   
    79   39   45 1   
    80   39   46 1   
    81   40   41 1   
    82   41   42 1   
    83   41   43 1   
    84   41   44 1   
@<TRIPOS>SUBSTRUCTURE
     1 4MC         1 TEMP              0 ****  ****    0 ROOT
