@<TRIPOS>MOLECULE
4MD
   40    41     1     0     0
SMALL
bcc


@<TRIPOS>ATOM
      1 C1S         0.0650   -0.3920   -0.0280 ca        1 4MD     -0.089000
      2 C1V         1.3680   -0.8710    0.0360 ca        1 4MD     -0.118000
      3 C1Q         2.0120   -0.9760    1.2780 ca        1 4MD      0.068400
      4 CL1R        3.5930   -1.5510    1.3610 cl        1 4MD     -0.004400
      5 C1U         1.3430   -0.5940    2.4510 ca        1 4MD     -0.118000
      6 C1T         0.0380   -0.1180    2.3800 ca        1 4MD     -0.089000
      7 C1P        -0.6150   -0.0230    1.1420 ca        1 4MD     -0.223300
      8 C1J        -1.9650    0.5930    1.0610 c3        1 4MD      0.179100
      9 N1C        -3.1010   -0.4050    0.9930 n4        1 4MD     -0.637300
     10 C1W        -2.9860   -1.2630   -0.2020 c3        1 4MD      0.074100
     11 S1A        -3.2180   -1.4330    2.5280 sy        1 4MD      1.425200
     12 O1F        -2.6500   -2.6480    2.2120 o         1 4MD     -0.537800
     13 O1G        -2.7850   -0.6040    3.5430 o         1 4MD     -0.537800
     14 C1D        -4.8970   -1.5770    2.5910 ca        1 4MD     -0.354500
     15 C1M        -5.5430   -2.6800    2.0160 ca        1 4MD     -0.027500
     16 C1N        -6.9170   -2.8640    2.1700 ca        1 4MD     -0.013500
     17 C1L        -5.6640   -0.6610    3.3240 ca        1 4MD     -0.027500
     18 C1O        -7.0390   -0.8430    3.4780 ca        1 4MD     -0.013500
     19 C1E        -7.6890   -1.9480    2.9050 ca        1 4MD     -0.415500
     20 S1B        -9.3320   -2.0990    2.9850 sy        1 4MD      1.453200
     21 O1H        -9.9510   -0.9370    3.3770 o         1 4MD     -0.529800
     22 O1I        -9.8280   -2.9800    2.0550 o         1 4MD     -0.529800
     23 N1K        -9.4650   -3.1240    4.5570 n4        1 4MD     -0.802500
     24 H1S        -0.4230   -0.2840   -1.0100 ha        1 4MD      0.148000
     25 H1V         1.8990   -1.1550   -0.8890 ha        1 4MD      0.179000
     26 H1U         1.8540   -0.6590    3.4270 ha        1 4MD      0.179000
     27 H1T        -0.4730    0.2010    3.3050 ha        1 4MD      0.148000
     28 H1J        -2.1580    1.2370    1.9720 hx        1 4MD      0.114200
     29 H1JA       -2.0330    1.2430    0.1390 hx        1 4MD      0.114200
     30 H1W        -2.0490   -1.8880   -0.1300 hx        1 4MD      0.111033
     31 H1WA       -2.9230   -0.6380   -1.1350 hx        1 4MD      0.111033
     32 H1WB       -3.8850   -1.9330   -0.2660 hx        1 4MD      0.111033
     33 H1M        -4.9580   -3.4340    1.4500 ha        1 4MD      0.197500
     34 H1N        -7.4020   -3.7360    1.6850 ha        1 4MD      0.196000
     35 H1L        -5.1780    0.2080    3.8130 ha        1 4MD      0.197500
     36 H1O        -7.6220   -0.0880    4.0460 ha        1 4MD      0.196000
     37 HN1K      -10.0250   -2.6310    5.2600 hn        1 4MD      0.473800
     38 HN1A       -9.9420   -4.0110    4.3670 hn        1 4MD      0.473800
     39 H1C1       -3.9480    0.1590    0.8810 hn        1 4MD      0.444800
     40 H1K3       -8.5710   -3.3490    4.9880 hn        1 4MD      0.473800
@<TRIPOS>BOND
     1    1    2 ar  
     2    1    7 ar  
     3    1   24 1   
     4    2    3 ar  
     5    2   25 1   
     6    3    4 1   
     7    3    5 ar  
     8    5    6 ar  
     9    5   26 1   
    10    6    7 ar  
    11    6   27 1   
    12    7    8 1   
    13    8    9 1   
    14    8   28 1   
    15    8   29 1   
    16    9   10 1   
    17    9   11 1   
    18    9   39 1   
    19   10   30 1   
    20   10   31 1   
    21   10   32 1   
    22   11   12 2   
    23   11   13 2   
    24   11   14 1   
    25   14   15 ar  
    26   14   17 ar  
    27   15   16 ar  
    28   15   33 1   
    29   16   19 ar  
    30   16   34 1   
    31   17   18 ar  
    32   17   35 1   
    33   18   19 ar  
    34   18   36 1   
    35   19   20 1   
    36   20   21 2   
    37   20   22 2   
    38   20   23 1   
    39   23   37 1   
    40   23   38 1   
    41   23   40 1   
@<TRIPOS>SUBSTRUCTURE
     1 4MD         1 TEMP              0 ****  ****    0 ROOT
