@<TRIPOS>MOLECULE
4MD
   40    41     1     0     0
SMALL
bcc


@<TRIPOS>ATOM
      1 C1S         0.0660   -0.4110   -0.0320 ca        1 4MD     -0.089000
      2 C1V         1.3730   -0.8780    0.0490 ca        1 4MD     -0.118000
      3 C1Q         2.0120   -0.9480    1.2960 ca        1 4MD      0.068400
      4 CL1R        3.5970   -1.5100    1.3990 cl        1 4MD     -0.004400
      5 C1U         1.3350   -0.5430    2.4560 ca        1 4MD     -0.118000
      6 C1T         0.0270   -0.0790    2.3690 ca        1 4MD     -0.089000
      7 C1P        -0.6210   -0.0180    1.1260 ca        1 4MD     -0.223300
      8 C1J        -1.9750    0.5860    1.0250 c3        1 4MD      0.179100
      9 N1C        -3.1040   -0.4220    0.9760 n4        1 4MD     -0.637300
     10 C1W        -2.9770   -1.3080   -0.1980 c3        1 4MD      0.074100
     11 S1A        -3.2190   -1.4140    2.5340 sy        1 4MD      1.425200
     12 O1F        -2.6400   -2.6320    2.2500 o         1 4MD     -0.537800
     13 O1G        -2.7970   -0.5570    3.5310 o         1 4MD     -0.537800
     14 C1D        -4.8970   -1.5710    2.5940 ca        1 4MD     -0.354500
     15 C1M        -5.5310   -2.6920    2.0430 ca        1 4MD     -0.027500
     16 C1N        -6.9050   -2.8840    2.1950 ca        1 4MD     -0.013500
     17 C1L        -5.6750   -0.6440    3.3010 ca        1 4MD     -0.027500
     18 C1O        -7.0490   -0.8330    3.4540 ca        1 4MD     -0.013500
     19 C1E        -7.6870   -1.9580    2.9050 ca        1 4MD     -0.415500
     20 S1B        -9.3290   -2.1200    2.9820 sy        1 4MD      1.453200
     21 O1H        -9.9600   -0.9540    3.3430 o         1 4MD     -0.529800
     22 O1I        -9.8130   -3.0270    2.0700 o         1 4MD     -0.529800
     23 N1K        -9.4610   -3.1090    4.5770 n4        1 4MD     -0.802500
     24 H1S        -0.4180   -0.3300   -1.0190 ha        1 4MD      0.148000
     25 H1V         1.9100   -1.1810   -0.8660 ha        1 4MD      0.179000
     26 H1U         1.8420   -0.5810    3.4360 ha        1 4MD      0.179000
     27 H1T        -0.4900    0.2590    3.2840 ha        1 4MD      0.148000
     28 H1J        -2.0430    1.2120    0.0860 hx        1 4MD      0.114700
     29 H1JA       -2.1770    1.2500    1.9180 hx        1 4MD      0.114700
     30 H1W        -2.0360   -1.9230   -0.1070 hx        1 4MD      0.111033
     31 H1WA       -2.9150   -0.7050   -1.1450 hx        1 4MD      0.111033
     32 H1WB       -3.8710   -1.9860   -0.2500 hx        1 4MD      0.111033
     33 H1M        -4.9380   -3.4550    1.4970 ha        1 4MD      0.197500
     34 H1N        -7.3800   -3.7710    1.7290 ha        1 4MD      0.196000
     35 H1L        -5.1980    0.2410    3.7710 ha        1 4MD      0.197500
     36 H1O        -7.6400   -0.0700    4.0010 ha        1 4MD      0.196000
     37 HN1K       -9.9300   -4.0040    4.4060 hn        1 4MD      0.473800
     38 HN1A       -8.5670   -3.3160    5.0160 hn        1 4MD      0.473800
     39 H1C1       -3.9540    0.1330    0.8480 hn        1 4MD      0.444800
     40 H1K3      -10.0280   -2.6040    5.2650 hn        1 4MD      0.473800
@<TRIPOS>BOND
     1    1    2 ar  
     2    1    7 ar  
     3    1   24 1   
     4    2    3 ar  
     5    2   25 1   
     6    3    4 1   
     7    3    5 ar  
     8    5    6 ar  
     9    5   26 1   
    10    6    7 ar  
    11    6   27 1   
    12    7    8 1   
    13    8    9 1   
    14    8   28 1   
    15    8   29 1   
    16    9   10 1   
    17    9   11 1   
    18    9   39 1   
    19   10   30 1   
    20   10   31 1   
    21   10   32 1   
    22   11   12 2   
    23   11   13 2   
    24   11   14 1   
    25   14   15 ar  
    26   14   17 ar  
    27   15   16 ar  
    28   15   33 1   
    29   16   19 ar  
    30   16   34 1   
    31   17   18 ar  
    32   17   35 1   
    33   18   19 ar  
    34   18   36 1   
    35   19   20 1   
    36   20   21 2   
    37   20   22 2   
    38   20   23 1   
    39   23   37 1   
    40   23   38 1   
    41   23   40 1   
@<TRIPOS>SUBSTRUCTURE
     1 4MD         1 TEMP              0 ****  ****    0 ROOT
