@<TRIPOS>MOLECULE
4MD
   38    32     1     0     0
SMALL
bcc


@<TRIPOS>ATOM
      1 C1S         3.7050    1.1740   -2.1970 c1        1 4MD     -0.108000
      2 C1V         5.0870    1.1690   -2.3870 c1        1 4MD     -0.090000
      3 C1Q         5.9380    1.0710   -1.2930 c1        1 4MD     -0.403000
      4 CL1R        7.6740    1.0540   -1.5310 cl        1 4MD     -0.013000
      5 C1U         5.4100    0.9780   -0.0050 c2        1 4MD     -0.085500
      6 C1T         4.0290    0.9830    0.1850 c1        1 4MD     -0.077000
      7 C1P         3.1770    1.0810   -0.9100 c1        1 4MD     -0.114000
      8 C1J         1.6650    1.1990   -0.6950 c3        1 4MD      0.032000
      9 N1C         1.1010   -0.0930   -0.6030 n3        1 4MD     -0.833000
     10 C1W         0.9730   -0.9080   -1.7870 c3        1 4MD     -0.076000
     11 S1A         0.4580   -0.6250    0.8670 s4        1 4MD      2.052800
     12 O1F         0.9330   -1.9610    1.2010 o         1 4MD     -0.535400
     13 O1G         0.9840    0.1470    1.9780 o         1 4MD     -0.535400
     14 C1D        -1.2980   -0.5660    0.8260 c1        1 4MD     -0.403000
     15 C1M        -2.0110   -1.6990    0.5460 c2        1 4MD     -0.085500
     16 C1N        -3.3950   -1.6910    0.6410 c1        1 4MD     -0.077000
     17 C1L        -1.9650    0.6030    1.2100 c1        1 4MD     -0.090000
     18 C1O        -3.3360    0.6110    1.3050 c1        1 4MD     -0.048000
     19 C1E        -4.0560   -0.5380    1.0210 c1        1 4MD     -0.760000
     20 S1B        -5.8270   -0.4890    1.0150 s4        1 4MD      2.075800
     21 O1H        -6.3160    0.8500    0.7030 o         1 4MD     -0.538400
     22 O1I        -6.3580   -1.2360   -0.0630 o         1 4MD     -0.538400
     23 N1K        -6.4210   -1.0200    2.4670 n2        1 4MD     -0.954000
     24 H1S         3.1060    1.2430   -2.9690 ha        1 4MD      0.135000
     25 H1V         5.4590    1.2330   -3.2940 ha        1 4MD      0.152500
     26 H1U         5.9940    0.9110    0.7460 ha        1 4MD      0.156000
     27 H1T         3.6500    0.9170    1.1090 ha        1 4MD      0.164000
     28 H1J         1.2600    1.6840   -1.4560 h1        1 4MD      0.098000
     29 H1JA        1.4920    1.6850    0.1270 h1        1 4MD      0.098000
     30 H1W         0.2450   -1.5580   -1.6630 h1        1 4MD      0.090333
     31 H1WA        1.8210   -1.3900   -1.9500 h1        1 4MD      0.090333
     32 H1WB        0.7680   -0.3260   -2.5670 h1        1 4MD      0.090333
     33 H1M        -1.5470   -2.5090    0.2800 ha        1 4MD      0.156000
     34 H1N        -3.9000   -2.4970    0.4420 ha        1 4MD      0.164000
     35 H1L        -1.4580    1.4070    1.4100 ha        1 4MD      0.152500
     36 H1O        -3.8200    1.4550    1.5820 ha        1 4MD      0.160000
     37 HN1K       -6.6890   -1.9040    2.5630 hn        1 4MD      0.248000
     38 HN1A       -6.5310   -0.4420    3.1450 hn        1 4MD      0.248000
@<TRIPOS>BOND
     1    1    7 1   
     2    1   24 1   
     3    2    3 1   
     4    2   25 1   
     5    3    5 1   
     6    5    6 1   
     7    5   26 1   
     8    6   27 1   
     9    7    8 1   
    10    8    9 1   
    11    8   28 1   
    12    8   29 1   
    13    9   10 1   
    14    9   11 1   
    15   10   30 1   
    16   10   31 1   
    17   10   32 1   
    18   11   12 1   
    19   11   13 1   
    20   14   15 1   
    21   14   17 1   
    22   15   16 1   
    23   15   33 1   
    24   16   34 1   
    25   17   35 1   
    26   18   19 1   
    27   18   36 1   
    28   19   20 1   
    29   20   21 1   
    30   20   22 1   
    31   23   37 1   
    32   23   38 1   
@<TRIPOS>SUBSTRUCTURE
     1 4MD         1 TEMP              0 ****  ****    0 ROOT
