@<TRIPOS>MOLECULE
4MD
   40    41     1     0     0
SMALL
bcc


@<TRIPOS>ATOM
      1 C1S         0.0640   -0.3820   -0.0250 ca        1 4MD     -0.089000
      2 C1V         1.3700   -0.8550    0.0440 ca        1 4MD     -0.118000
      3 C1Q         2.0120   -0.9520    1.2880 ca        1 4MD      0.068400
      4 Cl1R        3.5950   -1.5200    1.3750 cl        1 4MD     -0.004400
      5 C1U         1.3390   -0.5690    2.4580 ca        1 4MD     -0.118000
      6 C1T         0.0320   -0.0990    2.3830 ca        1 4MD     -0.089000
      7 C1P        -0.6190   -0.0110    1.1430 ca        1 4MD     -0.223300
      8 C1J        -1.9720    0.5990    1.0580 c3        1 4MD      0.179100
      9 N1C        -3.1030   -0.4040    0.9910 nx        1 4MD     -0.637300
     10 C1W        -2.9820   -1.2670   -0.2010 c3        1 4MD      0.074100
     11 S1A        -3.2180   -1.4280    2.5290 sy        1 4MD      1.425200
     12 O1F        -2.6440   -2.6410    2.2190 o         1 4MD     -0.537800
     13 O1G        -2.7910   -0.5920    3.5420 o         1 4MD     -0.537800
     14 C1D        -4.8970   -1.5790    2.5900 ca        1 4MD     -0.354500
     15 C1M        -5.5360   -2.6880    2.0180 ca        1 4MD     -0.027500
     16 C1N        -6.9100   -2.8770    2.1700 ca        1 4MD     -0.013500
     17 C1L        -5.6700   -0.6650    3.3180 ca        1 4MD     -0.027500
     18 C1O        -7.0440   -0.8520    3.4700 ca        1 4MD     -0.013500
     19 C1E        -7.6870   -1.9630    2.9010 ca        1 4MD     -0.415500
     20 S1B        -9.3290   -2.1220    2.9780 sy        1 4MD      1.453200
     21 O1H        -9.9550   -0.9610    3.3640 o         1 4MD     -0.529800
     22 O1I        -9.8190   -3.0090    2.0500 o         1 4MD     -0.529800
     23 N1K        -9.4610   -3.1420    4.5530 nz        1 4MD     -0.802500
     24 H1S        -0.4220   -0.2790   -1.0080 ha        1 4MD      0.148000
     25 H1V         1.9040   -1.1400   -0.8790 ha        1 4MD      0.179000
     26 H1U         1.8480   -0.6280    3.4350 ha        1 4MD      0.179000
     27 H1T        -0.4820    0.2210    3.3060 ha        1 4MD      0.148000
     28 H1J        -2.0410    1.2440    0.1330 hx        1 4MD      0.114200
     29 H1JA       -2.1700    1.2450    1.9650 hx        1 4MD      0.114200
     30 H1W        -2.0420   -1.8870   -0.1240 hx        1 4MD      0.111033
     31 H1WA       -2.9210   -0.6450   -1.1360 hx        1 4MD      0.111033
     32 H1WB       -3.8780   -1.9410   -0.2640 hx        1 4MD      0.111033
     33 H1M        -4.9460   -3.4410    1.4560 ha        1 4MD      0.197500
     34 H1N        -7.3890   -3.7540    1.6880 ha        1 4MD      0.196000
     35 H1L        -5.1890    0.2090    3.8040 ha        1 4MD      0.197500
     36 H1O        -7.6310   -0.0980    4.0350 ha        1 4MD      0.196000
     37 HN1K       -9.9330   -4.0320    4.3660 hn        1 4MD      0.473800
     38 HN1A       -8.5670   -3.3610    4.9860 hn        1 4MD      0.473800
     39 H1C1       -3.9520    0.1550    0.8760 hn        1 4MD      0.444800
     40 H1K3      -10.0240   -2.6490    5.2530 hn        1 4MD      0.473800
@<TRIPOS>BOND
     1    1    2 ar  
     2    1    7 ar  
     3    1   24 1   
     4    2    3 ar  
     5    2   25 1   
     6    3    4 1   
     7    3    5 ar  
     8    5    6 ar  
     9    5   26 1   
    10    6    7 ar  
    11    6   27 1   
    12    7    8 1   
    13    8    9 1   
    14    8   28 1   
    15    8   29 1   
    16    9   10 1   
    17    9   11 1   
    18    9   39 1   
    19   10   30 1   
    20   10   31 1   
    21   10   32 1   
    22   11   12 2   
    23   11   13 2   
    24   11   14 1   
    25   14   15 ar  
    26   14   17 ar  
    27   15   16 ar  
    28   15   33 1   
    29   16   19 ar  
    30   16   34 1   
    31   17   18 ar  
    32   17   35 1   
    33   18   19 ar  
    34   18   36 1   
    35   19   20 1   
    36   20   21 2   
    37   20   22 2   
    38   20   23 1   
    39   23   37 1   
    40   23   38 1   
    41   23   40 1   
@<TRIPOS>SUBSTRUCTURE
     1 4MD         1 TEMP              0 ****  ****    0 ROOT
