@<TRIPOS>MOLECULE
4MD
   38    39     1     0     0
SMALL
bcc


@<TRIPOS>ATOM
      1 C1S        -3.9350    0.3010   -1.7480 ca        1 4MD     -0.107000
      2 C1V        -5.3080    0.0940   -1.6240 ca        1 4MD     -0.127000
      3 C1Q        -5.8000   -0.6240   -0.5290 ca        1 4MD      0.024400
      4 CL1R       -7.4730   -0.8790   -0.3730 cl        1 4MD     -0.091400
      5 C1U        -4.9270   -1.1320    0.4390 ca        1 4MD     -0.127000
      6 C1T        -3.5560   -0.9220    0.3050 ca        1 4MD     -0.107000
      7 C1P        -3.0560   -0.2100   -0.7900 ca        1 4MD     -0.121300
      8 C1J        -1.5720   -0.0180   -0.9440 c3        1 4MD      0.276100
      9 N1C        -1.0020    0.9880   -0.0820 n3        1 4MD     -0.813500
     10 C1W        -1.2160    2.3470   -0.4820 c3        1 4MD      0.200100
     11 S1A        -0.1980    0.5970    1.2740 sy        1 4MD      1.497200
     12 O1F        -0.1590    1.6960    2.1580 o         1 4MD     -0.647800
     13 O1G        -0.6840   -0.6260    1.7880 o         1 4MD     -0.647800
     14 C1D         1.3890    0.3230    0.7110 ca        1 4MD     -0.307500
     15 C1M         2.3280    1.3570    0.6970 ca        1 4MD     -0.048500
     16 C1N         3.6320    1.1270    0.2630 ca        1 4MD     -0.048000
     17 C1L         1.7840   -0.9480    0.2820 ca        1 4MD     -0.048500
     18 C1O         3.0870   -1.1780   -0.1520 ca        1 4MD     -0.048000
     19 C1E         4.0270   -0.1430   -0.1650 ca        1 4MD     -0.315500
     20 S1B         5.6170   -0.4190   -0.7190 sy        1 4MD      1.520200
     21 O1H         5.5800   -1.5120   -1.6090 o         1 4MD     -0.650800
     22 O1I         6.1270    0.8050   -1.1940 o         1 4MD     -0.650800
     23 N1K         6.3900   -0.8400    0.6130 n3        1 4MD     -1.027700
     24 H1S        -3.5470    0.8670   -2.6080 ha        1 4MD      0.151500
     25 H1V        -5.9970    0.4940   -2.3830 ha        1 4MD      0.150000
     26 H1U        -5.3170   -1.6940    1.3010 ha        1 4MD      0.150000
     27 H1T        -2.8600   -1.3170    1.0670 ha        1 4MD      0.151500
     28 H1J        -1.0620   -1.0030   -0.7180 h1        1 4MD      0.058700
     29 H1JA       -1.3450    0.2500   -2.0180 h1        1 4MD      0.058700
     30 H1W        -2.2970    2.5090   -0.7450 h1        1 4MD      0.051033
     31 H1WA       -0.9420    3.0430    0.3570 h1        1 4MD      0.051033
     32 H1WB       -0.5920    2.5950   -1.3850 h1        1 4MD      0.051033
     33 H1M         2.0350    2.3620    1.0500 ha        1 4MD      0.158500
     34 H1N         4.3580    1.9600    0.2390 ha        1 4MD      0.160000
     35 H1L         1.0570   -1.7800    0.3050 ha        1 4MD      0.158500
     36 H1O         3.3800   -2.1830   -0.5070 ha        1 4MD      0.160000
     37 HN1K        6.4790   -1.7750    0.9240 hn        1 4MD      0.452800
     38 HN1A        6.8520   -0.1970    1.2070 hn        1 4MD      0.452800
@<TRIPOS>BOND
     1    1    2 ar  
     2    1    7 ar  
     3    1   24 1   
     4    2    3 ar  
     5    2   25 1   
     6    3    4 1   
     7    3    5 ar  
     8    5    6 ar  
     9    5   26 1   
    10    6    7 ar  
    11    6   27 1   
    12    7    8 1   
    13    8    9 1   
    14    8   28 1   
    15    8   29 1   
    16    9   10 1   
    17    9   11 1   
    18   10   30 1   
    19   10   31 1   
    20   10   32 1   
    21   11   12 2   
    22   11   13 2   
    23   11   14 1   
    24   14   15 ar  
    25   14   17 ar  
    26   15   16 ar  
    27   15   33 1   
    28   16   19 ar  
    29   16   34 1   
    30   17   18 ar  
    31   17   35 1   
    32   18   19 ar  
    33   18   36 1   
    34   19   20 1   
    35   20   21 2   
    36   20   22 2   
    37   20   23 1   
    38   23   37 1   
    39   23   38 1   
@<TRIPOS>SUBSTRUCTURE
     1 4MD         1 TEMP              0 ****  ****    0 ROOT
