@<TRIPOS>MOLECULE
4ME
   22    16     1     0     0
SMALL
bcc


@<TRIPOS>ATOM
      1 CAJ        -3.7170    0.9750   -0.0770 c3        1 4ME     -0.061000
      2 OAM        -2.3410    1.2730   -0.1490 os        1 4ME     -0.281000
      3 CAI        -1.5770    0.2790   -0.7820 c2        1 4ME      0.351000
      4 OAL        -2.1220   -0.5610   -1.4690 o         1 4ME     -0.356000
      5 CAG        -0.0750    0.2560   -0.6080 c2        1 4ME     -0.070000
      6 CAB         0.6180    1.1520   -1.4080 c1        1 4ME     -0.090000
      7 CAA         2.0000    1.2430   -1.3120 c1        1 4ME     -0.123500
      8 CAC         2.6880    0.4380   -0.4160 c1        1 4ME     -0.123500
      9 CAH         1.9860   -0.4710    0.3940 c1        1 4ME     -0.020000
     10 CAF         0.6210   -0.5600    0.3000 c1        1 4ME     -0.037000
     11 CAD         0.1940   -1.5070    1.2050 c1        1 4ME     -0.190000
     12 CAE         1.3040   -2.0010    1.8600 c1        1 4ME     -0.072000
     13 NAK         2.4070   -1.3650    1.3620 n1        1 4ME     -0.218000
     14 HAJ1       -3.8450    0.1350    0.4140 h1        1 4ME      0.089000
     15 HAJ2       -4.1840    1.7010    0.3890 h1        1 4ME      0.089000
     16 HAJ3       -4.0800    0.8820   -0.9840 h1        1 4ME      0.089000
     17 HAB         0.1350    1.7190   -2.0390 ha        1 4ME      0.152000
     18 HAA         2.4880    1.8730   -1.8750 ha        1 4ME      0.135500
     19 HAC         3.6600    0.5020   -0.3490 ha        1 4ME      0.135500
     20 HAK         3.2690   -1.5050    1.6230 DU        1 4ME      0.200333
     21 HAD        -0.7310   -1.7800    1.3570 DU        1 4ME      0.200333
     22 HAE         1.3010   -2.6750    2.5660 DU        1 4ME      0.200333
@<TRIPOS>BOND
     1    1    2 1   
     2    1   14 1   
     3    1   15 1   
     4    1   16 1   
     5    2    3 1   
     6    3    4 1   
     7    3    5 1   
     8    5    6 1   
     9    5   10 1   
    10    6   17 1   
    11    7    8 1   
    12    7   18 1   
    13    8   19 1   
    14    9   10 1   
    15   11   12 1   
    16   12   13 1   
@<TRIPOS>SUBSTRUCTURE
     1 4ME         1 TEMP              0 ****  ****    0 ROOT
