@<TRIPOS>MOLECULE
4ME
   22    23     1     0     0
SMALL
bcc


@<TRIPOS>ATOM
      1 CAJ         4.0770   -0.1900   -0.0010 c3        1 4ME      0.128700
      2 OAM         2.8000    0.4460   -0.0010 os        1 4ME     -0.442900
      3 CAI         1.7030   -0.3830   -0.0010 c         1 4ME      0.650700
      4 OAL         1.9190   -1.5990   -0.0010 o         1 4ME     -0.545000
      5 CAG         0.4180    0.3270   -0.0010 ca        1 4ME     -0.090600
      6 CAB         0.3570    1.7200   -0.0010 ca        1 4ME     -0.090000
      7 CAA        -0.8730    2.3950   -0.0010 ca        1 4ME     -0.138000
      8 CAC        -2.0810    1.7120   -0.0010 ca        1 4ME     -0.109000
      9 CAH        -2.0400    0.3110   -0.0010 ca        1 4ME     -0.065200
     10 CAF        -0.7780   -0.4020   -0.0010 ca        1 4ME     -0.048800
     11 CAD        -1.1010   -1.8090   -0.0010 cc        1 4ME     -0.178200
     12 CAE        -2.4900   -1.9100   -0.0010 cd        1 4ME     -0.099100
     13 NAK        -3.0670   -0.6360   -0.0010 na        1 4ME     -0.195400
     14 HAJ1        4.1900   -0.8200    0.9140 h1        1 4ME      0.049700
     15 HAJ2        4.1900   -0.8200   -0.9150 h1        1 4ME      0.049700
     16 HAJ3        4.7970    0.6650   -0.0010 h1        1 4ME      0.049700
     17 HAB         1.2930    2.3020   -0.0010 ha        1 4ME      0.152000
     18 HAA        -0.8750    3.4960   -0.0010 ha        1 4ME      0.136000
     19 HAC        -3.0380    2.2520   -0.0010 ha        1 4ME      0.135000
     20 HAK        -4.0290   -0.4340   -0.0010 hn        1 4ME      0.299700
     21 HAD        -0.3720   -2.6160   -0.0010 ha        1 4ME      0.183000
     22 HAE        -3.1210   -2.8020   -0.0010 h4        1 4ME      0.168000
@<TRIPOS>BOND
     1    1    2 1   
     2    1   14 1   
     3    1   15 1   
     4    1   16 1   
     5    2    3 1   
     6    3    4 2   
     7    3    5 1   
     8    5    6 ar  
     9    5   10 ar  
    10    6    7 ar  
    11    6   17 1   
    12    7    8 ar  
    13    7   18 1   
    14    8    9 ar  
    15    8   19 1   
    16    9   10 ar  
    17    9   13 1   
    18   10   11 1   
    19   11   12 2   
    20   11   21 1   
    21   12   13 1   
    22   12   22 1   
    23   13   20 1   
@<TRIPOS>SUBSTRUCTURE
     1 4ME         1 TEMP              0 ****  ****    0 ROOT
