@<TRIPOS>MOLECULE
4MF
   38    40     1     0     0
SMALL
bcc


@<TRIPOS>ATOM
      1 O3P         1.7500    0.8220   -4.0410 o         1 4MF     -0.924833
      2 O2P         0.0070   -0.7810   -4.9290 o         1 4MF     -0.924833
      3 P           1.4660   -0.4980   -4.7270 p5        1 4MF      1.334900
      4 O1P         2.4240   -0.9220   -5.7960 o         1 4MF     -0.924833
      5 O5'         1.8350   -1.6050   -3.4230 os        1 4MF     -0.552200
      6 C5'         1.1990   -1.3060   -2.2560 c3        1 4MF      0.235400
      7 C4'         2.1700   -1.4820   -1.0630 c3        1 4MF      0.065100
      8 C3'         1.4330   -1.7660    0.2600 c3        1 4MF      0.106100
      9 O3'         2.0870   -2.7460    1.0550 oh        1 4MF     -0.623800
     10 C2'         1.3980   -0.4170    0.9860 c3        1 4MF     -0.153400
     11 C1'         2.4730    0.4460    0.2750 c3        1 4MF      0.259800
     12 O4'         2.9800   -0.3110   -0.8220 os        1 4MF     -0.388600
     13 N1          2.0230    1.7610   -0.1310 na        1 4MF     -0.096400
     14 C7A         1.8640    2.8140    0.7820 ca        1 4MF     -0.075200
     15 C7          1.9880    2.8600    2.1740 ca        1 4MF     -0.143000
     16 C6          1.7550    4.0720    2.8140 ca        1 4MF     -0.166000
     17 C5          1.4030    5.2210    2.0950 ca        1 4MF     -0.172000
     18 C4          1.2730    5.2030    0.7070 ca        1 4MF     -0.072300
     19 C4M         0.9120    6.4320   -0.0350 c3        1 4MF     -0.034800
     20 C3A         1.5020    4.0040    0.0250 ca        1 4MF     -0.056800
     21 C3          1.4670    3.6040   -1.3560 cc        1 4MF     -0.281200
     22 C2          1.7940    2.2440   -1.4250 cd        1 4MF     -0.000100
     23 H5'1        0.7920   -0.2560   -2.2560 h1        1 4MF      0.000200
     24 H5'2        0.3510   -2.0340   -2.0600 h1        1 4MF      0.000200
     25 H4'         2.9200   -2.2800   -1.3150 h1        1 4MF      0.081700
     26 H3'         0.4050   -2.1830    0.0920 h1        1 4MF      0.089700
     27 H3T         3.0330   -2.5770    0.9840 ho        1 4MF      0.394000
     28 H2'1        0.3810    0.0350    0.9040 hc        1 4MF      0.056700
     29 H2'2        1.6530   -0.5300    2.0660 hc        1 4MF      0.056700
     30 H1'         3.3590    0.6060    0.9660 h2        1 4MF      0.036700
     31 H7          2.2560    1.9610    2.7450 ha        1 4MF      0.112000
     32 H6          1.8470    4.1300    3.9070 ha        1 4MF      0.097000
     33 H5          1.2240    6.1580    2.6410 ha        1 4MF      0.096000
     34 H4M1        0.3710    6.1760   -0.9800 hc        1 4MF      0.028700
     35 H4M2        0.2600    7.0980    0.5830 hc        1 4MF      0.028700
     36 H4M3        1.8360    7.0020   -0.3070 hc        1 4MF      0.028700
     37 H3          1.2280    4.2340   -2.2060 ha        1 4MF      0.154000
     38 H2          1.8780    1.5820   -2.3450 h4        1 4MF      0.330000
@<TRIPOS>BOND
     1    1    3 1   
     2    2    3 1   
     3    3    4 1   
     4    3    5 1   
     5    5    6 1   
     6    6    7 1   
     7    6   23 1   
     8    6   24 1   
     9    7    8 1   
    10    7   12 1   
    11    7   25 1   
    12    8    9 1   
    13    8   10 1   
    14    8   26 1   
    15    9   27 1   
    16   10   11 1   
    17   10   28 1   
    18   10   29 1   
    19   11   12 1   
    20   11   13 1   
    21   11   30 1   
    22   13   14 1   
    23   13   22 1   
    24   14   15 ar  
    25   14   20 ar  
    26   15   16 ar  
    27   15   31 1   
    28   16   17 ar  
    29   16   32 1   
    30   17   18 ar  
    31   17   33 1   
    32   18   19 1   
    33   18   20 ar  
    34   19   34 1   
    35   19   35 1   
    36   19   36 1   
    37   20   21 1   
    38   21   22 2   
    39   21   37 1   
    40   22   38 1   
@<TRIPOS>SUBSTRUCTURE
     1 4MF         1 TEMP              0 ****  ****    0 ROOT
