@<TRIPOS>MOLECULE
4MF
   38    34     1     0     0
SMALL
bcc


@<TRIPOS>ATOM
      1 O3P        -0.0430    5.7760    2.2570 o         1 4MF     -0.930833
      2 O2P         2.0140    6.6720    1.2060 o         1 4MF     -0.930833
      3 P           1.4710    5.6440    2.1750 p5        1 4MF      1.565500
      4 O1P         2.0820    5.8780    3.5670 o         1 4MF     -0.930833
      5 O5'         1.8540    4.1690    1.6640 os        1 4MF     -0.718000
      6 C5'         0.9460    3.4900    0.8050 c3        1 4MF      0.076000
      7 C4'         1.5880    2.1840    0.3100 c3        1 4MF     -0.056000
      8 C3'         1.3540    2.0220   -1.2540 c3        1 4MF      0.046000
      9 O3'         2.5110    2.1670   -1.9110 oh        1 4MF     -0.401000
     10 C2'         0.8310    0.6410   -1.4400 c3        1 4MF     -0.210000
     11 C1'         1.0250    0.0390   -0.2720 c3        1 4MF      0.161000
     12 O4'         1.0150    1.1910    0.8340 os        1 4MF     -0.292000
     13 N1         -0.0050   -0.8650   -0.0270 n3        1 4MF     -0.167000
     14 C7A        -0.4330   -2.0590   -0.5400 c1        1 4MF     -0.005000
     15 C7         -0.1170   -2.7400   -1.7470 c1        1 4MF     -0.142000
     16 C6         -0.7390   -3.9460   -2.0470 c1        1 4MF     -0.142000
     17 C5         -1.6790   -4.4900   -1.1570 c1        1 4MF     -0.175000
     18 C4         -1.9890   -3.8200    0.0290 c1        1 4MF     -0.048000
     19 C4M        -3.1120   -4.5550    0.7720 c2        1 4MF     -0.164000
     20 C3A        -1.3570   -2.5950    0.3340 c1        1 4MF     -0.068000
     21 C3         -1.4960   -1.7200    1.3940 c1        1 4MF     -0.265000
     22 C2         -0.6610   -0.6510    1.1720 c1        1 4MF     -0.007000
     23 H5'1        0.7350    4.0570    0.0420 h1        1 4MF      0.036000
     24 H5'2        0.1540    3.2920    1.2770 h1        1 4MF      0.036000
     25 H4'         2.5870    2.1730    0.5240 h1        1 4MF      0.117000
     26 H3'         0.6750    2.7010   -1.5790 h1        1 4MF      0.142000
     27 H3T         2.5100    2.9280   -2.3420 ho        1 4MF      0.300000
     28 H2'1       -0.1520    0.6670   -1.6640 hc        1 4MF      0.089500
     29 H2'2        1.3450    0.1670   -2.1680 hc        1 4MF      0.089500
     30 H1'         1.8840   -0.4230   -0.2710 h2        1 4MF      0.087000
     31 H7          0.5690   -2.3410   -2.3950 ha        1 4MF      0.114000
     32 H6         -0.5760   -4.3850   -2.9320 ha        1 4MF      0.114000
     33 H5         -2.1460   -5.3560   -1.3830 ha        1 4MF      0.103000
     34 H4M1       -2.7730   -5.3900    1.1310 ha        1 4MF      0.070333
     35 H4M2       -3.4330   -4.0040    1.4910 ha        1 4MF      0.070333
     36 H4M3       -3.8360   -4.7400    0.1610 ha        1 4MF      0.070333
     37 H3         -2.1050   -1.8490    2.2040 DU        1 4MF      0.182000
     38 H2         -0.5000    0.0700    1.7780 DU        1 4MF      0.182000
@<TRIPOS>BOND
     1    1    3 1   
     2    2    3 1   
     3    3    4 1   
     4    3    5 1   
     5    5    6 1   
     6    6    7 1   
     7    6   23 1   
     8    6   24 1   
     9    7    8 1   
    10    7   12 1   
    11    7   25 1   
    12    8    9 1   
    13    8   10 1   
    14    8   26 1   
    15    9   27 1   
    16   10   11 1   
    17   10   28 1   
    18   10   29 1   
    19   11   12 1   
    20   11   13 1   
    21   11   30 1   
    22   13   14 1   
    23   13   22 1   
    24   14   20 1   
    25   15   16 1   
    26   15   31 1   
    27   16   32 1   
    28   17   18 1   
    29   17   33 1   
    30   18   20 1   
    31   19   34 1   
    32   19   35 1   
    33   19   36 1   
    34   21   22 1   
@<TRIPOS>SUBSTRUCTURE
     1 4MF         1 TEMP              0 ****  ****    0 ROOT
