@<TRIPOS>MOLECULE
4MG
   58    62     1     0     0
SMALL
bcc


@<TRIPOS>ATOM
      1 CAD         0.1480   -0.8500   -0.8790 c3        1 4MG      0.032600
      2 NBD         1.4810   -0.5090   -0.5130 na        1 4MG     -0.074400
      3 CAW         1.8990   -0.0990    0.7700 cc        1 4MG     -0.057300
      4 CAC         1.0070   -0.1120    1.9450 c3        1 4MG     -0.040900
      5 CAV         3.2450    0.2810    0.7300 cd        1 4MG     -0.126400
      6 CAB         4.0570    0.7460    1.8560 c3        1 4MG     -0.023900
      7 CAZ         3.6930    0.1270   -0.6380 ca        1 4MG     -0.082800
      8 CAJ         4.9130    0.3500   -1.2730 ca        1 4MG     -0.047000
      9 CBA         2.5590   -0.3570   -1.3910 ca        1 4MG     -0.041200
     10 CAI         2.6720   -0.6080   -2.7680 ca        1 4MG     -0.134000
     11 CAH         3.8940   -0.3860   -3.3760 ca        1 4MG     -0.140000
     12 CAS         5.0200    0.0940   -2.6460 ca        1 4MG      0.078600
     13 NAP         6.2220    0.3860   -3.3450 nu        1 4MG     -0.692300
     14 C2          7.3990   -0.3530   -3.0900 ca        1 4MG      0.884900
     15 N3          8.3320   -0.3740   -4.1150 nb        1 4MG     -0.793000
     16 N1          7.5800   -0.9340   -1.8400 nb        1 4MG     -0.733000
     17 C6          8.7660   -1.5240   -1.6350 ca        1 4MG      0.465200
     18 C5          9.7960   -1.5840   -2.5870 ca        1 4MG     -0.403600
     19 C4          9.5260   -0.9780   -3.8450 ca        1 4MG      0.595800
     20 NBE        10.5020   -0.9900   -4.8820 na        1 4MG      0.024600
     21 CAK        10.3580   -0.3810   -6.1480 cc        1 4MG     -0.061300
     22 NAO        11.7000   -1.6100   -4.7580 nc        1 4MG     -0.504800
     23 CAT        12.3610   -1.4240   -5.9290 cd        1 4MG      0.336600
     24 CAA        13.7100   -1.9360   -6.2340 c3        1 4MG     -0.126400
     25 CAU        11.5370   -0.6400   -6.8470 cd        1 4MG     -0.268600
     26 CAL        11.9240   -0.1990   -8.2020 c3        1 4MG      0.234100
     27 NBC        10.8290   -0.2120   -9.1540 n3        1 4MG     -0.697600
     28 CAN        10.3970   -1.5450   -9.6430 cy        1 4MG      0.119800
     29 CAM        11.1940    0.2360  -10.5210 cy        1 4MG      0.119800
     30 CBB        10.6560   -1.1030  -11.1140 cy        1 4MG      0.093100
     31 OAE        11.6400   -1.9140  -11.7000 oh        1 4MG     -0.586800
     32 H1         -0.4460    0.0720   -1.1310 h1        1 4MG      0.048033
     33 H2         -0.3520   -1.3780   -0.0230 h1        1 4MG      0.048033
     34 H3          0.1640   -1.5260   -1.7750 h1        1 4MG      0.048033
     35 H4          1.5480    0.3230    2.8220 hc        1 4MG      0.051367
     36 H5          0.6980   -1.1570    2.1970 hc        1 4MG      0.051367
     37 H6          0.0850    0.4930    1.7560 hc        1 4MG      0.051367
     38 H7          3.6130    1.6670    2.3120 hc        1 4MG      0.040700
     39 H8          4.1170   -0.0400    2.6510 hc        1 4MG      0.040700
     40 H9          5.0960    0.9850    1.5190 hc        1 4MG      0.040700
     41 H10         5.7720    0.7180   -0.6900 ha        1 4MG      0.156000
     42 H11         1.8150   -0.9740   -3.3490 ha        1 4MG      0.133000
     43 H12         3.9900   -0.5850   -4.4550 ha        1 4MG      0.129000
     44 H13         6.0770    0.5980   -4.3140 hn        1 4MG      0.430800
     45 H14         8.8990   -1.9830   -0.6370 h4        1 4MG      0.031100
     46 H15        10.7480   -2.0770   -2.3600 ha        1 4MG      0.178000
     47 H16         9.4600    0.1660   -6.4410 h4        1 4MG      0.205000
     48 H17        14.3860   -1.0780   -6.4790 hc        1 4MG      0.053700
     49 H18        14.1490   -2.5030   -5.3770 hc        1 4MG      0.053700
     50 H19        13.6580   -2.6140   -7.1230 hc        1 4MG      0.053700
     51 H20        12.7980   -0.8340   -8.5440 h1        1 4MG      0.043700
     52 H21        12.2900    0.8690   -8.1420 h1        1 4MG      0.043700
     53 H23         9.3240   -1.7300   -9.4030 h1        1 4MG      0.064950
     54 H24        11.0240   -2.4090   -9.3200 h1        1 4MG      0.064950
     55 H25        10.6120    1.1430  -10.8060 h1        1 4MG      0.064950
     56 H26        12.2830    0.4000  -10.7040 h1        1 4MG      0.064950
     57 H27         9.7540   -1.0100  -11.7580 h1        1 4MG      0.055700
     58 H28        11.7910   -1.5730  -12.5900 ho        1 4MG      0.404000
@<TRIPOS>BOND
     1    1    2 1   
     2    1   32 1   
     3    1   33 1   
     4    1   34 1   
     5    2    3 1   
     6    2    9 1   
     7    3    4 1   
     8    3    5 2   
     9    4   35 1   
    10    4   36 1   
    11    4   37 1   
    12    5    6 1   
    13    5    7 1   
    14    6   38 1   
    15    6   39 1   
    16    6   40 1   
    17    7    8 ar  
    18    7    9 ar  
    19    8   12 ar  
    20    8   41 1   
    21    9   10 ar  
    22   10   11 ar  
    23   10   42 1   
    24   11   12 ar  
    25   11   43 1   
    26   12   13 1   
    27   13   14 1   
    28   13   44 1   
    29   14   15 ar  
    30   14   16 ar  
    31   15   19 ar  
    32   16   17 ar  
    33   17   18 ar  
    34   17   45 1   
    35   18   19 ar  
    36   18   46 1   
    37   19   20 1   
    38   20   21 1   
    39   20   22 1   
    40   21   25 2   
    41   21   47 1   
    42   22   23 2   
    43   23   24 1   
    44   23   25 1   
    45   24   48 1   
    46   24   49 1   
    47   24   50 1   
    48   25   26 1   
    49   26   27 1   
    50   26   51 1   
    51   26   52 1   
    52   27   28 1   
    53   27   29 1   
    54   28   30 1   
    55   28   53 1   
    56   28   54 1   
    57   29   30 1   
    58   29   55 1   
    59   29   56 1   
    60   30   31 1   
    61   30   57 1   
    62   31   58 1   
@<TRIPOS>SUBSTRUCTURE
     1 4MG         1 TEMP              0 ****  ****    0 ROOT
