@<TRIPOS>MOLECULE
4MG
   58    62     1     0     0
SMALL
bcc


@<TRIPOS>ATOM
      1 CAD         0.1420   -0.8020   -0.8900 c3        1 4MG      0.032600
      2 NBD         1.4780   -0.4820   -0.5190 na        1 4MG     -0.074400
      3 CAW         1.8990   -0.0930    0.7700 cc        1 4MG     -0.057300
      4 CAC         1.0060   -0.1110    1.9430 c3        1 4MG     -0.040900
      5 CAV         3.2500    0.2710    0.7360 cd        1 4MG     -0.126400
      6 CAB         4.0660    0.7110    1.8680 c3        1 4MG     -0.023900
      7 CAZ         3.6980    0.1280   -0.6340 ca        1 4MG     -0.082800
      8 CAJ         4.9210    0.3450   -1.2640 ca        1 4MG     -0.047000
      9 CBA         2.5590   -0.3320   -1.3940 ca        1 4MG     -0.041200
     10 CAI         2.6710   -0.5660   -2.7730 ca        1 4MG     -0.134000
     11 CAH         3.8960   -0.3520   -3.3770 ca        1 4MG     -0.140000
     12 CAS         5.0260    0.1050   -2.6410 ca        1 4MG      0.078600
     13 NAP         6.2330    0.3920   -3.3350 nh        1 4MG     -0.692300
     14 C2          7.4010   -0.3650   -3.0870 ca        1 4MG      0.884900
     15 N3          8.3350   -0.3850   -4.1120 nb        1 4MG     -0.793000
     16 N1          7.5730   -0.9640   -1.8450 nb        1 4MG     -0.733000
     17 C6          8.7510   -1.5710   -1.6460 ca        1 4MG      0.465200
     18 C5          9.7810   -1.6320   -2.5980 ca        1 4MG     -0.403600
     19 C4          9.5210   -1.0070   -3.8480 ca        1 4MG      0.595800
     20 NBE        10.4970   -1.0170   -4.8840 na        1 4MG      0.024600
     21 CAK        10.3620   -0.3910   -6.1420 cc        1 4MG     -0.061300
     22 NAO        11.6880   -1.6550   -4.7670 nc        1 4MG     -0.504800
     23 CAT        12.3510   -1.4620   -5.9350 cd        1 4MG      0.336600
     24 CAA        13.6940   -1.9870   -6.2450 c3        1 4MG     -0.126400
     25 CAU        11.5380   -0.6560   -6.8440 cd        1 4MG     -0.268600
     26 CAL        11.9320   -0.2040   -8.1930 c3        1 4MG      0.234100
     27 NBC        10.8380   -0.1910   -9.1460 n3        1 4MG     -0.697600
     28 CAN        10.3900   -1.5130   -9.6520 cy        1 4MG      0.119800
     29 CAM        11.2100    0.2690  -10.5070 cy        1 4MG      0.119800
     30 CBB        10.6570   -1.0560  -11.1170 cy        1 4MG      0.093100
     31 OAE        11.6320   -1.8720  -11.7120 oh        1 4MG     -0.586800
     32 H1         -0.4410    0.1300   -1.1310 h1        1 4MG      0.048033
     33 H2          0.1500   -1.4660   -1.7950 h1        1 4MG      0.048033
     34 H3         -0.3660   -1.3350   -0.0420 h1        1 4MG      0.048033
     35 H4          0.6840   -1.1560    2.1820 hc        1 4MG      0.051367
     36 H5          1.5510    0.3060    2.8270 hc        1 4MG      0.051367
     37 H6          0.0910    0.5070    1.7610 hc        1 4MG      0.051367
     38 H7          4.1160   -0.0860    2.6540 hc        1 4MG      0.040700
     39 H8          5.1090    0.9420    1.5360 hc        1 4MG      0.040700
     40 H9          3.6320    1.6310    2.3360 hc        1 4MG      0.040700
     41 H10         5.7830    0.6950   -0.6760 ha        1 4MG      0.156000
     42 H11         1.8100   -0.9150   -3.3600 ha        1 4MG      0.133000
     43 H12         3.9900   -0.5380   -4.4590 ha        1 4MG      0.129000
     44 H13         6.0910    0.6180   -4.3010 hn        1 4MG      0.430800
     45 H14         8.8770   -2.0440   -0.6540 h4        1 4MG      0.031100
     46 H15        10.7270   -2.1390   -2.3760 ha        1 4MG      0.178000
     47 H16         9.4710    0.1710   -6.4290 h4        1 4MG      0.205000
     48 H17        13.6350   -2.6530   -7.1430 hc        1 4MG      0.053700
     49 H18        14.3820   -1.1360   -6.4790 hc        1 4MG      0.053700
     50 H19        14.1250   -2.5710   -5.3960 hc        1 4MG      0.053700
     51 H20        12.3110    0.8600   -8.1200 h1        1 4MG      0.043700
     52 H21        12.7990   -0.8450   -8.5420 h1        1 4MG      0.043700
     53 H23        11.0070   -2.3890   -9.3390 h1        1 4MG      0.064950
     54 H24         9.3150   -1.6880   -9.4150 h1        1 4MG      0.064950
     55 H25        10.6390    1.1870  -10.7810 h1        1 4MG      0.064950
     56 H26        12.3010    0.4220  -10.6880 h1        1 4MG      0.064950
     57 H27         9.7560   -0.9450  -11.7610 h1        1 4MG      0.055700
     58 H28        11.7880   -1.5220  -12.5980 ho        1 4MG      0.404000
@<TRIPOS>BOND
     1    1    2 1   
     2    1   32 1   
     3    1   33 1   
     4    1   34 1   
     5    2    3 1   
     6    2    9 1   
     7    3    4 1   
     8    3    5 2   
     9    4   35 1   
    10    4   36 1   
    11    4   37 1   
    12    5    6 1   
    13    5    7 1   
    14    6   38 1   
    15    6   39 1   
    16    6   40 1   
    17    7    8 ar  
    18    7    9 ar  
    19    8   12 ar  
    20    8   41 1   
    21    9   10 ar  
    22   10   11 ar  
    23   10   42 1   
    24   11   12 ar  
    25   11   43 1   
    26   12   13 1   
    27   13   14 1   
    28   13   44 1   
    29   14   15 ar  
    30   14   16 ar  
    31   15   19 ar  
    32   16   17 ar  
    33   17   18 ar  
    34   17   45 1   
    35   18   19 ar  
    36   18   46 1   
    37   19   20 1   
    38   20   21 1   
    39   20   22 1   
    40   21   25 2   
    41   21   47 1   
    42   22   23 2   
    43   23   24 1   
    44   23   25 1   
    45   24   48 1   
    46   24   49 1   
    47   24   50 1   
    48   25   26 1   
    49   26   27 1   
    50   26   51 1   
    51   26   52 1   
    52   27   28 1   
    53   27   29 1   
    54   28   30 1   
    55   28   53 1   
    56   28   54 1   
    57   29   30 1   
    58   29   55 1   
    59   29   56 1   
    60   30   31 1   
    61   30   57 1   
    62   31   58 1   
@<TRIPOS>SUBSTRUCTURE
     1 4MG         1 TEMP              0 ****  ****    0 ROOT
