@<TRIPOS>MOLECULE
4MH
   69    71     1     0     0
SMALL
bcc


@<TRIPOS>ATOM
      1 C01        -0.6790    0.7850    0.4000 c3        1 4MH     -0.107100
      2 C02         0.7950    1.0250    0.6110 c3        1 4MH     -0.070400
      3 C03         1.3760   -0.0510    1.5210 c3        1 4MH     -0.121400
      4 C04         2.8620    0.2280    1.7090 c3        1 4MH      0.118800
      5 N05         3.4940   -0.8190    2.6130 n4        1 4MH     -0.764700
      6 C06         4.9440   -0.5640    2.8360 ca        1 4MH      0.847900
      7 N07         5.8200   -0.9300    1.8350 nb        1 4MH     -0.603000
      8 C08         7.1180   -0.6880    2.0590 ca        1 4MH      0.523200
      9 C09         7.6290   -0.0890    3.2480 ca        1 4MH     -0.386200
     10 C10         9.0720    0.1640    3.4320 c         1 4MH      0.572700
     11 O11         9.5630    0.7020    4.4180 o         1 4MH     -0.405100
     12 N12        10.0400   -0.2450    2.3530 n4        1 4MH     -0.668800
     13 C13        11.4800    0.0890    2.7060 c3        1 4MH      0.167100
     14 C14        12.4440   -0.2940    1.6270 ca        1 4MH     -0.108300
     15 C15        12.8170    0.6420    0.6550 ca        1 4MH     -0.114000
     16 C16        13.8080    0.3250   -0.2760 ca        1 4MH      0.017000
     17 C17        14.4450   -0.9280   -0.2610 ca        1 4MH     -0.426500
     18 C18        14.0620   -1.8540    0.7240 ca        1 4MH      0.017000
     19 C19        13.0720   -1.5450    1.6590 ca        1 4MH     -0.114000
     20 S20        15.4940   -1.3640   -1.4790 sy        1 4MH      1.446200
     21 O21        15.6460   -2.7290   -1.5360 o         1 4MH     -0.521800
     22 O22        15.3830   -0.5170   -2.5550 o         1 4MH     -0.521800
     23 N23        17.1280   -0.8350   -0.7520 n4        1 4MH     -0.809500
     24 C24         6.6410    0.2550    4.2330 ca        1 4MH      0.673200
     25 N25         6.9520    0.8880    5.5300 n4        1 4MH     -0.797700
     26 C26         6.5750    0.0340    6.7610 c3        1 4MH      0.138500
     27 C27         6.6490    0.9070    8.0210 c3        1 4MH     -0.099400
     28 C28         6.1480    0.0860    9.1940 c3        1 4MH     -0.108900
     29 C29         6.9390   -1.2100    9.3740 c3        1 4MH      0.148100
     30 O30         6.2580   -2.0520   10.2850 oh        1 4MH     -0.571800
     31 C31         7.0100   -2.0150    8.0740 c3        1 4MH     -0.108900
     32 C32         7.4970   -1.1720    6.9100 c3        1 4MH     -0.099400
     33 N33         5.3140    0.0240    4.0180 nb        1 4MH     -0.670000
     34 H011       -1.0940    1.5800   -0.2690 hc        1 4MH      0.069367
     35 H012       -1.2340    0.8190    1.3690 hc        1 4MH      0.069367
     36 H013       -0.8600   -0.2060   -0.0820 hc        1 4MH      0.069367
     37 H021        0.9520    2.0360    1.0720 hc        1 4MH      0.059700
     38 H022        1.3250    1.0110   -0.3780 hc        1 4MH      0.059700
     39 H031        1.2110   -1.0560    1.0490 hc        1 4MH      0.087700
     40 H032        0.8340   -0.0290    2.5040 hc        1 4MH      0.087700
     41 H041        3.3950    0.1910    0.7160 hx        1 4MH      0.117200
     42 H042        3.0150    1.2340    2.1940 hx        1 4MH      0.117200
     43 H051        3.3790   -1.7510    2.1700 hn        1 4MH      0.504800
     44 H081        7.7650   -1.0080    1.2110 h4        1 4MH      0.085100
     45 H121        9.7970    0.2380    1.4760 hn        1 4MH      0.477800
     46 H131       11.5280    1.2030    2.9020 hx        1 4MH      0.140700
     47 H132       11.7250   -0.4540    3.6680 hx        1 4MH      0.140700
     48 H151       12.3580    1.6450    0.6240 ha        1 4MH      0.173500
     49 H161       14.0780    1.0750   -1.0500 ha        1 4MH      0.202500
     50 H181       14.5360   -2.8580    0.7550 ha        1 4MH      0.202500
     51 H191       12.8160   -2.2920    2.4310 ha        1 4MH      0.173500
     52 H231       17.0720   -0.4150    0.1730 hn        1 4MH      0.480467
     53 H232       17.7670   -1.6370   -0.6790 hn        1 4MH      0.480467
     54 H251        7.9560    1.1110    5.5980 hn        1 4MH      0.492300
     55 H261        5.5060   -0.3020    6.6070 hx        1 4MH      0.126700
     56 H271        7.7050    1.2330    8.2120 hc        1 4MH      0.066200
     57 H272        6.0060    1.8220    7.9180 hc        1 4MH      0.066200
     58 H281        6.2390    0.7080   10.1260 hc        1 4MH      0.097700
     59 H282        5.0600   -0.1610    9.0690 hc        1 4MH      0.097700
     60 H291        7.9780   -0.9770    9.7390 h1        1 4MH      0.058700
     61 H301        6.4540   -1.7410   11.1810 ho        1 4MH      0.442000
     62 H311        5.9970   -2.4450    7.8550 hc        1 4MH      0.097700
     63 H312        7.7110   -2.8800    8.2220 hc        1 4MH      0.097700
     64 H321        7.4900   -1.7950    5.9780 hc        1 4MH      0.066200
     65 H322        8.5500   -0.8380    7.1090 hc        1 4MH      0.066200
     66 H052        2.9900   -0.8260    3.5180 hn        1 4MH      0.504800
     67 H122        9.9670   -1.2600    2.1970 hn        1 4MH      0.477800
     68 H233       17.5910   -0.1510   -1.3640 hn        1 4MH      0.480467
     69 H252        6.4190    1.7760    5.6090 hn        1 4MH      0.492300
@<TRIPOS>BOND
     1    1    2 1   
     2    1   34 1   
     3    1   35 1   
     4    1   36 1   
     5    2    3 1   
     6    2   37 1   
     7    2   38 1   
     8    3    4 1   
     9    3   39 1   
    10    3   40 1   
    11    4    5 1   
    12    4   41 1   
    13    4   42 1   
    14    5    6 1   
    15    5   43 1   
    16    5   66 1   
    17    6    7 ar  
    18    6   33 ar  
    19    7    8 ar  
    20    8    9 ar  
    21    8   44 1   
    22    9   10 1   
    23    9   24 ar  
    24   10   11 2   
    25   10   12 1   
    26   12   13 1   
    27   12   45 1   
    28   12   67 1   
    29   13   14 1   
    30   13   46 1   
    31   13   47 1   
    32   14   15 ar  
    33   14   19 ar  
    34   15   16 ar  
    35   15   48 1   
    36   16   17 ar  
    37   16   49 1   
    38   17   18 ar  
    39   17   20 1   
    40   18   19 ar  
    41   18   50 1   
    42   19   51 1   
    43   20   21 2   
    44   20   22 2   
    45   20   23 1   
    46   23   52 1   
    47   23   53 1   
    48   23   68 1   
    49   24   25 1   
    50   24   33 ar  
    51   25   26 1   
    52   25   54 1   
    53   25   69 1   
    54   26   27 1   
    55   26   32 1   
    56   26   55 1   
    57   27   28 1   
    58   27   56 1   
    59   27   57 1   
    60   28   29 1   
    61   28   58 1   
    62   28   59 1   
    63   29   30 1   
    64   29   31 1   
    65   29   60 1   
    66   30   61 1   
    67   31   32 1   
    68   31   62 1   
    69   31   63 1   
    70   32   64 1   
    71   32   65 1   
@<TRIPOS>SUBSTRUCTURE
     1 4MH         1 TEMP              0 ****  ****    0 ROOT
