@<TRIPOS>MOLECULE
4MH
   67    69     1     0     0
SMALL
bcc


@<TRIPOS>ATOM
      1 C01        -0.3330    0.1800    0.2430 c3        1 4MH     -0.098100
      2 C02         1.1720    0.1210    0.2060 c3        1 4MH     -0.076400
      3 C03         1.7480    0.0650    1.6070 c3        1 4MH     -0.101400
      4 C04         3.2730    0.0070    1.5290 c3        1 4MH      0.200800
      5 N05         3.8910   -0.0500    2.8390 nh        1 4MH     -0.780900
      6 C06         5.2350   -0.1080    3.0350 ca        1 4MH      0.968900
      7 N07         6.0980   -0.1120    1.8890 nb        1 4MH     -0.721000
      8 C08         7.3790   -0.1820    2.1290 ca        1 4MH      0.525200
      9 C09         7.9920   -0.2530    3.4290 ca        1 4MH     -0.592200
     10 C10         9.3800   -0.3470    3.6400 c         1 4MH      0.602700
     11 O11        10.0680   -0.3940    4.6610 o         1 4MH     -0.528100
     12 N12        10.2580   -0.4130    2.3490 n4        1 4MH     -0.683800
     13 C13        11.6990   -0.6120    2.6550 c3        1 4MH      0.137100
     14 C14        12.5820   -0.5700    1.4450 ca        1 4MH     -0.035300
     15 C15        12.8020    0.6370    0.7670 ca        1 4MH     -0.131000
     16 C16        13.6770    0.6810   -0.3130 ca        1 4MH      0.018000
     17 C17        14.3570   -0.4750   -0.7480 ca        1 4MH     -0.499500
     18 C18        14.1230   -1.6790   -0.0530 ca        1 4MH      0.018000
     19 C19        13.2480   -1.7280    1.0280 ca        1 4MH     -0.131000
     20 S20        15.2820   -0.4470   -2.0870 sy        1 4MH      1.472200
     21 O21        15.5350   -1.6950   -2.6080 o         1 4MH     -0.543800
     22 O22        15.1080    0.6830   -2.8510 o         1 4MH     -0.543800
     23 N23        16.9560   -0.0660   -1.2860 n4        1 4MH     -0.797500
     24 C24         7.0450   -0.2160    4.5620 ca        1 4MH      0.826200
     25 N25         7.4900   -0.2160    5.8440 nh        1 4MH     -0.810900
     26 C26         6.6280   -0.2040    7.0230 c3        1 4MH      0.210500
     27 C27         7.3880    0.3480    8.2430 c3        1 4MH     -0.088400
     28 C28         6.4490    0.4510    9.4250 c3        1 4MH     -0.098400
     29 C29         5.8250   -0.9010    9.7600 c3        1 4MH      0.142100
     30 O30         4.8210   -0.7550   10.7530 oh        1 4MH     -0.586800
     31 C31         5.1280   -1.5020    8.5420 c3        1 4MH     -0.098400
     32 C32         6.0730   -1.5970    7.3660 c3        1 4MH     -0.088400
     33 N33         5.6950   -0.1620    4.3360 nb        1 4MH     -0.842000
     34 H011       -0.6820    1.0870    0.7930 hc        1 4MH      0.046033
     35 H012       -0.7400    0.2210   -0.7970 hc        1 4MH      0.046033
     36 H013       -0.7530   -0.7220    0.7500 hc        1 4MH      0.046033
     37 H021        1.5720    1.0230   -0.3290 hc        1 4MH      0.045700
     38 H022        1.5010   -0.7820   -0.3720 hc        1 4MH      0.045700
     39 H031        1.3490   -0.8390    2.1400 hc        1 4MH      0.060700
     40 H032        1.4210    0.9710    2.1830 hc        1 4MH      0.060700
     41 H041        3.6540    0.9190    0.9840 h1        1 4MH      0.071700
     42 H042        3.5820   -0.9050    0.9400 h1        1 4MH      0.071700
     43 H051        3.2880   -0.0450    3.6390 hn        1 4MH      0.478800
     44 H081        7.9940   -0.1780    1.2080 h4        1 4MH     -0.002900
     45 H121       10.1300    0.4600    1.8330 hn        1 4MH      0.445300
     46 H131       11.8010   -1.6010    3.1950 hx        1 4MH      0.136700
     47 H132       12.0180    0.1960    3.3840 hx        1 4MH      0.136700
     48 H151       12.2990    1.5630    1.0940 ha        1 4MH      0.177500
     49 H161       13.8250    1.6380   -0.8510 ha        1 4MH      0.186500
     50 H181       14.6230   -2.6100   -0.3850 ha        1 4MH      0.186500
     51 H191       13.0910   -2.6870    1.5550 ha        1 4MH      0.177500
     52 H231       17.3410    0.8040   -1.6610 hn        1 4MH      0.467467
     53 H232       17.6290   -0.8070   -1.4960 hn        1 4MH      0.467467
     54 H251        8.4680   -0.3180    6.0190 hn        1 4MH      0.461800
     55 H261        5.7540    0.4860    6.8160 h1        1 4MH      0.096700
     56 H271        7.8050    1.3640    8.0140 hc        1 4MH      0.052950
     57 H272        8.2450   -0.3280    8.5000 hc        1 4MH      0.052950
     58 H281        5.6310    1.1880    9.2090 hc        1 4MH      0.067450
     59 H282        7.0160    0.8320   10.3150 hc        1 4MH      0.067450
     60 H291        6.6250   -1.6050   10.1290 h1        1 4MH      0.037700
     61 H301        5.2580   -0.4340   11.5510 ho        1 4MH      0.410000
     62 H311        4.2390   -0.8700    8.2810 hc        1 4MH      0.067450
     63 H312        4.7470   -2.5230    8.8060 hc        1 4MH      0.067450
     64 H321        6.9180   -2.2930    7.6120 hc        1 4MH      0.052950
     65 H322        5.5220   -2.0200    6.4860 hc        1 4MH      0.052950
     66 H122        9.9170   -1.1850    1.7710 hn        1 4MH      0.445300
     67 H233       16.9150    0.0290   -0.2750 hn        1 4MH      0.467467
@<TRIPOS>BOND
     1    1    2 1   
     2    1   34 1   
     3    1   35 1   
     4    1   36 1   
     5    2    3 1   
     6    2   37 1   
     7    2   38 1   
     8    3    4 1   
     9    3   39 1   
    10    3   40 1   
    11    4    5 1   
    12    4   41 1   
    13    4   42 1   
    14    5    6 1   
    15    5   43 1   
    16    6    7 ar  
    17    6   33 ar  
    18    7    8 ar  
    19    8    9 ar  
    20    8   44 1   
    21    9   10 1   
    22    9   24 ar  
    23   10   11 2   
    24   10   12 1   
    25   12   13 1   
    26   12   45 1   
    27   12   66 1   
    28   13   14 1   
    29   13   46 1   
    30   13   47 1   
    31   14   15 ar  
    32   14   19 ar  
    33   15   16 ar  
    34   15   48 1   
    35   16   17 ar  
    36   16   49 1   
    37   17   18 ar  
    38   17   20 1   
    39   18   19 ar  
    40   18   50 1   
    41   19   51 1   
    42   20   21 2   
    43   20   22 2   
    44   20   23 1   
    45   23   52 1   
    46   23   53 1   
    47   23   67 1   
    48   24   25 1   
    49   24   33 ar  
    50   25   26 1   
    51   25   54 1   
    52   26   27 1   
    53   26   32 1   
    54   26   55 1   
    55   27   28 1   
    56   27   56 1   
    57   27   57 1   
    58   28   29 1   
    59   28   58 1   
    60   28   59 1   
    61   29   30 1   
    62   29   31 1   
    63   29   60 1   
    64   30   61 1   
    65   31   32 1   
    66   31   62 1   
    67   31   63 1   
    68   32   64 1   
    69   32   65 1   
@<TRIPOS>SUBSTRUCTURE
     1 4MH         1 TEMP              0 ****  ****    0 ROOT
