@<TRIPOS>MOLECULE
4MH
   67    69     1     0     0
SMALL
bcc


@<TRIPOS>ATOM
      1 C01        -0.3300    0.1850    0.2380 c3        1 4MH     -0.098100
      2 C02         1.1750    0.1240    0.2030 c3        1 4MH     -0.076400
      3 C03         1.7500    0.0670    1.6040 c3        1 4MH     -0.101400
      4 C04         3.2750    0.0060    1.5280 c3        1 4MH      0.200800
      5 N05         3.8920   -0.0510    2.8380 nu        1 4MH     -0.780900
      6 C06         5.2360   -0.1110    3.0340 ca        1 4MH      0.968900
      7 N07         6.0990   -0.1160    1.8890 nb        1 4MH     -0.721000
      8 C08         7.3800   -0.1880    2.1300 ca        1 4MH      0.525200
      9 C09         7.9920   -0.2590    3.4300 ca        1 4MH     -0.592200
     10 C10         9.3800   -0.3560    3.6420 c         1 4MH      0.602700
     11 O11        10.0680   -0.4030    4.6630 o         1 4MH     -0.528100
     12 N12        10.2590   -0.4220    2.3510 ny        1 4MH     -0.683800
     13 C13        11.6990   -0.6220    2.6570 c3        1 4MH      0.137100
     14 C14        12.5830   -0.5800    1.4470 ca        1 4MH     -0.035300
     15 C15        12.8020    0.6260    0.7680 ca        1 4MH     -0.131000
     16 C16        13.6770    0.6690   -0.3120 ca        1 4MH      0.018000
     17 C17        14.3570   -0.4870   -0.7460 ca        1 4MH     -0.499500
     18 C18        14.1230   -1.6900   -0.0510 ca        1 4MH      0.018000
     19 C19        13.2480   -1.7390    1.0310 ca        1 4MH     -0.131000
     20 S20        15.2820   -0.4600   -2.0850 sy        1 4MH      1.472200
     21 O21        15.5350   -1.7080   -2.6050 o         1 4MH     -0.543800
     22 O22        15.1080    0.6710   -2.8500 o         1 4MH     -0.543800
     23 N23        16.9560   -0.0780   -1.2840 nz        1 4MH     -0.797500
     24 C24         7.0450   -0.2210    4.5620 ca        1 4MH      0.826200
     25 N25         7.4900   -0.2220    5.8440 nu        1 4MH     -0.810900
     26 C26         6.6270   -0.2080    7.0240 c3        1 4MH      0.210500
     27 C27         7.3870    0.3430    8.2440 c3        1 4MH     -0.088400
     28 C28         6.4490    0.4470    9.4250 c3        1 4MH     -0.098400
     29 C29         5.8220   -0.9050    9.7600 c3        1 4MH      0.142100
     30 O30         4.8190   -0.7570   10.7530 oh        1 4MH     -0.586800
     31 C31         5.1250   -1.5040    8.5420 c3        1 4MH     -0.098400
     32 C32         6.0700   -1.6010    7.3660 c3        1 4MH     -0.088400
     33 N33         5.6950   -0.1650    4.3350 nb        1 4MH     -0.842000
     34 H011       -0.7520   -0.7170    0.7450 hc        1 4MH      0.046033
     35 H012       -0.6780    1.0930    0.7890 hc        1 4MH      0.046033
     36 H013       -0.7360    0.2270   -0.8010 hc        1 4MH      0.046033
     37 H021        1.5030   -0.7800   -0.3750 hc        1 4MH      0.045700
     38 H022        1.5770    1.0250   -0.3320 hc        1 4MH      0.045700
     39 H031        1.3490   -0.8360    2.1360 hc        1 4MH      0.060700
     40 H032        1.4230    0.9730    2.1800 hc        1 4MH      0.060700
     41 H041        3.6570    0.9170    0.9820 h1        1 4MH      0.071700
     42 H042        3.5830   -0.9060    0.9380 h1        1 4MH      0.071700
     43 H051        3.2880   -0.0450    3.6370 hn        1 4MH      0.478800
     44 H081        7.9950   -0.1850    1.2080 h4        1 4MH     -0.002900
     45 H121       10.1310    0.4510    1.8340 hn        1 4MH      0.445300
     46 H131       12.0180    0.1870    3.3860 hx        1 4MH      0.136700
     47 H132       11.8010   -1.6100    3.1970 hx        1 4MH      0.136700
     48 H151       12.3000    1.5530    1.0950 ha        1 4MH      0.177500
     49 H161       13.8260    1.6270   -0.8500 ha        1 4MH      0.186500
     50 H181       14.6230   -2.6220   -0.3820 ha        1 4MH      0.186500
     51 H191       13.0910   -2.6970    1.5580 ha        1 4MH      0.177500
     52 H231       17.6290   -0.8190   -1.4950 hn        1 4MH      0.467467
     53 H232       17.3410    0.7920   -1.6600 hn        1 4MH      0.467467
     54 H251        8.4670   -0.3260    6.0200 hn        1 4MH      0.461800
     55 H261        5.7540    0.4820    6.8160 h1        1 4MH      0.096700
     56 H271        8.2440   -0.3340    8.5000 hc        1 4MH      0.052950
     57 H272        7.8050    1.3580    8.0140 hc        1 4MH      0.052950
     58 H281        5.6310    1.1840    9.2090 hc        1 4MH      0.067450
     59 H282        7.0160    0.8270   10.3150 hc        1 4MH      0.067450
     60 H291        6.6210   -1.6090   10.1290 h1        1 4MH      0.037700
     61 H301        5.2560   -0.4360   11.5510 ho        1 4MH      0.410000
     62 H311        4.7420   -2.5240    8.8060 hc        1 4MH      0.067450
     63 H312        4.2360   -0.8710    8.2810 hc        1 4MH      0.067450
     64 H321        6.9130   -2.2980    7.6120 hc        1 4MH      0.052950
     65 H322        5.5190   -2.0220    6.4860 hc        1 4MH      0.052950
     66 H122        9.9180   -1.1940    1.7730 hn        1 4MH      0.445300
     67 H233       16.9150    0.0180   -0.2730 hn        1 4MH      0.467467
@<TRIPOS>BOND
     1    1    2 1   
     2    1   34 1   
     3    1   35 1   
     4    1   36 1   
     5    2    3 1   
     6    2   37 1   
     7    2   38 1   
     8    3    4 1   
     9    3   39 1   
    10    3   40 1   
    11    4    5 1   
    12    4   41 1   
    13    4   42 1   
    14    5    6 1   
    15    5   43 1   
    16    6    7 ar  
    17    6   33 ar  
    18    7    8 ar  
    19    8    9 ar  
    20    8   44 1   
    21    9   10 1   
    22    9   24 ar  
    23   10   11 2   
    24   10   12 1   
    25   12   13 1   
    26   12   45 1   
    27   12   66 1   
    28   13   14 1   
    29   13   46 1   
    30   13   47 1   
    31   14   15 ar  
    32   14   19 ar  
    33   15   16 ar  
    34   15   48 1   
    35   16   17 ar  
    36   16   49 1   
    37   17   18 ar  
    38   17   20 1   
    39   18   19 ar  
    40   18   50 1   
    41   19   51 1   
    42   20   21 2   
    43   20   22 2   
    44   20   23 1   
    45   23   52 1   
    46   23   53 1   
    47   23   67 1   
    48   24   25 1   
    49   24   33 ar  
    50   25   26 1   
    51   25   54 1   
    52   26   27 1   
    53   26   32 1   
    54   26   55 1   
    55   27   28 1   
    56   27   56 1   
    57   27   57 1   
    58   28   29 1   
    59   28   58 1   
    60   28   59 1   
    61   29   30 1   
    62   29   31 1   
    63   29   60 1   
    64   30   61 1   
    65   31   32 1   
    66   31   62 1   
    67   31   63 1   
    68   32   64 1   
    69   32   65 1   
@<TRIPOS>SUBSTRUCTURE
     1 4MH         1 TEMP              0 ****  ****    0 ROOT
