@<TRIPOS>MOLECULE
4MK
   74    77     1     0     0
SMALL
bcc


@<TRIPOS>ATOM
      1 C1          0.1800   -0.9510   -1.4080 c3        1 4MK     -0.110100
      2 C2          1.4760   -0.4430   -0.8030 c3        1 4MK      0.140100
      3 C3          1.3300   -0.1840    0.6850 c3        1 4MK     -0.110100
      4 O4          2.4490   -1.4960   -0.9830 os        1 4MK     -0.351900
      5 C5          3.6490   -1.1120   -1.5560 ca        1 4MK      0.082100
      6 C6          4.3300    0.0370   -1.1570 ca        1 4MK     -0.166000
      7 C7          5.5750    0.3630   -1.7040 ca        1 4MK     -0.053300
      8 C8          6.2760    1.6000   -1.2340 c3        1 4MK     -0.022400
      9 C9          5.4530    2.8480   -1.5380 c3        1 4MK     -0.109400
     10 C10         6.1520    4.0950   -0.9920 c3        1 4MK      0.148800
     11 N11         6.5290    4.0320    0.4070 n3        1 4MK     -0.797200
     12 C12         7.2480    2.8160    0.7340 c3        1 4MK      0.148800
     13 C13         6.5910    1.5190    0.2560 c3        1 4MK     -0.109400
     14 C14         6.1360   -0.4820   -2.6750 ca        1 4MK     -0.083300
     15 C15         7.4510   -0.1890   -3.2990 c3        1 4MK     -0.051800
     16 C16         5.4540   -1.6350   -3.0810 ca        1 4MK     -0.084000
     17 C17         4.2060   -1.9820   -2.5360 ca        1 4MK      0.098600
     18 N18         3.4790   -3.1060   -3.0000 nh        1 4MK     -0.678300
     19 C19         3.9920   -4.4150   -2.8430 ca        1 4MK      0.897900
     20 N20         5.3640   -4.6030   -2.7330 nb        1 4MK     -0.746000
     21 C21         5.7850   -5.8730   -2.6990 ca        1 4MK      0.493200
     22 C22         4.9270   -6.9840   -2.7630 ca        1 4MK     -0.331200
     23 CL1         5.5530   -8.5500   -2.7170 cl        1 4MK     -0.053400
     24 C24         3.5200   -6.7170   -2.8620 ca        1 4MK      0.735200
     25 N25         2.6320   -7.7870   -2.9650 nh        1 4MK     -0.780300
     26 C26         1.2420   -7.7090   -2.8120 ca        1 4MK      0.295600
     27 C27         0.6560   -6.8580   -1.8430 ca        1 4MK     -0.165000
     28 C28        -0.7200   -6.8200   -1.6800 ca        1 4MK     -0.049000
     29 C29        -1.5490   -7.6340   -2.4570 ca        1 4MK     -0.175000
     30 C30        -0.9820   -8.4760   -3.3980 ca        1 4MK     -0.019000
     31 C31         0.4070   -8.5370   -3.6110 ca        1 4MK     -0.423500
     32 S32         0.9390   -9.6040   -4.7920 sy        1 4MK      1.368300
     33 O33         2.1700  -10.1710   -4.4030 o         1 4MK     -0.658800
     34 O34        -0.0840  -10.5050   -5.1280 o         1 4MK     -0.658800
     35 C35         1.2190   -8.5170   -6.1070 c3        1 4MK     -0.266900
     36 C36         2.0260   -9.2150   -7.1810 c3        1 4MK     -0.075600
     37 C37        -0.0680   -7.9820   -6.6920 c3        1 4MK     -0.075600
     38 N38         3.0540   -5.4330   -2.8900 nb        1 4MK     -0.798000
     39 H1         -0.6170   -0.1800   -1.2820 hc        1 4MK      0.046867
     40 H1A         0.3180   -1.1610   -2.4950 hc        1 4MK      0.046867
     41 H1B        -0.1410   -1.8930   -0.9030 hc        1 4MK      0.046867
     42 H2          1.8060    0.4920   -1.3330 h1        1 4MK      0.054700
     43 H3          2.2870    0.2060    1.1080 hc        1 4MK      0.046867
     44 H3A         1.0710   -1.1300    1.2180 hc        1 4MK      0.046867
     45 H3B         0.5210    0.5650    0.8570 hc        1 4MK      0.046867
     46 H6          3.8810    0.6870   -0.3890 ha        1 4MK      0.140000
     47 H8          7.2580    1.7070   -1.7780 hc        1 4MK      0.060700
     48 H9          4.4330    2.7520   -1.0840 hc        1 4MK      0.047450
     49 H9A         5.3230    2.9540   -2.6440 hc        1 4MK      0.047450
     50 H10         5.4820    4.9870   -1.1390 h1        1 4MK      0.052700
     51 H10A        7.0940    4.2690   -1.5850 h1        1 4MK      0.052700
     52 HN11        5.7060    4.1020    0.9810 hn        1 4MK      0.347800
     53 H12         8.2710    2.8960    0.2680 h1        1 4MK      0.052700
     54 H12A        7.3800    2.7720    1.8510 h1        1 4MK      0.052700
     55 H13         7.2860    0.6630    0.4480 hc        1 4MK      0.047450
     56 H13A        5.6510    1.3290    0.8360 hc        1 4MK      0.047450
     57 H15         7.4260    0.8020   -3.8170 hc        1 4MK      0.045700
     58 H15A        8.2540   -0.1620   -2.5210 hc        1 4MK      0.045700
     59 H15B        7.7250   -0.9680   -4.0520 hc        1 4MK      0.045700
     60 H16         5.9120   -2.2800   -3.8490 ha        1 4MK      0.158000
     61 HN18        2.4940   -3.0320   -2.8130 hn        1 4MK      0.442800
     62 H21         6.8800   -6.0110   -2.6100 h4        1 4MK      0.041100
     63 HN25        3.0350   -8.6930   -3.1310 hn        1 4MK      0.496800
     64 H27         1.2890   -6.2250   -1.2020 ha        1 4MK      0.159000
     65 H28        -1.1590   -6.1520   -0.9220 ha        1 4MK      0.139000
     66 H29        -2.6400   -7.6080   -2.3170 ha        1 4MK      0.144000
     67 H30        -1.6350   -9.1350   -4.0030 ha        1 4MK      0.163000
     68 H35         1.8230   -7.6340   -5.7520 h1        1 4MK      0.114700
     69 H36         2.9780   -9.6170   -6.7530 hc        1 4MK      0.052200
     70 H36A        1.4400  -10.0590   -7.6220 hc        1 4MK      0.052200
     71 H36B        2.2790   -8.5000   -8.0000 hc        1 4MK      0.052200
     72 H37         0.1490   -7.3000   -7.5490 hc        1 4MK      0.052200
     73 H37A       -0.6380   -7.4090   -5.9190 hc        1 4MK      0.052200
     74 H37B       -0.7050   -8.8230   -7.0620 hc        1 4MK      0.052200
@<TRIPOS>BOND
     1    1    2 1   
     2    1   39 1   
     3    1   40 1   
     4    1   41 1   
     5    2    3 1   
     6    2    4 1   
     7    2   42 1   
     8    3   43 1   
     9    3   44 1   
    10    3   45 1   
    11    4    5 1   
    12    5    6 ar  
    13    5   17 ar  
    14    6    7 ar  
    15    6   46 1   
    16    7    8 1   
    17    7   14 ar  
    18    8    9 1   
    19    8   13 1   
    20    8   47 1   
    21    9   10 1   
    22    9   48 1   
    23    9   49 1   
    24   10   11 1   
    25   10   50 1   
    26   10   51 1   
    27   11   12 1   
    28   11   52 1   
    29   12   13 1   
    30   12   53 1   
    31   12   54 1   
    32   13   55 1   
    33   13   56 1   
    34   14   15 1   
    35   14   16 ar  
    36   15   57 1   
    37   15   58 1   
    38   15   59 1   
    39   16   17 ar  
    40   16   60 1   
    41   17   18 1   
    42   18   19 1   
    43   18   61 1   
    44   19   20 ar  
    45   19   38 ar  
    46   20   21 ar  
    47   21   22 ar  
    48   21   62 1   
    49   22   23 1   
    50   22   24 ar  
    51   24   25 1   
    52   24   38 ar  
    53   25   26 1   
    54   25   63 1   
    55   26   27 ar  
    56   26   31 ar  
    57   27   28 ar  
    58   27   64 1   
    59   28   29 ar  
    60   28   65 1   
    61   29   30 ar  
    62   29   66 1   
    63   30   31 ar  
    64   30   67 1   
    65   31   32 1   
    66   32   33 2   
    67   32   34 2   
    68   32   35 1   
    69   35   36 1   
    70   35   37 1   
    71   35   68 1   
    72   36   69 1   
    73   36   70 1   
    74   36   71 1   
    75   37   72 1   
    76   37   73 1   
    77   37   74 1   
@<TRIPOS>SUBSTRUCTURE
     1 4MK         1 TEMP              0 ****  ****    0 ROOT
