@<TRIPOS>MOLECULE
4MK
   76    79     1     0     0
SMALL
bcc


@<TRIPOS>ATOM
      1 C1          0.0140   -1.0690   -1.1750 c3        1 4MK     -0.116600
      2 C2          1.4580   -0.7790   -0.8140 c3        1 4MK      0.150100
      3 C3          1.7900   -1.2250    0.5930 c3        1 4MK     -0.116600
      4 O4          2.2430   -1.5590   -1.7640 os        1 4MK     -0.386900
      5 C5          3.4640   -1.0630   -2.1410 ca        1 4MK      0.189100
      6 C6          4.1780   -0.0690   -1.4620 ca        1 4MK     -0.194000
      7 C7          5.4200    0.3760   -1.9190 ca        1 4MK      0.051700
      8 C8          6.1370    1.4450   -1.1510 c3        1 4MK     -0.050400
      9 C9          5.3350    2.7440   -1.1430 c3        1 4MK     -0.111400
     10 C10         6.0710    3.8080   -0.3200 c3        1 4MK      0.154800
     11 N11         6.4550    3.4010    1.0130 n3        1 4MK     -0.795200
     12 C12         7.1310    2.1240    1.0460 c3        1 4MK      0.154800
     13 C13         6.4370    0.9940    0.2760 c3        1 4MK     -0.111400
     14 C14         5.9740   -0.1860   -3.0950 ca        1 4MK     -0.072300
     15 C15         7.2830    0.2650   -3.6290 c3        1 4MK     -0.069800
     16 C16         5.2810   -1.1810   -3.7760 ca        1 4MK     -0.072000
     17 C17         4.0260   -1.6270   -3.3150 ca        1 4MK     -0.142400
     18 N18         3.2830   -2.6340   -4.0730 n4        1 4MK     -0.580100
     19 C19         3.8150   -4.0170   -3.8450 ca        1 4MK      0.745900
     20 N20         5.0650   -4.2890   -4.3720 nb        1 4MK     -0.613000
     21 C21         5.5570   -5.5020   -4.1230 ca        1 4MK      0.487200
     22 C22         4.8530   -6.4910   -3.3630 ca        1 4MK     -0.162200
     23 CL1         5.5570   -7.9650   -3.0530 cl        1 4MK      0.106600
     24 C24         3.5600   -6.1200   -2.9110 ca        1 4MK      0.512200
     25 N25         2.7530   -7.0890   -2.1350 n4        1 4MK     -0.645100
     26 C26         1.3000   -7.0710   -2.4080 ca        1 4MK      0.065600
     27 C27         0.5460   -6.0840   -1.7570 ca        1 4MK     -0.115000
     28 C28        -0.8480   -6.0890   -1.8680 ca        1 4MK     -0.060000
     29 C29        -1.4800   -7.0780   -2.6120 ca        1 4MK     -0.081000
     30 C30        -0.7130   -8.0460   -3.2660 ca        1 4MK     -0.026000
     31 C31         0.6870   -8.0600   -3.2120 ca        1 4MK     -0.312500
     32 S32         1.4130   -9.3750   -4.0740 sy        1 4MK      1.352300
     33 O33         2.7660   -9.3520   -3.6510 o         1 4MK     -0.637300
     34 O34         0.6590  -10.5170   -3.8540 o         1 4MK     -0.637300
     35 C35         1.3270   -8.8250   -5.6900 c3        1 4MK     -0.272900
     36 C36         2.2690   -9.6740   -6.5300 c3        1 4MK     -0.092600
     37 C37        -0.0660   -8.8980   -6.2810 c3        1 4MK     -0.092600
     38 N38         3.0330   -4.8780   -3.1360 nb        1 4MK     -0.643000
     39 H1         -0.6510   -0.5170   -0.4670 hc        1 4MK      0.059367
     40 H1A        -0.2010   -2.1610   -1.0970 hc        1 4MK      0.059367
     41 H1B        -0.2070   -0.7320   -2.2160 hc        1 4MK      0.059367
     42 H2          1.6790    0.3140   -0.9590 h1        1 4MK      0.076700
     43 H3          2.8750   -1.0830    0.8130 hc        1 4MK      0.059367
     44 H3A         1.1930   -0.6230    1.3210 hc        1 4MK      0.059367
     45 H3B         1.5400   -2.3040    0.7330 hc        1 4MK      0.059367
     46 H6          3.7550    0.3750   -0.5440 ha        1 4MK      0.177000
     47 H8          7.1280    1.6660   -1.6460 hc        1 4MK      0.083700
     48 H9          4.3170    2.5630   -0.7130 hc        1 4MK      0.045950
     49 H9A         5.2050    3.1190   -2.1900 hc        1 4MK      0.045950
     50 H10         7.0110    4.0990   -0.8690 h1        1 4MK      0.068950
     51 H10A        5.4190    4.7230   -0.2430 h1        1 4MK      0.068950
     52 HN11        5.6600    3.3970    1.6250 hn        1 4MK      0.361800
     53 H12         8.1590    2.2750    0.6100 h1        1 4MK      0.068950
     54 H12A        7.2540    1.8090    2.1200 h1        1 4MK      0.068950
     55 H13         7.1070    0.0980    0.2600 hc        1 4MK      0.045950
     56 H13A        5.4870    0.7050    0.7950 hc        1 4MK      0.045950
     57 H15         7.2520    1.3610   -3.8610 hc        1 4MK      0.070033
     58 H15A        8.0940    0.0850   -2.8780 hc        1 4MK      0.070033
     59 H15B        7.5520   -0.2790   -4.5680 hc        1 4MK      0.070033
     60 H16         5.7240   -1.6110   -4.6920 ha        1 4MK      0.164000
     61 HN18        3.3640   -2.4220   -5.0800 hn        1 4MK      0.490300
     62 H21         6.5680   -5.7220   -4.5410 h4        1 4MK      0.109100
     63 HN25        2.8840   -6.8710   -1.1330 hn        1 4MK      0.503300
     64 H27         1.0250   -5.3040   -1.1400 ha        1 4MK      0.163000
     65 H28        -1.4380   -5.3170   -1.3440 ha        1 4MK      0.179000
     66 H29        -2.5830   -7.1110   -2.6790 ha        1 4MK      0.189000
     67 H30        -1.2370   -8.8490   -3.8260 ha        1 4MK      0.191000
     68 H35         1.6730   -7.7580   -5.7780 h1        1 4MK      0.102700
     69 H36         1.9000  -10.7290   -6.5870 hc        1 4MK      0.071200
     70 H36A        3.3000   -9.6660   -6.0980 hc        1 4MK      0.071200
     71 H36B        2.3190   -9.2740   -7.5720 hc        1 4MK      0.071200
     72 H37        -0.7140   -8.0850   -5.8730 hc        1 4MK      0.071200
     73 H37A       -0.0210   -8.7750   -7.3920 hc        1 4MK      0.071200
     74 H37B       -0.5340   -9.8920   -6.0660 hc        1 4MK      0.071200
     75 H182        2.2890   -2.5950   -3.7820 hn        1 4MK      0.490300
     76 H252        3.1390   -8.0500   -2.3190 hn        1 4MK      0.503300
@<TRIPOS>BOND
     1    1    2 1   
     2    1   39 1   
     3    1   40 1   
     4    1   41 1   
     5    2    3 1   
     6    2    4 1   
     7    2   42 1   
     8    3   43 1   
     9    3   44 1   
    10    3   45 1   
    11    4    5 1   
    12    5    6 ar  
    13    5   17 ar  
    14    6    7 ar  
    15    6   46 1   
    16    7    8 1   
    17    7   14 ar  
    18    8    9 1   
    19    8   13 1   
    20    8   47 1   
    21    9   10 1   
    22    9   48 1   
    23    9   49 1   
    24   10   11 1   
    25   10   50 1   
    26   10   51 1   
    27   11   12 1   
    28   11   52 1   
    29   12   13 1   
    30   12   53 1   
    31   12   54 1   
    32   13   55 1   
    33   13   56 1   
    34   14   15 1   
    35   14   16 ar  
    36   15   57 1   
    37   15   58 1   
    38   15   59 1   
    39   16   17 ar  
    40   16   60 1   
    41   17   18 1   
    42   18   19 1   
    43   18   61 1   
    44   18   75 1   
    45   19   20 ar  
    46   19   38 ar  
    47   20   21 ar  
    48   21   22 ar  
    49   21   62 1   
    50   22   23 1   
    51   22   24 ar  
    52   24   25 1   
    53   24   38 ar  
    54   25   26 1   
    55   25   63 1   
    56   25   76 1   
    57   26   27 ar  
    58   26   31 ar  
    59   27   28 ar  
    60   27   64 1   
    61   28   29 ar  
    62   28   65 1   
    63   29   30 ar  
    64   29   66 1   
    65   30   31 ar  
    66   30   67 1   
    67   31   32 1   
    68   32   33 2   
    69   32   34 2   
    70   32   35 1   
    71   35   36 1   
    72   35   37 1   
    73   35   68 1   
    74   36   69 1   
    75   36   70 1   
    76   36   71 1   
    77   37   72 1   
    78   37   73 1   
    79   37   74 1   
@<TRIPOS>SUBSTRUCTURE
     1 4MK         1 TEMP              0 ****  ****    0 ROOT
