@<TRIPOS>MOLECULE
4MK
   74    77     1     0     0
SMALL
bcc


@<TRIPOS>ATOM
      1 C1          0.1670   -0.9030   -1.3160 c3        1 4MK     -0.110600
      2 C2          1.4970   -0.4300   -0.7560 c3        1 4MK      0.141100
      3 C3          1.4200   -0.2110    0.7430 c3        1 4MK     -0.110600
      4 O4          2.4410   -1.4940   -1.0130 os        1 4MK     -0.351900
      5 C5          3.6470   -1.1100   -1.5730 ca        1 4MK      0.086100
      6 C6          4.3310    0.0360   -1.1700 ca        1 4MK     -0.170000
      7 C7          5.5800    0.3570   -1.7120 ca        1 4MK     -0.050300
      8 C8          6.2800    1.5930   -1.2380 c3        1 4MK     -0.024400
      9 C9          5.4640    2.8420   -1.5510 c3        1 4MK     -0.071400
     10 C10         6.1670    4.0920   -1.0230 c3        1 4MK      0.162300
     11 N11         6.5040    4.0060    0.3840 n7        1 4MK     -0.821200
     12 C12         7.2400    2.8080    0.7380 c3        1 4MK      0.162300
     13 C13         6.5670    1.5240    0.2580 c3        1 4MK     -0.071400
     14 C14         6.1420   -0.4880   -2.6820 ca        1 4MK     -0.087300
     15 C15         7.4600   -0.1980   -3.3000 c3        1 4MK     -0.049800
     16 C16         5.4570   -1.6380   -3.0910 ca        1 4MK     -0.082000
     17 C17         4.2060   -1.9810   -2.5520 ca        1 4MK      0.095600
     18 N18         3.4800   -3.1030   -3.0210 nu        1 4MK     -0.677300
     19 C19         3.9850   -4.4130   -2.8520 ca        1 4MK      0.897900
     20 N20         5.3560   -4.6060   -2.7270 nb        1 4MK     -0.746000
     21 C21         5.7710   -5.8770   -2.6830 ca        1 4MK      0.493200
     22 C22         4.9100   -6.9860   -2.7500 ca        1 4MK     -0.332200
     23 Cl1         5.5290   -8.5540   -2.6910 cl        1 4MK     -0.053400
     24 C24         3.5040   -6.7140   -2.8650 ca        1 4MK      0.734200
     25 N25         2.6140   -7.7810   -2.9720 nu        1 4MK     -0.780300
     26 C26         1.2220   -7.6970   -2.8320 ca        1 4MK      0.295600
     27 C27         0.6310   -6.8390   -1.8740 ca        1 4MK     -0.165000
     28 C28        -0.7460   -6.7950   -1.7240 ca        1 4MK     -0.049000
     29 C29        -1.5710   -7.6110   -2.5040 ca        1 4MK     -0.175000
     30 C30        -0.9990   -8.4600   -3.4350 ca        1 4MK     -0.019000
     31 C31         0.3920   -8.5270   -3.6340 ca        1 4MK     -0.424500
     32 S32         0.9320   -9.6020   -4.8040 sy        1 4MK      1.368300
     33 O33         2.1560  -10.1730   -4.4000 o         1 4MK     -0.659300
     34 O34        -0.0920  -10.5020   -5.1450 o         1 4MK     -0.659300
     35 C35         1.2280   -8.5240   -6.1220 c3        1 4MK     -0.266900
     36 C36         2.0420   -9.2300   -7.1840 c3        1 4MK     -0.075600
     37 C37        -0.0510   -7.9870   -6.7220 c3        1 4MK     -0.075600
     38 N38         3.0440   -5.4290   -2.9040 nb        1 4MK     -0.798000
     39 H1         -0.6130   -0.1290   -1.1240 hc        1 4MK      0.047367
     40 H1A        -0.1410   -1.8600   -0.8300 hc        1 4MK      0.047367
     41 H1B         0.2500   -1.0760   -2.4150 hc        1 4MK      0.047367
     42 H2          1.8170    0.5140   -1.2760 h1        1 4MK      0.055700
     43 H3          2.4020    0.1450    1.1360 hc        1 4MK      0.047367
     44 H3A         1.1600   -1.1650    1.2600 hc        1 4MK      0.047367
     45 H3B         0.6380    0.5510    0.9700 hc        1 4MK      0.047367
     46 H6          3.8850    0.6890   -0.4030 ha        1 4MK      0.145000
     47 H8          7.2710    1.6920   -1.7690 hc        1 4MK      0.055700
     48 H9          4.4460    2.7560   -1.0910 hc        1 4MK      0.050450
     49 H9A         5.3340    2.9450   -2.6590 hc        1 4MK      0.050450
     50 H10         5.4790    4.9760   -1.1480 h1        1 4MK      0.027450
     51 H10A        7.0790    4.2790   -1.6660 h1        1 4MK      0.027450
     52 HN11        7.0220    4.8190    0.6600 hn        1 4MK      0.362800
     53 H12         8.2950    2.8250    0.3300 h1        1 4MK      0.027450
     54 H12A        7.3120    2.7820    1.8620 h1        1 4MK      0.027450
     55 H13         5.6120    1.3620    0.8220 hc        1 4MK      0.050450
     56 H13A        7.2450    0.6600    0.4760 hc        1 4MK      0.050450
     57 H15         8.2610   -0.1790   -2.5190 hc        1 4MK      0.045033
     58 H15A        7.4410    0.7950   -3.8150 hc        1 4MK      0.045033
     59 H15B        7.7320   -0.9760   -4.0560 hc        1 4MK      0.045033
     60 H16         5.9160   -2.2850   -3.8570 ha        1 4MK      0.157000
     61 HN18        2.4930   -3.0240   -2.8460 hn        1 4MK      0.442800
     62 H21         6.8650   -6.0190   -2.5830 h4        1 4MK      0.041100
     63 HN25        3.0150   -8.6900   -3.1300 hn        1 4MK      0.495800
     64 H27         1.2600   -6.2040   -1.2310 ha        1 4MK      0.159000
     65 H28        -1.1910   -6.1210   -0.9740 ha        1 4MK      0.139000
     66 H29        -2.6630   -7.5810   -2.3740 ha        1 4MK      0.144000
     67 H30        -1.6480   -9.1200   -4.0420 ha        1 4MK      0.163000
     68 H35         1.8320   -7.6410   -5.7660 h1        1 4MK      0.114700
     69 H36         2.9890   -9.6330   -6.7460 hc        1 4MK      0.051867
     70 H36A        1.4580  -10.0740   -7.6270 hc        1 4MK      0.051867
     71 H36B        2.3060   -8.5210   -8.0050 hc        1 4MK      0.051867
     72 H37        -0.6260   -7.4080   -5.9580 hc        1 4MK      0.051867
     73 H37A       -0.6880   -8.8280   -7.0940 hc        1 4MK      0.051867
     74 H37B        0.1760   -7.3100   -7.5800 hc        1 4MK      0.051867
@<TRIPOS>BOND
     1    1    2 1   
     2    1   39 1   
     3    1   40 1   
     4    1   41 1   
     5    2    3 1   
     6    2    4 1   
     7    2   42 1   
     8    3   43 1   
     9    3   44 1   
    10    3   45 1   
    11    4    5 1   
    12    5    6 ar  
    13    5   17 ar  
    14    6    7 ar  
    15    6   46 1   
    16    7    8 1   
    17    7   14 ar  
    18    8    9 1   
    19    8   13 1   
    20    8   47 1   
    21    9   10 1   
    22    9   48 1   
    23    9   49 1   
    24   10   11 1   
    25   10   50 1   
    26   10   51 1   
    27   11   12 1   
    28   11   52 1   
    29   12   13 1   
    30   12   53 1   
    31   12   54 1   
    32   13   55 1   
    33   13   56 1   
    34   14   15 1   
    35   14   16 ar  
    36   15   57 1   
    37   15   58 1   
    38   15   59 1   
    39   16   17 ar  
    40   16   60 1   
    41   17   18 1   
    42   18   19 1   
    43   18   61 1   
    44   19   20 ar  
    45   19   38 ar  
    46   20   21 ar  
    47   21   22 ar  
    48   21   62 1   
    49   22   23 1   
    50   22   24 ar  
    51   24   25 1   
    52   24   38 ar  
    53   25   26 1   
    54   25   63 1   
    55   26   27 ar  
    56   26   31 ar  
    57   27   28 ar  
    58   27   64 1   
    59   28   29 ar  
    60   28   65 1   
    61   29   30 ar  
    62   29   66 1   
    63   30   31 ar  
    64   30   67 1   
    65   31   32 1   
    66   32   33 2   
    67   32   34 2   
    68   32   35 1   
    69   35   36 1   
    70   35   37 1   
    71   35   68 1   
    72   36   69 1   
    73   36   70 1   
    74   36   71 1   
    75   37   72 1   
    76   37   73 1   
    77   37   74 1   
@<TRIPOS>SUBSTRUCTURE
     1 4MK         1 TEMP              0 ****  ****    0 ROOT
