@<TRIPOS>MOLECULE
4ML
   18    18     1     0     0
SMALL
bcc


@<TRIPOS>ATOM
      1 CAF         0.8920   -1.6040   -0.1320 c2        1 4ML     -0.065200
      2 CAE         2.1490   -1.3690   -0.5590 ce        1 4ML     -0.312200
      3 CAJ         2.3690    0.0970   -0.5590 c         1 4ML      0.711800
      4 OAC         3.3300    0.8080   -0.8490 o         1 4ML     -0.630500
      5 OAH         1.2210    0.7390   -0.1330 os        1 4ML     -0.433900
      6 CAK         0.1980   -0.2880    0.1790 c3        1 4ML      0.176000
      7 CAA        -0.1420   -0.1640    1.6510 c3        1 4ML     -0.090100
      8 CAG        -1.0080   -0.0590   -0.7110 c3        1 4ML     -0.200400
      9 CAI        -2.1320   -1.0940   -0.4910 c         1 4ML      0.914600
     10 OAD        -1.8450   -2.2220    0.0100 o         1 4ML     -0.842800
     11 OAB        -3.2930   -0.7540   -0.8440 o         1 4ML     -0.842800
     12 HAF         0.3200   -2.5330   -0.0180 ha        1 4ML      0.214000
     13 HAE         2.9210   -2.0650   -0.8760 ha        1 4ML      0.155000
     14 HAA        -0.5280    0.8610    1.8630 hc        1 4ML      0.050700
     15 HAAA       -0.9340   -0.9190    1.8850 hc        1 4ML      0.050700
     16 HAAB        0.7580   -0.3470    2.2830 hc        1 4ML      0.050700
     17 HAG        -1.4160    0.9650   -0.5150 hc        1 4ML      0.048200
     18 HAGA       -0.6980   -0.1070   -1.7840 hc        1 4ML      0.048200
@<TRIPOS>BOND
     1    1    2 2   
     2    1    6 1   
     3    1   12 1   
     4    2    3 1   
     5    2   13 1   
     6    3    4 2   
     7    3    5 1   
     8    5    6 1   
     9    6    7 1   
    10    6    8 1   
    11    7   14 1   
    12    7   15 1   
    13    7   16 1   
    14    8    9 1   
    15    8   17 1   
    16    8   18 1   
    17    9   10 1   
    18    9   11 1   
@<TRIPOS>SUBSTRUCTURE
     1 4ML         1 TEMP              0 ****  ****    0 ROOT
