@<TRIPOS>MOLECULE
4ML
   18    18     1     0     0
SMALL
bcc


@<TRIPOS>ATOM
      1 CAF        -0.3500    0.3460    0.2470 c2        1 4ML     -0.065200
      2 CAE         0.8780    0.4670   -0.2980 ce        1 4ML     -0.312200
      3 CAJ         1.8780    0.1430    0.7470 c         1 4ML      0.711800
      4 OAC         3.1080    0.0970    0.7550 o         1 4ML     -0.630500
      5 OAH         1.2320   -0.1660    1.9300 os        1 4ML     -0.433900
      6 CAK        -0.2300   -0.0700    1.7040 c3        1 4ML      0.176000
      7 CAA        -0.8230   -1.4420    1.9490 c3        1 4ML     -0.090100
      8 CAG        -0.7990    0.9780    2.6420 c3        1 4ML     -0.200400
      9 CAI        -2.3190    1.1840    2.4730 c         1 4ML      0.914600
     10 OAD        -2.9360    1.6830    3.4520 o         1 4ML     -0.842800
     11 OAB        -2.8690    0.8650    1.3770 o         1 4ML     -0.842800
     12 HAF        -1.3530    0.5260   -0.1620 ha        1 4ML      0.214000
     13 HAE         1.1710    0.7530   -1.3040 ha        1 4ML      0.155000
     14 HAA        -0.3970   -2.1910    1.2410 hc        1 4ML      0.050700
     15 HAAA       -1.9310   -1.3680    1.8070 hc        1 4ML      0.050700
     16 HAAB       -0.6020   -1.7670    2.9930 hc        1 4ML      0.050700
     17 HAG        -0.2940    1.9590    2.4590 hc        1 4ML      0.048200
     18 HAGA       -0.5900    0.6730    3.6970 hc        1 4ML      0.048200
@<TRIPOS>BOND
     1    1    2 2   
     2    1    6 1   
     3    1   12 1   
     4    2    3 1   
     5    2   13 1   
     6    3    4 2   
     7    3    5 1   
     8    5    6 1   
     9    6    7 1   
    10    6    8 1   
    11    7   14 1   
    12    7   15 1   
    13    7   16 1   
    14    8    9 1   
    15    8   17 1   
    16    8   18 1   
    17    9   10 1   
    18    9   11 1   
@<TRIPOS>SUBSTRUCTURE
     1 4ML         1 TEMP              0 ****  ****    0 ROOT
