@<TRIPOS>MOLECULE
4ML
   18    18     1     0     0
SMALL
bcc


@<TRIPOS>ATOM
      1 CAF        -0.4120   -0.1670    0.2690 c2        1 4ML     -0.065200
      2 CAE         0.7610   -0.0670   -0.3880 ce        1 4ML     -0.312200
      3 CAJ         1.8240    0.2130    0.6070 c         1 4ML      0.711800
      4 OAC         3.0400    0.3790    0.5210 o         1 4ML     -0.630500
      5 OAH         1.2690    0.2870    1.8710 os        1 4ML     -0.433900
      6 CAK        -0.1890    0.0430    1.7580 c3        1 4ML      0.176000
      7 CAA        -0.5090   -1.2030    2.5580 c3        1 4ML     -0.090100
      8 CAG        -0.9270    1.2630    2.2760 c3        1 4ML     -0.200400
      9 CAI        -2.4620    1.1320    2.1780 c         1 4ML      0.914600
     10 OAD        -2.9620    0.3230    1.3410 o         1 4ML     -0.842800
     11 OAB        -3.1430    1.8650    2.9440 o         1 4ML     -0.842800
     12 HAF        -1.4380   -0.3300   -0.0850 ha        1 4ML      0.214000
     13 HAE         0.9760   -0.1500   -1.4500 ha        1 4ML      0.155000
     14 HAA        -1.6140   -1.3750    2.4990 hc        1 4ML      0.050700
     15 HAAA        0.0370   -2.0870    2.1520 hc        1 4ML      0.050700
     16 HAAB       -0.2110   -1.0540    3.6230 hc        1 4ML      0.050700
     17 HAG        -0.6190    2.1650    1.6900 hc        1 4ML      0.048200
     18 HAGA       -0.6460    1.4330    3.3450 hc        1 4ML      0.048200
@<TRIPOS>BOND
     1    1    2 2   
     2    1    6 1   
     3    1   12 1   
     4    2    3 1   
     5    2   13 1   
     6    3    4 2   
     7    3    5 1   
     8    5    6 1   
     9    6    7 1   
    10    6    8 1   
    11    7   14 1   
    12    7   15 1   
    13    7   16 1   
    14    8    9 1   
    15    8   17 1   
    16    8   18 1   
    17    9   10 1   
    18    9   11 1   
@<TRIPOS>SUBSTRUCTURE
     1 4ML         1 TEMP              0 ****  ****    0 ROOT
