@<TRIPOS>MOLECULE
4ML
   18    16     1     0     0
SMALL
bcc


@<TRIPOS>ATOM
      1 CAF         0.3450   -0.3220   -1.2190 c1        1 4ML     -0.177000
      2 CAE         1.6480   -0.3220   -1.2190 c1        1 4ML     -0.177000
      3 CAJ         2.2210   -0.3220    0.0420 c1        1 4ML      0.327000
      4 OAC         3.3280   -0.7340    0.3230 o         1 4ML     -0.355000
      5 OAH         1.0230   -0.3220    1.0020 os        1 4ML     -0.272000
      6 CAK        -0.2480   -0.3220    0.0780 c2        1 4ML      0.100000
      7 CAA        -1.0970   -1.4720    0.3050 c3        1 4ML     -0.208000
      8 CAG        -1.2000    0.8320    0.3330 c3        1 4ML     -0.229000
      9 CAI        -0.4110    2.0510    0.7740 c2        1 4ML      0.334000
     10 OAD        -0.0720    2.9210   -0.0720 o         1 4ML     -0.577500
     11 OAB        -0.1470    2.2220    1.9930 o         1 4ML     -0.577500
     12 HAF        -0.1430   -0.6930   -1.9790 ha        1 4ML      0.184500
     13 HAE         2.1360    0.0520   -1.9770 ha        1 4ML      0.184500
     14 HAA        -1.3490   -1.5090    1.2470 hc        1 4ML      0.090000
     15 HAAA       -1.9000   -1.3970   -0.2440 hc        1 4ML      0.090000
     16 HAAB       -0.6130   -2.2850    0.0650 hc        1 4ML      0.090000
     17 HAG        -1.8330    0.5840    1.0330 hc        1 4ML      0.087500
     18 HAGA       -1.6870    1.0390   -0.4870 hc        1 4ML      0.087500
@<TRIPOS>BOND
     1    1    2 1   
     2    1   12 1   
     3    2   13 1   
     4    3    4 1   
     5    3    5 1   
     6    5    6 1   
     7    6    7 1   
     8    6    8 1   
     9    7   14 1   
    10    7   15 1   
    11    7   16 1   
    12    8    9 1   
    13    8   17 1   
    14    8   18 1   
    15    9   10 1   
    16    9   11 1   
@<TRIPOS>SUBSTRUCTURE
     1 4ML         1 TEMP              0 ****  ****    0 ROOT
