@<TRIPOS>MOLECULE
4MM
   29    28     1     0     0
SMALL
bcc


@<TRIPOS>ATOM
      1 OXT         2.2130    2.0070   -0.7650 o         1 4MM     -0.763800
      2 CAA        -4.4770    0.1050   -0.5780 c3        1 4MM     -0.053000
      3 SAI        -3.1140    1.0120    0.0350 ss        1 4MM     -0.258200
      4 CAH        -0.5230    0.5890    0.2530 c3        1 4MM     -0.083400
      5 CAK         0.7840    0.1220   -0.3630 c3        1 4MM     -0.047500
      6 CAJ         1.8930    1.1880    0.1150 c         1 4MM      0.931600
      7 NAL         1.2280   -1.2910   -0.0300 n4        1 4MM     -0.567800
      8 CAB         2.6940   -1.4000   -0.3190 c3        1 4MM      0.085100
      9 CAC         1.0030   -1.5960    1.4100 c3        1 4MM      0.085100
     10 CAD         0.5200   -2.2900   -0.8740 c3        1 4MM      0.085100
     11 O           2.3020    1.0660    1.2940 o         1 4MM     -0.763800
     12 HAA        -5.3720    0.7540   -0.4320 h1        1 4MM      0.063367
     13 HAAA       -4.3740   -0.1270   -1.6620 h1        1 4MM      0.063367
     14 HAAB       -4.6300   -0.8490   -0.0260 h1        1 4MM      0.063367
     15 HAG        -1.9510   -1.0570    0.2790 h1        1 4MM      0.046700
     16 HAGA       -1.6810   -0.3160   -1.3490 h1        1 4MM      0.046700
     17 HAH        -0.5780    1.6900   -0.0030 hc        1 4MM      0.096200
     18 HAHA       -0.4700    0.5290    1.3730 hc        1 4MM      0.096200
     19 HAK         0.7220    0.1730   -1.4860 hx        1 4MM      0.084700
     20 HAB         3.2650   -0.7920    0.4400 hx        1 4MM      0.091478
     21 HABA        3.0040   -2.4740   -0.2630 hx        1 4MM      0.091478
     22 HABB        2.8960   -0.9860   -1.3410 hx        1 4MM      0.091478
     23 HAC        -0.0970   -1.6650    1.6090 hx        1 4MM      0.091478
     24 HACA        1.4960   -2.5690    1.6650 hx        1 4MM      0.091478
     25 HACB        1.4520   -0.7550    2.0200 hx        1 4MM      0.091478
     26 HAD         0.7200   -2.0710   -1.9550 hx        1 4MM      0.091478
     27 HADA        0.8880   -3.3200   -0.6260 hx        1 4MM      0.091478
     28 HADB       -0.5820   -2.2390   -0.6820 hx        1 4MM      0.091478
     29 CAG        -1.7650   -0.0940   -0.2570 c3        1 4MM     -0.031300
@<TRIPOS>BOND
     1    1    6 1   
     2    2    3 1   
     3    2   12 1   
     4    2   13 1   
     5    2   14 1   
     6    3   29 1   
     7    4    5 1   
     8    4   17 1   
     9    4   18 1   
    10    4   29 1   
    11    5    6 1   
    12    5    7 1   
    13    5   19 1   
    14    6   11 1   
    15    7    8 1   
    16    7    9 1   
    17    7   10 1   
    18    8   20 1   
    19    8   21 1   
    20    8   22 1   
    21    9   23 1   
    22    9   24 1   
    23    9   25 1   
    24   10   26 1   
    25   10   27 1   
    26   10   28 1   
    27   15   29 1   
    28   16   29 1   
@<TRIPOS>SUBSTRUCTURE
     1 4MM         1 TEMP              0 ****  ****    0 ROOT
