@<TRIPOS>MOLECULE
4MM
   29    28     1     0     0
SMALL
bcc


@<TRIPOS>ATOM
      1 OXT        -1.7310   -0.5050    1.8700 o         1 4MM     -0.769800
      2 CAA        -0.5840    4.7590   -0.6680 c3        1 4MM     -0.037000
      3 SAI        -1.0760    3.0820   -0.9940 ss        1 4MM     -0.308200
      4 CAG        -0.0790    1.9710   -0.0260 c3        1 4MM     -0.025300
      5 CAH        -0.4410    0.5280   -0.3720 c3        1 4MM     -0.072400
      6 CAK         0.2850   -0.4140    0.5670 c3        1 4MM     -0.046500
      7 CAJ        -0.4670   -0.5050    1.8700 c         1 4MM      0.931600
      8 NAL         0.3690   -1.7220   -0.0330 n4        1 4MM     -0.567800
      9 CAB         1.2710   -1.6770   -1.1640 c3        1 4MM      0.085100
     10 CAC         0.8650   -2.6690    0.9410 c3        1 4MM      0.085100
     11 CAD        -0.9460   -2.1340   -0.4810 c3        1 4MM      0.085100
     12 O           0.1640   -0.5050    2.9650 o         1 4MM     -0.769800
     13 HAA        -0.7030    4.9550    0.2800 h1        1 4MM      0.067367
     14 HAAA        0.3550    4.8750   -0.9090 h1        1 4MM      0.067367
     15 HAAB       -1.1330    5.3680   -1.1980 h1        1 4MM      0.067367
     16 HAG         0.8650    2.1260   -0.2220 h1        1 4MM      0.097700
     17 HAGA       -0.2440    2.1300    0.9230 h1        1 4MM      0.097700
     18 HAH        -0.1770    0.3380   -1.2920 hc        1 4MM      0.050700
     19 HAHA       -1.4050    0.4030   -0.2770 hc        1 4MM      0.050700
     20 HAK         1.1850   -0.0750    0.7350 hx        1 4MM      0.082700
     21 HAB         1.5630   -2.5820   -1.3830 hx        1 4MM      0.092033
     22 HABA        2.0470   -1.1300   -0.9390 hx        1 4MM      0.092033
     23 HABB        0.8110   -1.2890   -1.9320 hx        1 4MM      0.092033
     24 HAC         1.6890   -2.3260    1.3380 hx        1 4MM      0.092033
     25 HACA        1.0460   -3.5220    0.5030 hx        1 4MM      0.092033
     26 HACB        0.1960   -2.7970    1.6400 hx        1 4MM      0.092033
     27 HAD        -1.5820   -2.0460    0.2540 hx        1 4MM      0.092033
     28 HADA       -1.2280   -1.5700   -1.2250 hx        1 4MM      0.092033
     29 HADB       -0.9130   -3.0650   -0.7720 hx        1 4MM      0.092033
@<TRIPOS>BOND
     1    1    7 1   
     2    2    3 1   
     3    2   13 1   
     4    2   14 1   
     5    2   15 1   
     6    3    4 1   
     7    4    5 1   
     8    4   16 1   
     9    4   17 1   
    10    5    6 1   
    11    5   18 1   
    12    5   19 1   
    13    6    7 1   
    14    6    8 1   
    15    6   20 1   
    16    7   12 1   
    17    8    9 1   
    18    8   10 1   
    19    8   11 1   
    20    9   21 1   
    21    9   22 1   
    22    9   23 1   
    23   10   24 1   
    24   10   25 1   
    25   10   26 1   
    26   11   27 1   
    27   11   28 1   
    28   11   29 1   
@<TRIPOS>SUBSTRUCTURE
     1 4MM         1 TEMP              0 ****  ****    0 ROOT
