@<TRIPOS>MOLECULE
4MN
   17    17     1     0     0
SMALL
bcc


@<TRIPOS>ATOM
      1 N1         -0.0410   -0.1440   -0.0260 nh        1 4MN     -0.816200
      2 C5          1.3550   -0.0380   -0.0090 ca        1 4MN      0.131600
      3 C6          2.0770   -0.1760    1.1990 ca        1 4MN     -0.186500
      4 C4          2.0830    0.1280   -1.2100 ca        1 4MN     -0.186500
      5 C3          3.4720    0.1380   -1.1950 ca        1 4MN     -0.093500
      6 C2          4.1820   -0.0080    0.0020 ca        1 4MN     -0.120300
      7 C1          5.6620   -0.0100    0.0070 c3        1 4MN     -0.045800
      8 C7          3.4660   -0.1640    1.1940 ca        1 4MN     -0.093500
      9 H11N       -0.4770    0.0870    0.8390 hn        1 4MN      0.385800
     10 H12N       -0.4730    0.2950   -0.8090 hn        1 4MN      0.385800
     11 H6          1.5410   -0.3040    2.1510 ha        1 4MN      0.130000
     12 H4          1.5520    0.2420   -2.1670 ha        1 4MN      0.130000
     13 H7          4.0110   -0.2770    2.1430 ha        1 4MN      0.129000
     14 H3          4.0220    0.2650   -2.1400 ha        1 4MN      0.129000
     15 H11C        6.0670    0.5910   -0.8440 hc        1 4MN      0.040033
     16 H12C        6.0430   -1.0580   -0.0940 hc        1 4MN      0.040033
     17 H13C        6.0590    0.4150    0.9610 hc        1 4MN      0.040033
@<TRIPOS>BOND
     1    1    2 1   
     2    1    9 1   
     3    1   10 1   
     4    2    3 ar  
     5    2    4 ar  
     6    3    8 ar  
     7    3   11 1   
     8    4    5 ar  
     9    4   12 1   
    10    5    6 ar  
    11    5   14 1   
    12    6    7 1   
    13    6    8 ar  
    14    7   15 1   
    15    7   16 1   
    16    7   17 1   
    17    8   13 1   
@<TRIPOS>SUBSTRUCTURE
     1 4MN         1 TEMP              0 ****  ****    0 ROOT
