@<TRIPOS>MOLECULE
4MN
   18    18     1     0     0
SMALL
bcc


@<TRIPOS>ATOM
      1 N1         -0.0620    0.0190    0.0260 n4        1 4MN     -0.697000
      2 C5          1.4010    0.0210    0.0170 ca        1 4MN     -0.095400
      3 C6          2.1020    0.0430    1.2360 ca        1 4MN     -0.090000
      4 C4          2.0880   -0.0040   -1.2090 ca        1 4MN     -0.090000
      5 C3          3.4780   -0.0110   -1.2040 ca        1 4MN     -0.111000
      6 C2          4.1950    0.0080    0.0010 ca        1 4MN      0.005700
      7 C1          5.6740   -0.0140   -0.0060 c3        1 4MN     -0.083800
      8 C7          3.4920    0.0360    1.2150 ca        1 4MN     -0.111000
      9 H11N       -0.4030   -0.9490    0.0580 hn        1 4MN      0.462133
     10 H12N       -0.4170    0.4720   -0.8230 hn        1 4MN      0.462133
     11 H6          1.5750    0.0670    2.2040 ha        1 4MN      0.156000
     12 H4          1.5500   -0.0180   -2.1710 ha        1 4MN      0.156000
     13 H7          4.0480    0.0540    2.1690 ha        1 4MN      0.174000
     14 H3          4.0230   -0.0290   -2.1640 ha        1 4MN      0.174000
     15 H11C        6.0900    0.5220    0.8840 hc        1 4MN      0.075367
     16 H12C        6.0350   -1.0750    0.0240 hc        1 4MN      0.075367
     17 H13C        6.0800    0.4660   -0.9320 hc        1 4MN      0.075367
     18 H13        -0.4070    0.5240    0.8500 hn        1 4MN      0.462133
@<TRIPOS>BOND
     1    1    2 1   
     2    1    9 1   
     3    1   10 1   
     4    1   18 1   
     5    2    3 ar  
     6    2    4 ar  
     7    3    8 ar  
     8    3   11 1   
     9    4    5 ar  
    10    4   12 1   
    11    5    6 ar  
    12    5   14 1   
    13    6    7 1   
    14    6    8 ar  
    15    7   15 1   
    16    7   16 1   
    17    7   17 1   
    18    8   13 1   
@<TRIPOS>SUBSTRUCTURE
     1 4MN         1 TEMP              0 ****  ****    0 ROOT
