@<TRIPOS>MOLECULE
4MN
   17    17     1     0     0
SMALL
bcc


@<TRIPOS>ATOM
      1 N1         -0.0420    0.1400   -0.0400 nv        1 4MN     -0.816200
      2 C5          1.3550    0.0400   -0.0170 ca        1 4MN      0.131600
      3 C6          2.0710    0.1710    1.1960 ca        1 4MN     -0.186500
      4 C4          2.0900   -0.1120   -1.2160 ca        1 4MN     -0.186500
      5 C3          3.4780   -0.1160   -1.1940 ca        1 4MN     -0.093000
      6 C2          4.1820    0.0200    0.0070 ca        1 4MN     -0.120300
      7 C1          5.6620   -0.0030    0.0210 c3        1 4MN     -0.044800
      8 C7          3.4600    0.1640    1.1970 ca        1 4MN     -0.093000
      9 H11N       -0.4800   -0.1010    0.8210 hn        1 4MN      0.385800
     10 H12N       -0.4680   -0.2940   -0.8290 hn        1 4MN      0.385800
     11 H6          1.5300    0.2890    2.1460 ha        1 4MN      0.130000
     12 H4          1.5640   -0.2170   -2.1770 ha        1 4MN      0.130000
     13 H7          4.0000    0.2740    2.1500 ha        1 4MN      0.129000
     14 H3          4.0330   -0.2290   -2.1390 ha        1 4MN      0.129000
     15 H11C        6.0760    0.4210   -0.9270 hc        1 4MN      0.040033
     16 H12C        6.0640    0.5910    0.8780 hc        1 4MN      0.040033
     17 H13C        6.0290   -1.0560    0.1220 hc        1 4MN      0.040033
@<TRIPOS>BOND
     1    1    2 1   
     2    1    9 1   
     3    1   10 1   
     4    2    3 ar  
     5    2    4 ar  
     6    3    8 ar  
     7    3   11 1   
     8    4    5 ar  
     9    4   12 1   
    10    5    6 ar  
    11    5   14 1   
    12    6    7 1   
    13    6    8 ar  
    14    7   15 1   
    15    7   16 1   
    16    7   17 1   
    17    8   13 1   
@<TRIPOS>SUBSTRUCTURE
     1 4MN         1 TEMP              0 ****  ****    0 ROOT
