@<TRIPOS>MOLECULE
4MP
   29    28     1     0     0
SMALL
bcc


@<TRIPOS>ATOM
      1 O1          4.5260   -0.7290    0.3570 o         1 4MP     -0.535500
      2 O2          1.5900    1.4150    3.0000 o         1 4MP     -0.524100
      3 O3          6.1520   -1.0890    6.7030 os        1 4MP     -0.324900
      4 N1          2.5560    0.3860    1.1480 n         1 4MP     -0.199000
      5 C1          3.3700   -0.8340    0.6920 c1        1 4MP      0.295500
      6 C2          3.2010    1.6810   -1.6130 c3        1 4MP     -0.099100
      7 C3          1.9440    0.9710   -1.1730 c3        1 4MP     -0.149700
      8 C4          1.7650    1.0110    0.3080 c2        1 4MP      0.192500
      9 C6          2.9150   -0.5650    3.4890 c3        1 4MP      0.006600
     10 C7          3.3510    0.1100    4.7600 c2        1 4MP     -0.125300
     11 C8          4.5300   -0.0570    5.2780 c1        1 4MP     -0.167800
     12 C9          5.7340   -0.1600    5.7800 c2        1 4MP      0.047000
     13 C10         1.1720   -2.4810    3.9720 c1        1 4MP     -0.108500
     14 C11         1.9500   -1.6000    3.7520 c1        1 4MP     -0.149100
     15 C12         5.1670   -2.0280    7.1260 c3        1 4MP      0.108700
     16 H21         3.2000    2.7430   -1.2690 hc        1 4MP      0.051367
     17 H22         4.1060    1.1710   -1.1980 hc        1 4MP      0.051367
     18 H31         3.2680    1.6700   -2.7280 hc        1 4MP      0.051367
     19 H32         1.9840   -0.1050   -1.5090 hc        1 4MP      0.071700
     20 H41         1.0470    1.4460   -1.6530 hc        1 4MP      0.071700
     21 H42         0.8750    1.5620    0.6840 h4        1 4MP      0.026800
     22 H7          3.8160   -1.0330    2.9840 hc        1 4MP      0.116700
     23 H8          2.5910    0.7630    5.2270 ha        1 4MP      0.155000
     24 H10         6.5820    0.5020    5.5240 h4        1 4MP      0.179000
     25 H11         0.4810   -3.2620    4.1630 ha        1 4MP      0.170500
     26 H121        4.3090   -1.4990    7.6080 h1        1 4MP      0.047367
     27 H122        5.7070   -2.6720    7.8630 h1        1 4MP      0.047367
     28 H123        4.8080   -2.6300    6.2560 h1        1 4MP      0.047367
     29 C5          2.2830    0.4860    2.5690 c         1 4MP      0.645100
@<TRIPOS>BOND
     1    1    5 2   
     2    2   29 2   
     3    3   12 1   
     4    3   15 1   
     5    4    5 2   
     6    4    8 2   
     7    4   29 1   
     8    6    7 1   
     9    6   16 1   
    10    6   17 1   
    11    6   18 1   
    12    7    8 1   
    13    7   19 1   
    14    7   20 1   
    15    8   21 1   
    16    9   10 1   
    17    9   14 1   
    18    9   22 1   
    19    9   29 1   
    20   10   11 2   
    21   10   23 1   
    22   11   12 2   
    23   12   24 1   
    24   13   14 3   
    25   13   25 1   
    26   15   26 1   
    27   15   27 1   
    28   15   28 1   
@<TRIPOS>SUBSTRUCTURE
     1 4MP         1 TEMP              0 ****  ****    0 ROOT
