@<TRIPOS>MOLECULE
4MP
   29    28     1     0     0
SMALL
bcc


@<TRIPOS>ATOM
      1 O1          3.6560    2.3050    1.5910 o         1 4MP     -0.537500
      2 O2          1.8680   -1.7180    2.3180 o         1 4MP     -0.526100
      3 O3          4.1930    0.5560    7.8040 os        1 4MP     -0.325900
      4 N1          2.6570    0.1630    1.1880 n         1 4MP     -0.206000
      5 C1          3.7870    1.2030    1.1140 c1        1 4MP      0.295500
      6 C2          1.3430    0.0490   -2.2850 c3        1 4MP     -0.099100
      7 C3          1.9140    0.7590   -1.0850 c3        1 4MP     -0.155700
      8 C4          1.9920   -0.1450    0.0980 c2        1 4MP      0.201500
      9 C6          3.7340   -0.5720    3.3770 c3        1 4MP      0.002600
     10 C7          3.1360   -0.9640    4.7000 c2        1 4MP     -0.124300
     11 C8          3.2180   -0.2160    5.7590 c1        1 4MP     -0.167800
     12 C9          3.2340    0.5510    6.8190 c2        1 4MP      0.047000
     13 C10         5.8880   -1.9920    2.8430 c1        1 4MP     -0.107500
     14 C11         4.9020   -1.3580    3.0780 c1        1 4MP     -0.151100
     15 C12         5.2730   -0.3560    7.6210 c3        1 4MP      0.108700
     16 H21         0.3110   -0.3240   -2.0750 hc        1 4MP      0.045367
     17 H22         1.2950    0.7520   -3.1510 hc        1 4MP      0.045367
     18 H31         1.9810   -0.8220   -2.5740 hc        1 4MP      0.045367
     19 H32         2.9450    1.1560   -1.3190 hc        1 4MP      0.087200
     20 H41         1.2760    1.6490   -0.8250 hc        1 4MP      0.087200
     21 H42         1.4960   -1.1370    0.0030 h4        1 4MP      0.029800
     22 H7          4.0340    0.5220    3.4090 hc        1 4MP      0.117700
     23 H8          2.6190   -1.9400    4.7080 ha        1 4MP      0.155000
     24 H10         2.4610    1.3020    7.0630 h4        1 4MP      0.179000
     25 H11         6.7640   -2.5510    2.6300 ha        1 4MP      0.170500
     26 H121        4.8910   -1.4050    7.5880 h1        1 4MP      0.047367
     27 H122        5.9180   -0.1920    8.5200 h1        1 4MP      0.047367
     28 H123        5.8260   -0.1170    6.6810 h1        1 4MP      0.047367
     29 C5          2.6870   -0.7920    2.2800 c         1 4MP      0.640100
@<TRIPOS>BOND
     1    1    5 2   
     2    2   29 2   
     3    3   12 1   
     4    3   15 1   
     5    4    5 2   
     6    4    8 2   
     7    4   29 1   
     8    6    7 1   
     9    6   16 1   
    10    6   17 1   
    11    6   18 1   
    12    7    8 1   
    13    7   19 1   
    14    7   20 1   
    15    8   21 1   
    16    9   10 1   
    17    9   14 1   
    18    9   22 1   
    19    9   29 1   
    20   10   11 2   
    21   10   23 1   
    22   11   12 2   
    23   12   24 1   
    24   13   14 3   
    25   13   25 1   
    26   15   26 1   
    27   15   27 1   
    28   15   28 1   
@<TRIPOS>SUBSTRUCTURE
     1 4MP         1 TEMP              0 ****  ****    0 ROOT
