@<TRIPOS>MOLECULE
4MP
   29    28     1     0     0
SMALL
bcc


@<TRIPOS>ATOM
      1 O1          0.3310   -1.2620    0.1950 o         1 4MP     -0.526100
      2 O2          0.9090   -0.9450    2.7600 o         1 4MP     -0.517100
      3 O3          5.1140    0.6070    7.2290 os        1 4MP     -0.328900
      4 N1          2.0800    0.0020    1.0160 n         1 4MP     -0.463600
      5 C1          1.0970   -0.3030    0.0380 c         1 4MP      0.669100
      6 C2          1.0230    0.5770   -1.1830 c3        1 4MP     -0.172100
      7 C3          4.0170    0.6500   -0.3410 c2        1 4MP     -0.231000
      8 C4          3.1690    0.8380    0.6790 c2        1 4MP     -0.044400
      9 C6          3.2660   -0.5510    3.1830 c3        1 4MP     -0.009400
     10 C7          2.8830   -0.5600    4.6360 c2        1 4MP     -0.110300
     11 C8          3.4870    0.1650    5.5300 c1        1 4MP     -0.177800
     12 C9          4.0320    0.9270    6.4420 c2        1 4MP      0.040000
     13 C10         4.7010   -2.6740    2.5680 c1        1 4MP     -0.116500
     14 C11         4.0420   -1.7140    2.8430 c1        1 4MP     -0.148100
     15 C12         5.6560   -0.6960    7.0330 c3        1 4MP      0.109700
     16 H21         1.8630    0.3330   -1.8770 hc        1 4MP      0.070700
     17 H22         0.0530    0.3800   -1.7020 hc        1 4MP      0.070700
     18 H31         1.0790    1.6570   -0.9070 hc        1 4MP      0.070700
     19 H32         4.8230    1.3700   -0.5340 ha        1 4MP      0.129500
     20 H41         3.9670   -0.1990   -1.0340 ha        1 4MP      0.129500
     21 H42         3.2770    1.7100    1.3560 h4        1 4MP      0.135000
     22 H7          3.8890    0.3710    2.9730 hc        1 4MP      0.089700
     23 H8          2.0410   -1.2300    4.8930 ha        1 4MP      0.165000
     24 H10         3.6860    1.9440    6.7020 h4        1 4MP      0.175000
     25 H11         5.2800   -3.5270    2.3220 ha        1 4MP      0.169500
     26 H121        4.8830   -1.4740    7.2490 h1        1 4MP      0.046700
     27 H122        6.4970   -0.7510    7.7670 h1        1 4MP      0.046700
     28 H123        6.0290   -0.8060    5.9860 h1        1 4MP      0.046700
     29 C5          1.9870   -0.5250    2.3260 c         1 4MP      0.680100
@<TRIPOS>BOND
     1    1    5 2   
     2    2   29 2   
     3    3   12 1   
     4    3   15 1   
     5    4    5 1   
     6    4    8 1   
     7    4   29 1   
     8    5    6 1   
     9    6   16 1   
    10    6   17 1   
    11    6   18 1   
    12    7    8 2   
    13    7   19 1   
    14    7   20 1   
    15    8   21 1   
    16    9   10 1   
    17    9   14 1   
    18    9   22 1   
    19    9   29 1   
    20   10   11 2   
    21   10   23 1   
    22   11   12 2   
    23   12   24 1   
    24   13   14 3   
    25   13   25 1   
    26   15   26 1   
    27   15   27 1   
    28   15   28 1   
@<TRIPOS>SUBSTRUCTURE
     1 4MP         1 TEMP              0 ****  ****    0 ROOT
