@<TRIPOS>MOLECULE
4MP
   29    29     1     0     0
SMALL
bcc


@<TRIPOS>ATOM
      1 O1         -3.2310   -0.7260   -2.7930 o         1 4MP     -0.282000
      2 O2         -0.8520   -1.8690   -1.8280 o         1 4MP     -0.287000
      3 O3          3.2320   -0.6660    2.8890 os        1 4MP     -0.207000
      4 N1         -1.7170    0.2430   -1.4110 n         1 4MP     -0.352000
      5 C1         -2.7090    0.2580   -2.2810 c2        1 4MP      0.310000
      6 C2         -2.8920    1.7910   -2.7670 c3        1 4MP     -0.192000
      7 C3         -2.7050    2.4840   -1.5650 c3        1 4MP     -0.172000
      8 C4         -1.7630    1.5770   -0.7090 c3        1 4MP     -0.029000
      9 C5         -0.7700   -0.8360   -1.1800 c2        1 4MP      0.363000
     10 C6          0.2620   -0.7110   -0.0960 c2        1 4MP     -0.158000
     11 C7         -0.0390   -1.1280    1.1810 c1        1 4MP     -0.052000
     12 C8          0.9420   -1.1460    2.1560 c1        1 4MP     -0.210000
     13 C9          2.2350   -0.7440    1.8500 c2        1 4MP      0.098000
     14 C10         2.5430   -0.3230    0.5650 c2        1 4MP     -0.162000
     15 C11         1.5580   -0.3060   -0.4100 c2        1 4MP     -0.071000
     16 C12         3.8710   -1.9050    3.1660 c3        1 4MP     -0.078000
     17 H21        -2.4050    2.1200   -3.5850 hc        1 4MP      0.124000
     18 H22        -3.8020    1.9030   -3.0460 hc        1 4MP      0.124000
     19 H31        -2.2590    3.3880   -1.7430 hc        1 4MP      0.098000
     20 H32        -3.5850    2.6130   -1.0940 hc        1 4MP      0.098000
     21 H41        -2.1270    1.4710    0.2010 h1        1 4MP      0.093000
     22 H42        -0.8790    1.9610   -0.6730 h1        1 4MP      0.093000
     23 H7         -0.9670   -1.4190    1.4030 ha        1 4MP      0.149000
     24 H8          0.7280   -1.4350    3.0420 ha        1 4MP      0.144000
     25 H10         3.4640   -0.0390    0.3440 ha        1 4MP      0.155000
     26 H11         1.7690   -0.0090   -1.3050 ha        1 4MP      0.143000
     27 H121        3.2240   -2.5860    3.2130 h1        1 4MP      0.087333
     28 H122        4.5230   -2.1140    2.4420 h1        1 4MP      0.087333
     29 H123        4.3510   -1.8460    4.0350 h1        1 4MP      0.087333
@<TRIPOS>BOND
     1    1    5 1   
     2    2    9 1   
     3    3   13 1   
     4    3   16 1   
     5    4    5 1   
     6    4    8 1   
     7    4    9 1   
     8    5    6 1   
     9    6    7 1   
    10    6   17 1   
    11    6   18 1   
    12    7    8 1   
    13    7   19 1   
    14    7   20 1   
    15    8   21 1   
    16    8   22 1   
    17    9   10 1   
    18   10   11 1   
    19   10   15 1   
    20   11   23 1   
    21   12   13 1   
    22   12   24 1   
    23   13   14 1   
    24   14   15 1   
    25   14   25 1   
    26   15   26 1   
    27   16   27 1   
    28   16   28 1   
    29   16   29 1   
@<TRIPOS>SUBSTRUCTURE
     1 4MP         1 TEMP              0 ****  ****    0 ROOT
