@<TRIPOS>MOLECULE
4MP
   29    30     1     0     0
SMALL
bcc


@<TRIPOS>ATOM
      1 O1         -3.9390   -0.9970   -0.9780 o         1 4MP     -0.557500
      2 O2         -1.3230   -1.9650   -1.0460 o         1 4MP     -0.525100
      3 O3          4.4220    0.3170    0.4250 os        1 4MP     -0.322900
      4 N1         -1.9920    0.0540   -0.1720 n         1 4MP     -0.524400
      5 C1         -3.3870   -0.0770   -0.3720 c         1 4MP      0.702500
      6 C2         -4.1010    1.1090    0.2690 c3        1 4MP     -0.163400
      7 C3         -3.0100    1.9740    0.8850 c3        1 4MP     -0.093400
      8 C4         -1.6770    1.2640    0.5720 c3        1 4MP      0.087000
      9 C6          0.4080   -0.5020   -0.2870 ca        1 4MP     -0.178600
     10 C7          1.1500   -1.2390    0.6450 ca        1 4MP     -0.062000
     11 C8          2.4890   -0.9420    0.8650 ca        1 4MP     -0.186000
     12 C9          3.0920    0.0990    0.1300 ca        1 4MP      0.143100
     13 C10         2.3590    0.8290   -0.8130 ca        1 4MP     -0.186000
     14 C11         1.0140    0.5230   -1.0160 ca        1 4MP     -0.062000
     15 C12         5.0820    1.3180   -0.3430 c3        1 4MP      0.111700
     16 H21        -4.8210    0.7290    1.0350 hc        1 4MP      0.084200
     17 H22        -4.6780    1.6550   -0.5180 hc        1 4MP      0.084200
     18 H31        -3.1470    2.0690    1.9900 hc        1 4MP      0.059200
     19 H32        -3.0130    3.0020    0.4480 hc        1 4MP      0.059200
     20 H41        -1.1320    1.0030    1.5190 h1        1 4MP      0.053700
     21 H42        -1.0100    1.9270   -0.0450 h1        1 4MP      0.053700
     22 H7          0.6710   -2.0630    1.1960 ha        1 4MP      0.145500
     23 H8          3.0860   -1.5070    1.5930 ha        1 4MP      0.149500
     24 H10         2.8270    1.6330   -1.3980 ha        1 4MP      0.149500
     25 H11         0.4350    1.0870   -1.7630 ha        1 4MP      0.145500
     26 H121        6.1320    1.2920    0.0470 h1        1 4MP      0.047367
     27 H122        5.0590    1.0620   -1.4300 h1        1 4MP      0.047367
     28 H123        4.6200    2.3190   -0.1640 h1        1 4MP      0.047367
     29 C5         -1.0130   -0.8780   -0.5400 c         1 4MP      0.689700
@<TRIPOS>BOND
     1    1    5 2   
     2    2   29 2   
     3    3   12 1   
     4    3   15 1   
     5    4    5 1   
     6    4    8 1   
     7    4   29 1   
     8    5    6 1   
     9    6    7 1   
    10    6   16 1   
    11    6   17 1   
    12    7    8 1   
    13    7   18 1   
    14    7   19 1   
    15    8   20 1   
    16    8   21 1   
    17    9   10 ar  
    18    9   14 ar  
    19    9   29 1   
    20   10   11 ar  
    21   10   22 1   
    22   11   12 ar  
    23   11   23 1   
    24   12   13 ar  
    25   13   14 ar  
    26   13   24 1   
    27   14   25 1   
    28   15   26 1   
    29   15   27 1   
    30   15   28 1   
@<TRIPOS>SUBSTRUCTURE
     1 4MP         1 TEMP              0 ****  ****    0 ROOT
