@<TRIPOS>MOLECULE
4MQ
   36    35     1     0     0
SMALL
bcc


@<TRIPOS>ATOM
      1 N1         -2.0850    0.1160   -3.3440 n1        1 4MQ     -0.172000
      2 C2         -0.7120    0.1160   -3.3440 c1        1 4MQ     -0.008000
      3 C3         -2.7690    0.1160   -2.1620 c1        1 4MQ      0.025000
      4 N3          0.2200    0.1160    0.1580 n3        1 4MQ     -0.226000
      5 C4         -2.0870    0.1160   -0.9810 c1        1 4MQ     -0.131000
      6 N4          2.7860    0.1280    1.3330 n3        1 4MQ     -0.269000
      7 C5         -2.7930    0.1160    0.2390 c2        1 4MQ     -0.083000
      8 C6         -4.1840    0.1160    0.2380 c1        1 4MQ     -0.146000
      9 C7         -4.8760    0.1160   -0.9620 c1        1 4MQ     -0.105000
     10 C8         -0.6920    0.1160   -0.9830 c2        1 4MQ      0.147000
     11 C9          1.0390    1.2820    0.1120 c3        1 4MQ     -0.052000
     12 C10         2.0020    1.3140    1.2880 c3        1 4MQ     -0.064000
     13 C17        -4.1830    0.1160   -2.1620 c2        1 4MQ     -0.116000
     14 C12         0.9130   -1.0160   -0.3580 c3        1 4MQ     -0.047000
     15 N9         -0.0210    0.1160   -2.1510 n2        1 4MQ     -0.231000
     16 C13         3.9570    0.3570    2.1460 c3        1 4MQ     -0.113000
     17 C15         2.0410   -0.9540    1.8700 c3        1 4MQ     -0.055000
     18 C16         1.5090   -1.8450    0.7660 c3        1 4MQ     -0.153000
     19 H2         -0.2240    0.1160   -4.1900 ha        1 4MQ      0.189000
     20 H17        -4.6710    0.1160   -3.0080 ha        1 4MQ      0.154000
     21 H91C        0.4710    2.0750    0.1410 h1        1 4MQ      0.093500
     22 H92C        1.5490    1.2830   -0.7210 h1        1 4MQ      0.093500
     23 H121        0.2910   -1.5680   -0.8690 h1        1 4MQ      0.087500
     24 H122        1.6300   -0.7120   -0.9470 h1        1 4MQ      0.087500
     25 H5         -2.3050    0.1160    1.0840 ha        1 4MQ      0.150000
     26 H101        1.4930    1.3940    2.1170 h1        1 4MQ      0.076500
     27 H102        2.5930    2.0860    1.1980 h1        1 4MQ      0.076500
     28 H131        4.4740    1.0960    1.7720 h1        1 4MQ      0.070000
     29 H132        3.6830    0.5780    3.0560 h1        1 4MQ      0.070000
     30 H133        4.5070   -0.4500    2.1580 h1        1 4MQ      0.070000
     31 H151        2.6170   -1.4800    2.4570 h1        1 4MQ      0.073000
     32 H152        1.2910   -0.6020    2.3880 h1        1 4MQ      0.073000
     33 H6         -4.6720    0.1160    1.0830 ha        1 4MQ      0.136000
     34 H7         -5.8520    0.1160   -0.9630 ha        1 4MQ      0.137000
     35 H161        2.2390   -2.3880    0.4120 hc        1 4MQ      0.082500
     36 H162        0.8200   -2.4320    1.1310 hc        1 4MQ      0.082500
@<TRIPOS>BOND
     1    1    3 1   
     2    2   15 1   
     3    2   19 1   
     4    3   13 1   
     5    4   10 1   
     6    4   11 1   
     7    4   14 1   
     8    5    7 1   
     9    5   10 1   
    10    6   12 1   
    11    6   16 1   
    12    6   17 1   
    13    7    8 1   
    14    7   25 1   
    15    8   33 1   
    16    9   13 1   
    17    9   34 1   
    18   10   15 1   
    19   11   12 1   
    20   11   21 1   
    21   11   22 1   
    22   12   26 1   
    23   12   27 1   
    24   13   20 1   
    25   14   18 1   
    26   14   23 1   
    27   14   24 1   
    28   16   28 1   
    29   16   29 1   
    30   16   30 1   
    31   17   18 1   
    32   17   31 1   
    33   17   32 1   
    34   18   35 1   
    35   18   36 1   
@<TRIPOS>SUBSTRUCTURE
     1 4MQ         1 TEMP              0 ****  ****    0 ROOT
