@<TRIPOS>MOLECULE
4MQ
   36    38     1     0     0
SMALL
bcc


@<TRIPOS>ATOM
      1 N1         -0.1850    0.4500   -0.0880 nb        1 4MQ     -0.698000
      2 C2          1.1050    0.7710   -0.0770 ca        1 4MQ      0.654900
      3 C3         -0.7160    0.0260    1.1190 ca        1 4MQ      0.418600
      4 N3          2.3230    0.2520    3.3350 nh        1 4MQ     -0.735300
      5 C4          0.0880   -0.0610    2.3000 ca        1 4MQ     -0.261600
      6 N4          4.2690    0.4450    5.6100 n3        1 4MQ     -0.743600
      7 C5         -0.5110   -0.4570    3.5180 ca        1 4MQ     -0.083000
      8 C6         -1.8470   -0.7830    3.5670 ca        1 4MQ     -0.146000
      9 C7         -2.6410   -0.7240    2.4010 ca        1 4MQ     -0.105000
     10 C8          1.4980    0.3030    2.1650 ca        1 4MQ      0.668200
     11 C9          3.4810    1.1370    3.3190 c3        1 4MQ      0.184800
     12 C10         3.9670    1.5540    4.7210 c3        1 4MQ      0.172800
     13 C17        -2.0990   -0.3280    1.2030 ca        1 4MQ     -0.181300
     14 C12         2.6390   -1.1170    3.7430 c3        1 4MQ      0.189800
     15 N9          1.9880    0.7140    0.9800 nb        1 4MQ     -0.757000
     16 C13         5.2090    0.8030    6.6480 c3        1 4MQ      0.163100
     17 C15         3.0730   -0.2090    6.1220 c3        1 4MQ      0.181800
     18 C16         2.5850   -1.3600    5.2480 c3        1 4MQ     -0.074400
     19 H2          1.5500    1.1200   -1.0330 h5        1 4MQ      0.052100
     20 H17        -2.7180   -0.2730    0.2930 ha        1 4MQ      0.154000
     21 H91C        3.2050    2.0960    2.7940 h1        1 4MQ      0.054200
     22 H92C        4.3430    0.6700    2.7600 h1        1 4MQ      0.054200
     23 H121        3.6720   -1.3940    3.3770 h1        1 4MQ      0.048200
     24 H122        1.9080   -1.8270    3.2590 h1        1 4MQ      0.048200
     25 H5          0.0970   -0.4930    4.4360 ha        1 4MQ      0.150000
     26 H101        3.2010    2.2510    5.1740 h1        1 4MQ      0.037200
     27 H102        4.9110    2.1490    4.5550 h1        1 4MQ      0.037200
     28 H131        6.1430    1.2040    6.1720 h1        1 4MQ      0.030700
     29 H132        5.4750   -0.1180    7.2310 h1        1 4MQ      0.030700
     30 H133        4.8140    1.5760    7.3620 h1        1 4MQ      0.030700
     31 H151        3.2840   -0.6310    7.1470 h1        1 4MQ      0.033700
     32 H152        2.2250    0.5290    6.2410 h1        1 4MQ      0.033700
     33 H6         -2.3110   -1.0890    4.5170 ha        1 4MQ      0.136000
     34 H7         -3.7060   -0.9950    2.4640 ha        1 4MQ      0.137000
     35 H161        1.5320   -1.5910    5.5580 hc        1 4MQ      0.043200
     36 H162        3.2050   -2.2730    5.4520 hc        1 4MQ      0.043200
@<TRIPOS>BOND
     1    1    2 ar  
     2    1    3 ar  
     3    2   15 ar  
     4    2   19 1   
     5    3    5 ar  
     6    3   13 ar  
     7    4   10 1   
     8    4   11 1   
     9    4   14 1   
    10    5    7 ar  
    11    5   10 ar  
    12    6   12 1   
    13    6   16 1   
    14    6   17 1   
    15    7    8 ar  
    16    7   25 1   
    17    8    9 ar  
    18    8   33 1   
    19    9   13 ar  
    20    9   34 1   
    21   10   15 ar  
    22   11   12 1   
    23   11   21 1   
    24   11   22 1   
    25   12   26 1   
    26   12   27 1   
    27   13   20 1   
    28   14   18 1   
    29   14   23 1   
    30   14   24 1   
    31   16   28 1   
    32   16   29 1   
    33   16   30 1   
    34   17   18 1   
    35   17   31 1   
    36   17   32 1   
    37   18   35 1   
    38   18   36 1   
@<TRIPOS>SUBSTRUCTURE
     1 4MQ         1 TEMP              0 ****  ****    0 ROOT
