@<TRIPOS>MOLECULE
4MQ
   36    38     1     0     0
SMALL
bcc


@<TRIPOS>ATOM
      1 N1         -3.2900   -1.5930   -0.4820 nb        1 4MQ     -0.698000
      2 C2         -2.2560   -2.3940   -0.7240 ca        1 4MQ      0.654900
      3 C3         -2.9790   -0.2980   -0.1000 ca        1 4MQ      0.418600
      4 N3          0.7860   -0.4400   -0.1590 nh        1 4MQ     -0.735300
      5 C4         -1.6210    0.1380    0.0260 ca        1 4MQ     -0.261600
      6 N4          3.7290    0.1390   -0.2510 n3        1 4MQ     -0.743600
      7 C5         -1.3560    1.4820    0.3750 ca        1 4MQ     -0.083000
      8 C6         -2.3880    2.3590    0.6190 ca        1 4MQ     -0.146000
      9 C7         -3.7290    1.9290    0.5210 ca        1 4MQ     -0.105000
     10 C8         -0.5820   -0.8530   -0.2510 ca        1 4MQ      0.668200
     11 C9          1.7230   -1.2060   -0.9720 c3        1 4MQ      0.184800
     12 C10         2.9900   -0.4220   -1.3690 c3        1 4MQ      0.172800
     13 C17        -4.0280    0.6360    0.1680 ca        1 4MQ     -0.181300
     14 C12         1.2280   -0.2550    1.2230 c3        1 4MQ      0.189800
     15 N9         -0.9130   -2.1050   -0.6220 nb        1 4MQ     -0.757000
     16 C13         5.1230    0.3600   -0.5590 c3        1 4MQ      0.163100
     17 C15         3.0780    1.3080    0.3250 c3        1 4MQ      0.181800
     18 C16         2.1050    0.9730    1.4510 c3        1 4MQ     -0.074400
     19 H2         -2.4830   -3.4350   -1.0380 h5        1 4MQ      0.052100
     20 H17        -5.0730    0.3000    0.0830 ha        1 4MQ      0.154000
     21 H91C        2.0340   -2.1560   -0.4480 h1        1 4MQ      0.054200
     22 H92C        1.2240   -1.4900   -1.9410 h1        1 4MQ      0.054200
     23 H121        0.3240   -0.1530    1.8920 h1        1 4MQ      0.048200
     24 H122        1.8000   -1.1670    1.5660 h1        1 4MQ      0.048200
     25 H5         -0.3130    1.8310    0.4410 ha        1 4MQ      0.150000
     26 H101        2.6980    0.3760   -2.1150 h1        1 4MQ      0.037200
     27 H102        3.6530   -1.1610   -1.9040 h1        1 4MQ      0.037200
     28 H131        5.2880    1.1310   -1.3610 h1        1 4MQ      0.030700
     29 H132        5.6530    0.6940    0.3710 h1        1 4MQ      0.030700
     30 H133        5.5790   -0.6080   -0.8980 h1        1 4MQ      0.030700
     31 H151        3.8590    2.0020    0.7510 h1        1 4MQ      0.033700
     32 H152        2.5180    1.8920   -0.4650 h1        1 4MQ      0.033700
     33 H6         -2.1780    3.4050    0.8880 ha        1 4MQ      0.136000
     34 H7         -4.5380    2.6480    0.7260 ha        1 4MQ      0.137000
     35 H161        1.4600    1.8760    1.6150 hc        1 4MQ      0.043200
     36 H162        2.6790    0.7910    2.3980 hc        1 4MQ      0.043200
@<TRIPOS>BOND
     1    1    2 ar  
     2    1    3 ar  
     3    2   15 ar  
     4    2   19 1   
     5    3    5 ar  
     6    3   13 ar  
     7    4   10 1   
     8    4   11 1   
     9    4   14 1   
    10    5    7 ar  
    11    5   10 ar  
    12    6   12 1   
    13    6   16 1   
    14    6   17 1   
    15    7    8 ar  
    16    7   25 1   
    17    8    9 ar  
    18    8   33 1   
    19    9   13 ar  
    20    9   34 1   
    21   10   15 ar  
    22   11   12 1   
    23   11   21 1   
    24   11   22 1   
    25   12   26 1   
    26   12   27 1   
    27   13   20 1   
    28   14   18 1   
    29   14   23 1   
    30   14   24 1   
    31   16   28 1   
    32   16   29 1   
    33   16   30 1   
    34   17   18 1   
    35   17   31 1   
    36   17   32 1   
    37   18   35 1   
    38   18   36 1   
@<TRIPOS>SUBSTRUCTURE
     1 4MQ         1 TEMP              0 ****  ****    0 ROOT
