@<TRIPOS>MOLECULE
4MQ
   36    38     1     0     0
SMALL
bcc


@<TRIPOS>ATOM
      1 N1         -0.1720    0.4380   -0.0960 nb        1 4MQ     -0.698000
      2 C2          1.1230    0.7430   -0.0850 ca        1 4MQ      0.654900
      3 C3         -0.7110    0.0320    1.1130 ca        1 4MQ      0.418600
      4 N3          2.3260    0.2420    3.3350 nh        1 4MQ     -0.735300
      5 C4          0.0900   -0.0530    2.2970 ca        1 4MQ     -0.261600
      6 N4          4.2700    0.4320    5.6120 n3        1 4MQ     -0.743600
      7 C5         -0.5180   -0.4290    3.5170 ca        1 4MQ     -0.083000
      8 C6         -1.8580   -0.7380    3.5670 ca        1 4MQ     -0.146000
      9 C7         -2.6480   -0.6800    2.3980 ca        1 4MQ     -0.105000
     10 C8          1.5050    0.2920    2.1620 ca        1 4MQ      0.668200
     11 C9          3.4950    1.1120    3.3130 c3        1 4MQ      0.184800
     12 C10         3.9840    1.5360    4.7120 c3        1 4MQ      0.172800
     13 C17        -2.0990   -0.3030    1.1970 ca        1 4MQ     -0.181300
     14 C12         2.6230   -1.1270    3.7560 c3        1 4MQ      0.189800
     15 N9          2.0020    0.6850    0.9750 nb        1 4MQ     -0.757000
     16 C13         5.2120    0.7880    6.6490 c3        1 4MQ      0.163100
     17 C15         3.0640   -0.2020    6.1280 c3        1 4MQ      0.181800
     18 C16         2.5630   -1.3540    5.2640 c3        1 4MQ     -0.074400
     19 H2          1.5750    1.0770   -1.0440 h5        1 4MQ      0.052100
     20 H17        -2.7140   -0.2490    0.2850 ha        1 4MQ      0.154000
     21 H91C        4.3520    0.6280    2.7600 h1        1 4MQ      0.054200
     22 H92C        3.2330    2.0690    2.7780 h1        1 4MQ      0.054200
     23 H121        1.8850   -1.8330    3.2780 h1        1 4MQ      0.048200
     24 H122        3.6530   -1.4210    3.3960 h1        1 4MQ      0.048200
     25 H5          0.0880   -0.4640    4.4370 ha        1 4MQ      0.150000
     26 H101        3.2260    2.2480    5.1560 h1        1 4MQ      0.037200
     27 H102        4.9360    2.1170    4.5420 h1        1 4MQ      0.037200
     28 H131        4.8250    1.5730    7.3550 h1        1 4MQ      0.030700
     29 H132        6.1520    1.1710    6.1710 h1        1 4MQ      0.030700
     30 H133        5.4650   -0.1310    7.2410 h1        1 4MQ      0.030700
     31 H151        2.2250    0.5490    6.2370 h1        1 4MQ      0.033700
     32 H152        3.2670   -0.6170    7.1570 h1        1 4MQ      0.033700
     33 H6         -2.3280   -1.0280    4.5180 ha        1 4MQ      0.136000
     34 H7         -3.7160   -0.9370    2.4610 ha        1 4MQ      0.137000
     35 H161        1.5060   -1.5690    5.5740 hc        1 4MQ      0.043200
     36 H162        3.1700   -2.2730    5.4780 hc        1 4MQ      0.043200
@<TRIPOS>BOND
     1    1    2 ar  
     2    1    3 ar  
     3    2   15 ar  
     4    2   19 1   
     5    3    5 ar  
     6    3   13 ar  
     7    4   10 1   
     8    4   11 1   
     9    4   14 1   
    10    5    7 ar  
    11    5   10 ar  
    12    6   12 1   
    13    6   16 1   
    14    6   17 1   
    15    7    8 ar  
    16    7   25 1   
    17    8    9 ar  
    18    8   33 1   
    19    9   13 ar  
    20    9   34 1   
    21   10   15 ar  
    22   11   12 1   
    23   11   21 1   
    24   11   22 1   
    25   12   26 1   
    26   12   27 1   
    27   13   20 1   
    28   14   18 1   
    29   14   23 1   
    30   14   24 1   
    31   16   28 1   
    32   16   29 1   
    33   16   30 1   
    34   17   18 1   
    35   17   31 1   
    36   17   32 1   
    37   18   35 1   
    38   18   36 1   
@<TRIPOS>SUBSTRUCTURE
     1 4MQ         1 TEMP              0 ****  ****    0 ROOT
