@<TRIPOS>MOLECULE
4MQ
   36    38     1     0     0
SMALL
bcc


@<TRIPOS>ATOM
      1 N1         -0.1640    0.3990   -0.1040 nb        1 4MQ     -0.698000
      2 C2          1.1310    0.7020   -0.0940 ca        1 4MQ      0.654900
      3 C3         -0.7060    0.0080    1.1090 ca        1 4MQ      0.418600
      4 N3          2.3270    0.2370    3.3340 nh        1 4MQ     -0.735300
      5 C4          0.0920   -0.0650    2.2950 ca        1 4MQ     -0.261600
      6 N4          4.2670    0.4480    5.6130 n3        1 4MQ     -0.743600
      7 C5         -0.5180   -0.4270    3.5180 ca        1 4MQ     -0.083000
      8 C6         -1.8590   -0.7320    3.5690 ca        1 4MQ     -0.146000
      9 C7         -2.6470   -0.6850    2.3980 ca        1 4MQ     -0.105000
     10 C8          1.5080    0.2750    2.1590 ca        1 4MQ      0.668200
     11 C9          3.4990    1.1040    3.3040 c3        1 4MQ      0.184800
     12 C10         3.9850    1.5430    4.6990 c3        1 4MQ      0.172800
     13 C17        -2.0950   -0.3230    1.1940 ca        1 4MQ     -0.181300
     14 C12         2.6210   -1.1280    3.7710 c3        1 4MQ      0.189800
     15 N9          2.0080    0.6540    0.9680 nb        1 4MQ     -0.757000
     16 C13         5.2070    0.8150    6.6470 c3        1 4MQ      0.163100
     17 C15         3.0580   -0.1770    6.1330 c3        1 4MQ      0.181800
     18 C16         2.5580   -1.3390    5.2810 c3        1 4MQ     -0.074400
     19 H2          1.5850    1.0240   -1.0550 h5        1 4MQ      0.052100
     20 H17        -2.7090   -0.2780    0.2810 ha        1 4MQ      0.154000
     21 H91C        4.3560    0.6120    2.7590 h1        1 4MQ      0.054200
     22 H92C        3.2390    2.0550    2.7580 h1        1 4MQ      0.054200
     23 H121        1.8820   -1.8380    3.2990 h1        1 4MQ      0.048200
     24 H122        3.6510   -1.4290    3.4150 h1        1 4MQ      0.048200
     25 H5          0.0860   -0.4530    4.4400 ha        1 4MQ      0.150000
     26 H101        4.9380    2.1200    4.5240 h1        1 4MQ      0.037200
     27 H102        3.2280    2.2610    5.1330 h1        1 4MQ      0.037200
     28 H131        4.8200    1.6080    7.3430 h1        1 4MQ      0.030700
     29 H132        6.1490    1.1910    6.1680 h1        1 4MQ      0.030700
     30 H133        5.4570   -0.0980    7.2500 h1        1 4MQ      0.030700
     31 H151        3.2590   -0.5810    7.1670 h1        1 4MQ      0.033700
     32 H152        2.2210    0.5760    6.2320 h1        1 4MQ      0.033700
     33 H6         -2.3310   -1.0110    4.5230 ha        1 4MQ      0.136000
     34 H7         -3.7160   -0.9390    2.4630 ha        1 4MQ      0.137000
     35 H161        1.5000   -1.5480    5.5910 hc        1 4MQ      0.043200
     36 H162        3.1640   -2.2560    5.5070 hc        1 4MQ      0.043200
@<TRIPOS>BOND
     1    1    2 ar  
     2    1    3 ar  
     3    2   15 ar  
     4    2   19 1   
     5    3    5 ar  
     6    3   13 ar  
     7    4   10 1   
     8    4   11 1   
     9    4   14 1   
    10    5    7 ar  
    11    5   10 ar  
    12    6   12 1   
    13    6   16 1   
    14    6   17 1   
    15    7    8 ar  
    16    7   25 1   
    17    8    9 ar  
    18    8   33 1   
    19    9   13 ar  
    20    9   34 1   
    21   10   15 ar  
    22   11   12 1   
    23   11   21 1   
    24   11   22 1   
    25   12   26 1   
    26   12   27 1   
    27   13   20 1   
    28   14   18 1   
    29   14   23 1   
    30   14   24 1   
    31   16   28 1   
    32   16   29 1   
    33   16   30 1   
    34   17   18 1   
    35   17   31 1   
    36   17   32 1   
    37   18   35 1   
    38   18   36 1   
@<TRIPOS>SUBSTRUCTURE
     1 4MQ         1 TEMP              0 ****  ****    0 ROOT
