@<TRIPOS>MOLECULE
4MR
   56    60     1     0     0
SMALL
bcc


@<TRIPOS>ATOM
      1 CAA         0.4450   -0.4390    0.4300 ca        1 4MR     -0.144000
      2 CAB         1.6570   -0.5860    1.1030 ca        1 4MR     -0.113000
      3 CAC         1.7780   -0.1850    2.4330 ca        1 4MR     -0.138000
      4 CAF         0.6850    0.3660    3.1030 ca        1 4MR     -0.113000
      5 CAE        -0.5380    0.5170    2.4530 ca        1 4MR     -0.144000
      6 CAD        -0.6440    0.1140    1.1140 ca        1 4MR      0.089100
      7 OAG        -1.8470    0.4100    0.4730 os        1 4MR     -0.246200
      8 CAJ        -2.4380   -0.6090   -0.2580 ca        1 4MR      0.138100
      9 CAM        -3.4030   -0.1890   -1.1890 ca        1 4MR     -0.173500
     10 CAL        -4.0990   -1.1430   -1.9240 ca        1 4MR     -0.073500
     11 CAI        -2.1680   -1.9700   -0.0710 ca        1 4MR     -0.173500
     12 CAH        -2.8740   -2.9110   -0.8150 ca        1 4MR     -0.073500
     13 CAK        -3.8480   -2.5070   -1.7400 ca        1 4MR     -0.148300
     14 CAY        -4.6000   -3.5830   -2.5100 c3        1 4MR      0.167500
     15 CAZ        -5.6770   -2.8870   -3.3960 c         1 4MR      0.687500
     16 OAS        -5.4020   -2.3880   -4.4990 o         1 4MR     -0.581000
     17 NBA        -6.9880   -2.7890   -2.9420 ns        1 4MR     -0.594500
     18 CBF        -7.4720   -3.4360   -1.7940 c         1 4MR      0.819500
     19 OBG        -8.6560   -3.2900   -1.4300 o         1 4MR     -0.616500
     20 NBE        -6.5970   -4.2680   -1.0810 ns        1 4MR     -0.594500
     21 CBD        -5.2580   -4.4740   -1.4090 c         1 4MR      0.687500
     22 OBH        -4.6270   -5.3240   -0.7670 o         1 4MR     -0.581000
     23 NAX        -3.7000   -4.4250   -3.3030 n3        1 4MR     -0.712600
     24 CAR        -4.3900   -5.4540   -4.0680 c3        1 4MR      0.154300
     25 CAQ        -3.4160   -6.4280   -4.7620 c3        1 4MR      0.203800
     26 CBC        -2.7380   -3.7030   -4.1240 c3        1 4MR      0.154300
     27 CBB        -1.7310   -4.6490   -4.8090 c3        1 4MR      0.203800
     28 NAW        -2.3660   -5.7550   -5.5090 nh        1 4MR     -0.724300
     29 CAV        -1.5340   -6.5660   -6.3230 ca        1 4MR      0.864900
     30 NAU        -2.0150   -7.8140   -6.7170 nb        1 4MR     -0.745000
     31 CAT        -1.2600   -8.5040   -7.5840 ca        1 4MR      0.462200
     32 CAN        -0.0320   -8.0390   -8.0850 ca        1 4MR     -0.417600
     33 CAO         0.3900   -6.7830   -7.6140 ca        1 4MR      0.462200
     34 NAP        -0.3150   -6.0420   -6.7480 nb        1 4MR     -0.745000
     35 HAA         0.3380   -0.7490   -0.6190 ha        1 4MR      0.150000
     36 HAB         2.5220   -1.0180    0.5770 ha        1 4MR      0.138000
     37 HAC         2.7390   -0.3030    2.9560 ha        1 4MR      0.137000
     38 HAF         0.7850    0.6830    4.1520 ha        1 4MR      0.138000
     39 HAE        -1.4070    0.9540    2.9640 ha        1 4MR      0.150000
     40 HAM        -3.5990    0.8850   -1.3240 ha        1 4MR      0.157500
     41 HAL        -4.8380   -0.7920   -2.6630 ha        1 4MR      0.159500
     42 HAI        -1.4100   -2.2920    0.6580 ha        1 4MR      0.157500
     43 HAH        -2.6730   -3.9870   -0.6690 ha        1 4MR      0.159500
     44 HNBA       -7.6550   -2.2770   -3.4840 hn        1 4MR      0.358500
     45 HNBE       -6.9820   -4.7590   -0.3000 hn        1 4MR      0.358500
     46 HAR1       -5.0700   -5.0000   -4.8480 h1        1 4MR      0.058700
     47 HAR2       -5.0160   -6.0650   -3.3580 h1        1 4MR      0.058700
     48 HAQ1       -4.0370   -7.0470   -5.4690 h1        1 4MR      0.064200
     49 HAQ2       -2.9710   -7.1130   -3.9840 h1        1 4MR      0.064200
     50 HBC1       -3.2520   -3.0800   -4.9140 h1        1 4MR      0.058700
     51 HBC2       -2.1480   -3.0140   -3.4570 h1        1 4MR      0.058700
     52 HBB1       -1.1610   -4.0200   -5.5500 h1        1 4MR      0.064200
     53 HBB2       -1.0050   -5.0360   -4.0370 h1        1 4MR      0.064200
     54 HAT        -1.6680   -9.4870   -7.8860 h4        1 4MR      0.025100
     55 HAN         0.5630   -8.6220   -8.7940 ha        1 4MR      0.155000
     56 HAO         1.3500   -6.3410   -7.9410 h4        1 4MR      0.025100
@<TRIPOS>BOND
     1    1    2 ar  
     2    1    6 ar  
     3    1   35 1   
     4    2    3 ar  
     5    2   36 1   
     6    3    4 ar  
     7    3   37 1   
     8    4    5 ar  
     9    4   38 1   
    10    5    6 ar  
    11    5   39 1   
    12    6    7 1   
    13    7    8 1   
    14    8    9 ar  
    15    8   11 ar  
    16    9   10 ar  
    17    9   40 1   
    18   10   13 ar  
    19   10   41 1   
    20   11   12 ar  
    21   11   42 1   
    22   12   13 ar  
    23   12   43 1   
    24   13   14 1   
    25   14   15 1   
    26   14   21 1   
    27   14   23 1   
    28   15   16 2   
    29   15   17 1   
    30   17   18 1   
    31   17   44 1   
    32   18   19 2   
    33   18   20 1   
    34   20   21 1   
    35   20   45 1   
    36   21   22 2   
    37   23   24 1   
    38   23   26 1   
    39   24   25 1   
    40   24   46 1   
    41   24   47 1   
    42   25   28 1   
    43   25   48 1   
    44   25   49 1   
    45   26   27 1   
    46   26   50 1   
    47   26   51 1   
    48   27   28 1   
    49   27   52 1   
    50   27   53 1   
    51   28   29 1   
    52   29   30 ar  
    53   29   34 ar  
    54   30   31 ar  
    55   31   32 ar  
    56   31   54 1   
    57   32   33 ar  
    58   32   55 1   
    59   33   34 ar  
    60   33   56 1   
@<TRIPOS>SUBSTRUCTURE
     1 4MR         1 TEMP              0 ****  ****    0 ROOT
