@<TRIPOS>MOLECULE
4MR
   56    60     1     0     0
SMALL
bcc


@<TRIPOS>ATOM
      1 CAA         0.4450   -0.4320    0.4220 ca        1 4MR     -0.144500
      2 CAB         1.6590   -0.5760    1.0910 ca        1 4MR     -0.113000
      3 CAC         1.7830   -0.1730    2.4220 ca        1 4MR     -0.138000
      4 CAF         0.6900    0.3760    3.0940 ca        1 4MR     -0.113000
      5 CAE        -0.5350    0.5240    2.4460 ca        1 4MR     -0.144500
      6 CAD        -0.6430    0.1200    1.1090 ca        1 4MR      0.089100
      7 OAG        -1.8490    0.4130    0.4710 os        1 4MR     -0.246200
      8 CAJ        -2.4390   -0.6080   -0.2590 ca        1 4MR      0.137100
      9 CAM        -3.4070   -0.1900   -1.1880 ca        1 4MR     -0.173500
     10 CAL        -4.1030   -1.1460   -1.9210 ca        1 4MR     -0.073500
     11 CAI        -2.1670   -1.9690   -0.0720 ca        1 4MR     -0.173500
     12 CAH        -2.8720   -2.9110   -0.8140 ca        1 4MR     -0.073500
     13 CAK        -3.8480   -2.5100   -1.7370 ca        1 4MR     -0.148300
     14 CAY        -4.5990   -3.5870   -2.5060 c3        1 4MR      0.167500
     15 CAZ        -5.6800   -2.8940   -3.3890 c         1 4MR      0.687500
     16 OAS        -5.4080   -2.3950   -4.4930 o         1 4MR     -0.581000
     17 NBA        -6.9910   -2.7990   -2.9330 n         1 4MR     -0.594500
     18 CBF        -7.4710   -3.4460   -1.7840 c         1 4MR      0.819500
     19 OBG        -8.6540   -3.3020   -1.4170 o         1 4MR     -0.616500
     20 NBE        -6.5920   -4.2760   -1.0720 n         1 4MR     -0.594500
     21 CBD        -5.2540   -4.4790   -1.4020 c         1 4MR      0.687500
     22 OBH        -4.6200   -5.3280   -0.7620 o         1 4MR     -0.581000
     23 NAX        -3.7000   -4.4280   -3.3000 n3        1 4MR     -0.712600
     24 CAR        -4.3890   -5.4580   -4.0630 c3        1 4MR      0.154300
     25 CAQ        -3.4140   -6.4310   -4.7590 c3        1 4MR      0.203800
     26 CBC        -2.7410   -3.7040   -4.1230 c3        1 4MR      0.154300
     27 CBB        -1.7330   -4.6490   -4.8100 c3        1 4MR      0.203800
     28 NAW        -2.3670   -5.7550   -5.5090 nh        1 4MR     -0.724300
     29 CAV        -1.5360   -6.5650   -6.3240 ca        1 4MR      0.864900
     30 NAU        -2.0140   -7.8140   -6.7160 nb        1 4MR     -0.745000
     31 CAT        -1.2610   -8.5020   -7.5850 ca        1 4MR      0.462200
     32 CAN        -0.0340   -8.0350   -8.0890 ca        1 4MR     -0.417600
     33 CAO         0.3860   -6.7790   -7.6190 ca        1 4MR      0.462200
     34 NAP        -0.3180   -6.0390   -6.7510 nb        1 4MR     -0.745000
     35 HAA         0.3350   -0.7440   -0.6260 ha        1 4MR      0.150000
     36 HAB         2.5230   -1.0070    0.5640 ha        1 4MR      0.138000
     37 HAC         2.7450   -0.2890    2.9420 ha        1 4MR      0.137000
     38 HAF         0.7920    0.6940    4.1420 ha        1 4MR      0.138000
     39 HAE        -1.4040    0.9600    2.9600 ha        1 4MR      0.150000
     40 HAM        -3.6060    0.8830   -1.3230 ha        1 4MR      0.157500
     41 HAL        -4.8440   -0.7970   -2.6590 ha        1 4MR      0.159500
     42 HAI        -1.4060   -2.2890    0.6550 ha        1 4MR      0.157500
     43 HAH        -2.6680   -3.9870   -0.6690 ha        1 4MR      0.159500
     44 HNBA       -7.6600   -2.2880   -3.4730 hn        1 4MR      0.358500
     45 HNBE       -6.9750   -4.7680   -0.2900 hn        1 4MR      0.358500
     46 HAR1       -5.0720   -5.0060   -4.8420 h1        1 4MR      0.058700
     47 HAR2       -5.0130   -6.0700   -3.3520 h1        1 4MR      0.058700
     48 HAQ1       -4.0350   -7.0510   -5.4650 h1        1 4MR      0.064200
     49 HAQ2       -2.9660   -7.1150   -3.9810 h1        1 4MR      0.064200
     50 HBC1       -2.1510   -3.0140   -3.4570 h1        1 4MR      0.058700
     51 HBC2       -3.2580   -3.0830   -4.9120 h1        1 4MR      0.058700
     52 HBB1       -1.1660   -4.0180   -5.5520 h1        1 4MR      0.064200
     53 HBB2       -1.0050   -5.0340   -4.0390 h1        1 4MR      0.064200
     54 HAT        -1.6670   -9.4860   -7.8860 h4        1 4MR      0.025100
     55 HAN         0.5600   -8.6170   -8.7990 ha        1 4MR      0.155000
     56 HAO         1.3440   -6.3350   -7.9490 h4        1 4MR      0.025100
@<TRIPOS>BOND
     1    1    2 ar  
     2    1    6 ar  
     3    1   35 1   
     4    2    3 ar  
     5    2   36 1   
     6    3    4 ar  
     7    3   37 1   
     8    4    5 ar  
     9    4   38 1   
    10    5    6 ar  
    11    5   39 1   
    12    6    7 1   
    13    7    8 1   
    14    8    9 ar  
    15    8   11 ar  
    16    9   10 ar  
    17    9   40 1   
    18   10   13 ar  
    19   10   41 1   
    20   11   12 ar  
    21   11   42 1   
    22   12   13 ar  
    23   12   43 1   
    24   13   14 1   
    25   14   15 1   
    26   14   21 1   
    27   14   23 1   
    28   15   16 2   
    29   15   17 1   
    30   17   18 1   
    31   17   44 1   
    32   18   19 2   
    33   18   20 1   
    34   20   21 1   
    35   20   45 1   
    36   21   22 2   
    37   23   24 1   
    38   23   26 1   
    39   24   25 1   
    40   24   46 1   
    41   24   47 1   
    42   25   28 1   
    43   25   48 1   
    44   25   49 1   
    45   26   27 1   
    46   26   50 1   
    47   26   51 1   
    48   27   28 1   
    49   27   52 1   
    50   27   53 1   
    51   28   29 1   
    52   29   30 ar  
    53   29   34 ar  
    54   30   31 ar  
    55   31   32 ar  
    56   31   54 1   
    57   32   33 ar  
    58   32   55 1   
    59   33   34 ar  
    60   33   56 1   
@<TRIPOS>SUBSTRUCTURE
     1 4MR         1 TEMP              0 ****  ****    0 ROOT
