@<TRIPOS>MOLECULE
4MR
   56    60     1     0     0
SMALL
bcc


@<TRIPOS>ATOM
      1 CAA         0.4470   -0.4300    0.4130 ca        1 4MR     -0.144500
      2 CAB         1.6620   -0.5740    1.0800 ca        1 4MR     -0.113000
      3 CAC         1.7880   -0.1670    2.4090 ca        1 4MR     -0.138000
      4 CAF         0.6980    0.3860    3.0820 ca        1 4MR     -0.113000
      5 CAE        -0.5280    0.5330    2.4370 ca        1 4MR     -0.144500
      6 CAD        -0.6400    0.1250    1.1000 ca        1 4MR      0.089100
      7 OAG        -1.8470    0.4180    0.4640 os        1 4MR     -0.246200
      8 CAJ        -2.4380   -0.6040   -0.2640 ca        1 4MR      0.137100
      9 CAM        -3.4050   -0.1860   -1.1940 ca        1 4MR     -0.173500
     10 CAL        -4.1020   -1.1430   -1.9260 ca        1 4MR     -0.073500
     11 CAI        -2.1670   -1.9640   -0.0740 ca        1 4MR     -0.173500
     12 CAH        -2.8730   -2.9070   -0.8150 ca        1 4MR     -0.073500
     13 CAK        -3.8490   -2.5060   -1.7380 ca        1 4MR     -0.148300
     14 CAY        -4.6010   -3.5850   -2.5060 c3        1 4MR      0.167500
     15 CAZ        -5.6800   -2.8920   -3.3910 c         1 4MR      0.687500
     16 OAS        -5.4070   -2.3950   -4.4950 o         1 4MR     -0.581000
     17 NBA        -6.9910   -2.7940   -2.9360 n         1 4MR     -0.594500
     18 CBF        -7.4730   -3.4400   -1.7860 c         1 4MR      0.819500
     19 OBG        -8.6560   -3.2940   -1.4200 o         1 4MR     -0.616500
     20 NBE        -6.5950   -4.2680   -1.0720 n         1 4MR     -0.594500
     21 CBD        -5.2570   -4.4740   -1.4010 c         1 4MR      0.687500
     22 OBH        -4.6240   -5.3220   -0.7580 o         1 4MR     -0.581000
     23 NAX        -3.7020   -4.4280   -3.2970 n3        1 4MR     -0.712600
     24 CAR        -4.3920   -5.4590   -4.0590 c3        1 4MR      0.154300
     25 CAQ        -3.4170   -6.4340   -4.7520 c3        1 4MR      0.203800
     26 CBC        -2.7420   -3.7070   -4.1210 c3        1 4MR      0.154300
     27 CBB        -1.7340   -4.6540   -4.8060 c3        1 4MR      0.203800
     28 NAW        -2.3690   -5.7620   -5.5020 nh        1 4MR     -0.724300
     29 CAV        -1.5380   -6.5750   -6.3140 ca        1 4MR      0.864900
     30 NAU        -2.0180   -7.8240   -6.7050 nb        1 4MR     -0.745000
     31 CAT        -1.2640   -8.5150   -7.5710 ca        1 4MR      0.462200
     32 CAN        -0.0360   -8.0510   -8.0740 ca        1 4MR     -0.417600
     33 CAO         0.3860   -6.7940   -7.6070 ca        1 4MR      0.462200
     34 NAP        -0.3190   -6.0510   -6.7420 nb        1 4MR     -0.745000
     35 HAA         0.3350   -0.7440   -0.6340 ha        1 4MR      0.150000
     36 HAB         2.5250   -1.0070    0.5520 ha        1 4MR      0.138000
     37 HAC         2.7520   -0.2830    2.9280 ha        1 4MR      0.137000
     38 HAF         0.8020    0.7060    4.1290 ha        1 4MR      0.138000
     39 HAE        -1.3960    0.9710    2.9500 ha        1 4MR      0.150000
     40 HAM        -3.6030    0.8860   -1.3310 ha        1 4MR      0.157500
     41 HAL        -4.8430   -0.7940   -2.6630 ha        1 4MR      0.159500
     42 HAI        -1.4060   -2.2840    0.6540 ha        1 4MR      0.157500
     43 HAH        -2.6700   -3.9830   -0.6670 ha        1 4MR      0.159500
     44 HNBA       -7.6590   -2.2840   -3.4770 hn        1 4MR      0.358500
     45 HNBE       -6.9790   -4.7580   -0.2890 hn        1 4MR      0.358500
     46 HAR1       -5.0730   -5.0070   -4.8390 h1        1 4MR      0.058700
     47 HAR2       -5.0170   -6.0690   -3.3470 h1        1 4MR      0.058700
     48 HAQ1       -2.9710   -7.1170   -3.9730 h1        1 4MR      0.064200
     49 HAQ2       -4.0390   -7.0560   -5.4570 h1        1 4MR      0.064200
     50 HBC1       -3.2570   -3.0870   -4.9120 h1        1 4MR      0.058700
     51 HBC2       -2.1510   -3.0160   -3.4570 h1        1 4MR      0.058700
     52 HBB1       -1.1660   -4.0260   -5.5490 h1        1 4MR      0.064200
     53 HBB2       -1.0070   -5.0380   -4.0340 h1        1 4MR      0.064200
     54 HAT        -1.6710   -9.4990   -7.8700 h4        1 4MR      0.025600
     55 HAN         0.5590   -8.6360   -8.7820 ha        1 4MR      0.155000
     56 HAO         1.3450   -6.3520   -7.9360 h4        1 4MR      0.025600
@<TRIPOS>BOND
     1    1    2 ar  
     2    1    6 ar  
     3    1   35 1   
     4    2    3 ar  
     5    2   36 1   
     6    3    4 ar  
     7    3   37 1   
     8    4    5 ar  
     9    4   38 1   
    10    5    6 ar  
    11    5   39 1   
    12    6    7 1   
    13    7    8 1   
    14    8    9 ar  
    15    8   11 ar  
    16    9   10 ar  
    17    9   40 1   
    18   10   13 ar  
    19   10   41 1   
    20   11   12 ar  
    21   11   42 1   
    22   12   13 ar  
    23   12   43 1   
    24   13   14 1   
    25   14   15 1   
    26   14   21 1   
    27   14   23 1   
    28   15   16 2   
    29   15   17 1   
    30   17   18 1   
    31   17   44 1   
    32   18   19 2   
    33   18   20 1   
    34   20   21 1   
    35   20   45 1   
    36   21   22 2   
    37   23   24 1   
    38   23   26 1   
    39   24   25 1   
    40   24   46 1   
    41   24   47 1   
    42   25   28 1   
    43   25   48 1   
    44   25   49 1   
    45   26   27 1   
    46   26   50 1   
    47   26   51 1   
    48   27   28 1   
    49   27   52 1   
    50   27   53 1   
    51   28   29 1   
    52   29   30 ar  
    53   29   34 ar  
    54   30   31 ar  
    55   31   32 ar  
    56   31   54 1   
    57   32   33 ar  
    58   32   55 1   
    59   33   34 ar  
    60   33   56 1   
@<TRIPOS>SUBSTRUCTURE
     1 4MR         1 TEMP              0 ****  ****    0 ROOT
