@<TRIPOS>MOLECULE
4MR
   56    53     1     0     0
SMALL
bcc


@<TRIPOS>ATOM
      1 CAA         2.3540    3.6150    3.3420 c1        1 4MR     -0.158000
      2 CAB         3.6610    3.3370    3.7570 c1        1 4MR     -0.130833
      3 CAC         3.8830    2.6090    4.9340 c1        1 4MR     -0.130833
      4 CAF         2.7950    2.1600    5.6970 c1        1 4MR     -0.130833
      5 CAE         1.4770    2.4420    5.2780 c1        1 4MR     -0.130833
      6 CAD         1.2570    3.1630    4.1100 c1        1 4MR      0.043000
      7 OAG        -0.0690    3.5060    3.7260 os        1 4MR     -0.156000
      8 CAJ        -0.4910    2.6590    2.6510 c2        1 4MR      0.093000
      9 CAM        -0.8230    1.3140    2.9010 c2        1 4MR     -0.193000
     10 CAL        -1.3210    0.5430    1.9050 c1        1 4MR     -0.078000
     11 CAI        -0.6750    3.1900    1.3900 c1        1 4MR     -0.156000
     12 CAH        -1.1810    2.4030    0.3820 c1        1 4MR     -0.068000
     13 CAK        -1.5070    1.0760    0.6340 c1        1 4MR     -0.141000
     14 CAY        -2.2140    0.2370   -0.4520 c3        1 4MR      0.102000
     15 CAZ        -3.1430    1.1520   -1.2450 c2        1 4MR      0.295000
     16 OAS        -2.7130    2.1390   -1.7660 o         1 4MR     -0.305500
     17 NBA        -4.5160    0.8000   -1.4110 n         1 4MR     -0.374000
     18 CBF        -4.9510   -0.5360   -1.1230 c2        1 4MR      0.410000
     19 OBG        -6.0270   -0.9700   -1.6210 o         1 4MR     -0.341000
     20 NBE        -4.1450   -1.3890   -0.2930 n         1 4MR     -0.374000
     21 CBD        -2.9210   -0.9160    0.2230 c2        1 4MR      0.295000
     22 OBH        -2.4450   -1.4210    1.2140 o         1 4MR     -0.305500
     23 NAX        -1.2070   -0.3100   -1.3740 n3        1 4MR     -0.238000
     24 CAR        -1.6680   -1.5690   -1.9050 c3        1 4MR     -0.082500
     25 CAQ        -0.6090   -2.2520   -2.7720 c3        1 4MR     -0.033500
     26 CBC         0.0720   -0.4250   -0.6990 c3        1 4MR     -0.082500
     27 CBB         1.1310   -1.1180   -1.5700 c3        1 4MR     -0.033500
     28 NAW         0.6740   -2.3620   -2.0960 n3        1 4MR     -0.215000
     29 CAV         1.6710   -2.9000   -3.0180 c2        1 4MR      0.146000
     30 NAU         1.8220   -2.3550   -4.2520 n2        1 4MR     -0.219000
     31 CAT         2.6860   -2.8980   -5.1230 c1        1 4MR     -0.003000
     32 CAN         3.4110   -3.9950   -4.7690 c1        1 4MR     -0.130833
     33 CAO         3.2570   -4.5450   -3.5210 c1        1 4MR     -0.130833
     34 NAP         2.4030   -4.0080   -2.6610 n1        1 4MR     -0.218000
     35 HAA         2.1910    4.1490    2.4790 ha        1 4MR      0.148000
     36 HAB         4.4630    3.6680    3.1950 ha        1 4MR      0.147000
     37 HAC         4.8010    2.4140    5.2240 ha        1 4MR      0.147000
     38 HAF         2.9530    1.6410    6.5370 ha        1 4MR      0.147000
     39 HAE         0.7210    2.1300    5.8080 ha        1 4MR      0.147000
     40 HAM        -0.6920    0.9250    3.8160 ha        1 4MR      0.156000
     41 HAL        -1.5410   -0.3530    2.0730 ha        1 4MR      0.146000
     42 HAI        -0.4590    4.0720    1.2240 ha        1 4MR      0.159000
     43 HAH        -1.3090    2.7660   -0.4870 ha        1 4MR      0.173000
     44 HNBA       -5.1250    1.4290   -1.7610 hn        1 4MR      0.271500
     45 HNBE       -4.4320   -2.1990   -0.0800 hn        1 4MR      0.271500
     46 HAR1       -2.4530   -1.4120   -2.4400 h1        1 4MR      0.097750
     47 HAR2       -1.9180   -2.1940   -1.1230 h1        1 4MR      0.097750
     48 HAQ1       -0.4870   -1.7050   -3.6390 h1        1 4MR      0.104000
     49 HAQ2       -0.9330   -3.1910   -3.0150 h1        1 4MR      0.104000
     50 HBC1       -0.0490   -0.9450    0.1390 h1        1 4MR      0.097750
     51 HBC2        0.3990    0.4880   -0.4700 h1        1 4MR      0.097750
     52 HBB1        1.3710   -0.5210   -2.3230 h1        1 4MR      0.104000
     53 HBB2        1.9620   -1.2850   -1.0040 h1        1 4MR      0.104000
     54 HAT         2.7920   -2.5190   -5.9850 ha        1 4MR      0.162000
     55 HAN         4.0220   -4.3790   -5.3850 ha        1 4MR      0.147000
     56 HAO         3.7930   -5.3560   -3.2580 ha        1 4MR      0.147000
@<TRIPOS>BOND
     1    1    6 1   
     2    1   35 1   
     3    2    3 1   
     4    2   36 1   
     5    3   37 1   
     6    4    5 1   
     7    4   38 1   
     8    5   39 1   
     9    6    7 1   
    10    7    8 1   
    11    8    9 1   
    12    8   11 1   
    13    9   10 1   
    14    9   40 1   
    15   10   41 1   
    16   11   42 1   
    17   12   13 1   
    18   12   43 1   
    19   13   14 1   
    20   14   15 1   
    21   14   21 1   
    22   14   23 1   
    23   15   16 1   
    24   15   17 1   
    25   17   18 1   
    26   17   44 1   
    27   18   19 1   
    28   18   20 1   
    29   20   21 1   
    30   20   45 1   
    31   21   22 1   
    32   23   24 1   
    33   23   26 1   
    34   24   25 1   
    35   24   46 1   
    36   24   47 1   
    37   25   28 1   
    38   25   48 1   
    39   25   49 1   
    40   26   27 1   
    41   26   50 1   
    42   26   51 1   
    43   27   28 1   
    44   27   52 1   
    45   27   53 1   
    46   28   29 1   
    47   29   30 1   
    48   29   34 1   
    49   30   31 1   
    50   31   54 1   
    51   32   33 1   
    52   32   55 1   
    53   33   56 1   
@<TRIPOS>SUBSTRUCTURE
     1 4MR         1 TEMP              0 ****  ****    0 ROOT
