@<TRIPOS>MOLECULE
4MR
   56    60     1     0     0
SMALL
bcc


@<TRIPOS>ATOM
      1 CAA        -3.1430    2.5440   -3.8900 ca        1 4MR     -0.144500
      2 CAB        -4.5020    2.5050   -3.5830 ca        1 4MR     -0.113000
      3 CAC        -5.4530    2.4570   -4.6040 ca        1 4MR     -0.138000
      4 CAF        -5.0500    2.4450   -5.9390 ca        1 4MR     -0.113000
      5 CAE        -3.6970    2.4770   -6.2690 ca        1 4MR     -0.144500
      6 CAD        -2.7530    2.5300   -5.2340 ca        1 4MR      0.089100
      7 OAG        -1.4220    2.6960   -5.6200 os        1 4MR     -0.246200
      8 CAJ        -0.4870    1.8620   -5.0260 ca        1 4MR      0.137100
      9 CAM         0.8450    2.3000   -5.1240 ca        1 4MR     -0.173500
     10 CAL         1.8630    1.5000   -4.6160 ca        1 4MR     -0.073500
     11 CAI        -0.7950    0.6390   -4.4190 ca        1 4MR     -0.173500
     12 CAH         0.2360   -0.1490   -3.9160 ca        1 4MR     -0.073500
     13 CAK         1.5700    0.2700   -4.0160 ca        1 4MR     -0.148300
     14 CAY         2.6560   -0.6440   -3.4650 c3        1 4MR      0.167500
     15 CAZ         4.0400   -0.0010   -3.7770 c         1 4MR      0.687500
     16 OAS         4.5280    0.8920   -3.0660 o         1 4MR     -0.581000
     17 NBA         4.7560   -0.4090   -4.8980 n         1 4MR     -0.594500
     18 CBF         4.4020   -1.5060   -5.6990 c         1 4MR      0.819500
     19 OBG         5.0770   -1.8060   -6.7040 o         1 4MR     -0.616500
     20 NBE         3.2850   -2.2660   -5.3280 n         1 4MR     -0.594500
     21 CBD         2.4690   -1.9920   -4.2320 c         1 4MR      0.687500
     22 OBH         1.5850   -2.8100   -3.9460 o         1 4MR     -0.581000
     23 NAX         2.4830   -0.9040   -2.0330 n3        1 4MR     -0.712600
     24 CAR         3.5170   -1.7600   -1.4690 c3        1 4MR      0.154300
     25 CAQ         3.2250   -2.1540   -0.0060 c3        1 4MR      0.203800
     26 CBC         2.2600    0.2770   -1.2110 c3        1 4MR      0.154300
     27 CBB         1.9370   -0.0860    0.2530 c3        1 4MR      0.203800
     28 NAW         2.8880   -1.0180    0.8370 nh        1 4MR     -0.724300
     29 CAV         2.7800   -1.2620    2.2300 ca        1 4MR      0.864900
     30 NAU         3.4190   -2.3850    2.7530 nb        1 4MR     -0.745000
     31 CAT         3.4040   -2.5210    4.0870 ca        1 4MR      0.462200
     32 CAN         2.7740   -1.6100    4.9530 ca        1 4MR     -0.417600
     33 CAO         2.1320   -0.5200    4.3390 ca        1 4MR      0.462200
     34 NAP         2.1090   -0.3250    3.0130 nb        1 4MR     -0.745000
     35 HAA        -2.3840    2.5850   -3.0950 ha        1 4MR      0.150000
     36 HAB        -4.8230    2.5170   -2.5310 ha        1 4MR      0.138000
     37 HAC        -6.5240    2.4290   -4.3540 ha        1 4MR      0.137000
     38 HAF        -5.8030    2.4080   -6.7410 ha        1 4MR      0.138000
     39 HAE        -3.3630    2.4730   -7.3160 ha        1 4MR      0.150000
     40 HAM         1.0680    3.2650   -5.6010 ha        1 4MR      0.157500
     41 HAL         2.8990    1.8700   -4.6860 ha        1 4MR      0.159500
     42 HAI        -1.8400    0.3030   -4.3430 ha        1 4MR      0.157500
     43 HAH         0.0030   -1.1190   -3.4420 ha        1 4MR      0.159500
     44 HNBA        5.6080    0.0610   -5.1300 hn        1 4MR      0.358500
     45 HNBE        3.0880   -3.0740   -5.8840 hn        1 4MR      0.358500
     46 HAR1        4.5320   -1.2670   -1.5200 h1        1 4MR      0.058700
     47 HAR2        3.5520   -2.7160   -2.0660 h1        1 4MR      0.058700
     48 HAQ1        2.3950   -2.9170    0.0060 h1        1 4MR      0.064200
     49 HAQ2        4.1630   -2.6410    0.3840 h1        1 4MR      0.064200
     50 HBC1        1.3700    0.8320   -1.6210 h1        1 4MR      0.058700
     51 HBC2        3.1510    0.9700   -1.2300 h1        1 4MR      0.058700
     52 HBB1        1.9650    0.8820    0.8310 h1        1 4MR      0.064200
     53 HBB2        0.8900   -0.5030    0.3070 h1        1 4MR      0.064200
     54 HAT         3.9230   -3.4170    4.4760 h4        1 4MR      0.025100
     55 HAN         2.7790   -1.7440    6.0380 ha        1 4MR      0.155000
     56 HAO         1.5980    0.2420    4.9380 h4        1 4MR      0.025100
@<TRIPOS>BOND
     1    1    2 ar  
     2    1    6 ar  
     3    1   35 1   
     4    2    3 ar  
     5    2   36 1   
     6    3    4 ar  
     7    3   37 1   
     8    4    5 ar  
     9    4   38 1   
    10    5    6 ar  
    11    5   39 1   
    12    6    7 1   
    13    7    8 1   
    14    8    9 ar  
    15    8   11 ar  
    16    9   10 ar  
    17    9   40 1   
    18   10   13 ar  
    19   10   41 1   
    20   11   12 ar  
    21   11   42 1   
    22   12   13 ar  
    23   12   43 1   
    24   13   14 1   
    25   14   15 1   
    26   14   21 1   
    27   14   23 1   
    28   15   16 2   
    29   15   17 1   
    30   17   18 1   
    31   17   44 1   
    32   18   19 2   
    33   18   20 1   
    34   20   21 1   
    35   20   45 1   
    36   21   22 2   
    37   23   24 1   
    38   23   26 1   
    39   24   25 1   
    40   24   46 1   
    41   24   47 1   
    42   25   28 1   
    43   25   48 1   
    44   25   49 1   
    45   26   27 1   
    46   26   50 1   
    47   26   51 1   
    48   27   28 1   
    49   27   52 1   
    50   27   53 1   
    51   28   29 1   
    52   29   30 ar  
    53   29   34 ar  
    54   30   31 ar  
    55   31   32 ar  
    56   31   54 1   
    57   32   33 ar  
    58   32   55 1   
    59   33   34 ar  
    60   33   56 1   
@<TRIPOS>SUBSTRUCTURE
     1 4MR         1 TEMP              0 ****  ****    0 ROOT
