@<TRIPOS>MOLECULE
4MS
   62    65     1     0     0
SMALL
bcc


@<TRIPOS>ATOM
      1 C4         -4.0540   -2.0030    0.2640 ca        1 4MS     -0.089000
      2 C5         -4.5830   -2.8600   -0.6920 ca        1 4MS     -0.159000
      3 C6         -5.6990   -0.3240   -0.3070 ca        1 4MS     -0.097000
      4 C7          1.3510   -0.4900   -0.0860 ca        1 4MS     -0.167900
      5 C8         -4.6090   -0.7340    0.4620 ca        1 4MS     -0.142300
      6 C10        -5.6850   -2.4550   -1.4720 ca        1 4MS      0.144900
      7 C13         0.5350    0.7390   -0.3750 ce        1 4MS      0.748200
      8 C15        -1.6520    1.9210   -0.6050 c2        1 4MS      0.250900
      9 C17        -3.0340    1.9590    0.0700 c3        1 4MS      0.104900
     10 C21         8.3730    0.2020   -0.1900 c3        1 4MS     -0.362300
     11 C22        -4.0490    0.1710    1.5250 c3        1 4MS      0.123300
     12 C24        -3.3990    3.3930    0.5450 c3        1 4MS     -0.037000
     13 C12        -6.2450   -1.1730   -1.2740 ca        1 4MS     -0.026600
     14 F34        -6.1840   -3.3050   -2.3970 f         1 4MS     -0.120900
     15 N26        -2.9050    0.9630    1.1440 n         1 4MS     -0.443800
     16 C19        -4.5920    3.3590    1.4890 c3        1 4MS     -0.095767
     17 C18        -2.2220    4.0450    1.2520 c3        1 4MS     -0.095767
     18 C16        -1.6250    0.3320    1.0800 c         1 4MS      0.723700
     19 O28        -1.2910   -0.5630    1.8660 o         1 4MS     -0.608500
     20 C14        -0.8360    0.9700   -0.0110 ce        1 4MS     -0.428800
     21 C2          0.9970   -1.6830    0.5080 ca        1 4MS     -0.056000
     22 N25         1.2170    1.6310   -1.0500 nf        1 4MS     -0.817300
     23 S35         2.7910    1.2360   -1.3740 sy        1 4MS      1.477700
     24 O29         3.7390    2.0410   -0.7100 o         1 4MS     -0.638800
     25 O30         3.0350    1.0580   -2.7480 o         1 4MS     -0.638800
     26 C11         2.6760   -0.2920   -0.5810 ca        1 4MS     -0.321500
     27 C9          3.6350   -1.2690   -0.4010 ca        1 4MS      0.026700
     28 C3          3.2810   -2.4750    0.2370 ca        1 4MS     -0.108000
     29 C1          1.9800   -2.6780    0.6690 ca        1 4MS     -0.096000
     30 C23         5.0470   -1.0600   -0.8900 c3        1 4MS      0.246100
     31 N27         5.8010   -0.1400   -0.0910 n3        1 4MS     -0.926100
     32 S36         7.1380   -0.5300    0.7250 s6        1 4MS      1.468900
     33 O31         7.3350   -1.9300    0.6870 o         1 4MS     -0.658300
     34 O32         7.1350    0.0720    1.9980 o         1 4MS     -0.658300
     35 H4         -3.1920   -2.3200    0.8740 ha        1 4MS      0.156000
     36 H5         -4.1550   -3.8610   -0.8520 ha        1 4MS      0.159000
     37 H6         -6.1400    0.6740   -0.1470 ha        1 4MS      0.150000
     38 H17        -3.8170    1.6300   -0.6780 h1        1 4MS      0.089700
     39 H20        -4.6590    3.7570   -1.2000 hc        1 4MS      0.045700
     40 H20A       -4.0740    5.2490   -0.3530 hc        1 4MS      0.045700
     41 H20B       -2.9390    4.3030   -1.3960 hc        1 4MS      0.045700
     42 H21         8.2270    1.2990   -0.3450 h1        1 4MS      0.114700
     43 H21A        9.3570    0.0920    0.3330 h1        1 4MS      0.114700
     44 H21B        8.5020   -0.2520   -1.2020 h1        1 4MS      0.114700
     45 H22        -4.8580    0.8750    1.8720 h1        1 4MS      0.083200
     46 H22A       -3.7270   -0.4580    2.4080 h1        1 4MS      0.083200
     47 H19        -4.3160    2.8990    2.4680 hc        1 4MS      0.045700
     48 H19A       -4.9410    4.4030    1.6850 hc        1 4MS      0.045700
     49 H19B       -5.4360    2.7880    1.0340 hc        1 4MS      0.045700
     50 H18        -1.3570    4.1520    0.5530 hc        1 4MS      0.045700
     51 H18A       -2.5140    5.0620    1.6090 hc        1 4MS      0.045700
     52 H18B       -1.9040    3.4380    2.1330 hc        1 4MS      0.045700
     53 HO33       -0.5080    2.6700   -1.9400 ho        1 4MS      0.487000
     54 H2         -0.0260   -1.8790    0.8670 ha        1 4MS      0.175000
     55 H3          4.0470   -3.2530    0.3900 ha        1 4MS      0.157000
     56 H1          1.7030   -3.6260    1.1570 ha        1 4MS      0.147000
     57 H23         5.5830   -2.0560   -0.9090 h1        1 4MS      0.077700
     58 H23A        4.9900   -0.6770   -1.9550 h1        1 4MS      0.077700
     59 HN27        5.3950    0.7710   -0.0300 hn        1 4MS      0.476800
     60 CL37       -7.5690   -0.6360   -2.1860 cl        1 4MS     -0.061400
     61 O33        -1.4400    2.7290   -1.6430 oh        1 4MS     -0.444100
     62 C20        -3.7880    4.2190   -0.6760 c3        1 4MS     -0.095767
@<TRIPOS>BOND
     1    1    2 ar  
     2    1    5 ar  
     3    1   35 1   
     4    2    6 ar  
     5    2   36 1   
     6    3    5 ar  
     7    3   13 ar  
     8    3   37 1   
     9    4    7 1   
    10    4   21 ar  
    11    4   26 ar  
    12    5   11 1   
    13    6   13 ar  
    14    6   14 1   
    15    7   20 1   
    16    7   22 2   
    17    8    9 1   
    18    8   20 2   
    19    8   61 1   
    20    9   12 1   
    21    9   15 1   
    22    9   38 1   
    23   10   32 1   
    24   10   42 1   
    25   10   43 1   
    26   10   44 1   
    27   11   15 1   
    28   11   45 1   
    29   11   46 1   
    30   12   16 1   
    31   12   17 1   
    32   12   62 1   
    33   13   60 1   
    34   15   18 1   
    35   16   47 1   
    36   16   48 1   
    37   16   49 1   
    38   17   50 1   
    39   17   51 1   
    40   17   52 1   
    41   18   19 2   
    42   18   20 1   
    43   21   29 ar  
    44   21   54 1   
    45   22   23 1   
    46   23   24 2   
    47   23   25 2   
    48   23   26 1   
    49   26   27 ar  
    50   27   28 ar  
    51   27   30 1   
    52   28   29 ar  
    53   28   55 1   
    54   29   56 1   
    55   30   31 1   
    56   30   57 1   
    57   30   58 1   
    58   31   32 1   
    59   31   59 1   
    60   32   33 2   
    61   32   34 2   
    62   39   62 1   
    63   40   62 1   
    64   41   62 1   
    65   53   61 1   
@<TRIPOS>SUBSTRUCTURE
     1 4MS         1 TEMP              0 ****  ****    0 ROOT
