@<TRIPOS>MOLECULE
4MS
   63    64     1     0     0
SMALL
bcc


@<TRIPOS>ATOM
      1 C4          0.0290    1.1530    0.8700 c1        1 4MS     -0.022000
      2 C5          0.2070   -0.0710    0.1280 c3        1 4MS     -0.245000
      3 C6         -0.1840   -0.1260    3.0020 c2        1 4MS     -0.066000
      4 C7         -1.1150   -5.1230   -1.1920 c2        1 4MS     -0.138000
      5 C8         -0.1130    1.1430    2.2900 c2        1 4MS     -0.212000
      6 C10         0.2660   -1.4200    0.8930 c3        1 4MS      0.267000
      7 C13        -2.4320   -4.3860   -1.1880 c2        1 4MS      0.314000
      8 C15        -4.1780   -2.8530   -0.1550 cx        1 4MS      0.105000
      9 C17        -4.0630   -1.5420    0.7080 cx        1 4MS      0.002000
     10 C21        -4.6570   -9.2870   -1.5480 c3        1 4MS     -0.971000
     11 C22        -0.1720    2.3290    2.9440 c2        1 4MS      0.036000
     12 C24        -4.9300   -1.1110    1.8120 c2        1 4MS     -0.184000
     13 C12        -0.0470   -1.3080    2.3710 c2        1 4MS     -0.212000
     14 F34         1.4600   -2.0690    0.6660 f         1 4MS     -0.116000
     15 N26        -2.6330   -1.2860    0.8600 n7        1 4MS     -0.260000
     16 C19        -4.5640   -3.0830    3.3150 c3        1 4MS     -0.208000
     17 C18        -5.1470   -1.7800    2.9480 c2        1 4MS     -0.096000
     18 C16        -1.9290   -2.3350    0.2780 c2        1 4MS      0.295000
     19 O28        -0.5780   -2.4090    0.2260 os        1 4MS     -0.229000
     20 C14        -2.7560   -3.2700   -0.3860 c2        1 4MS     -0.295000
     21 C2         -0.2430   -5.1440   -0.1820 c2        1 4MS     -0.086000
     22 N25        -3.2940   -4.9290   -2.0360 n2        1 4MS     -0.777000
     23 S35        -2.7100   -6.1230   -2.9320 s6        1 4MS      2.751000
     24 O29        -2.7870   -6.0010   -4.3520 o         1 4MS     -1.018500
     25 O30        -3.2250   -7.4510   -2.6450 o         1 4MS     -1.018500
     26 C11        -1.0870   -5.9780   -2.3870 c2        1 4MS     -0.819000
     27 C9         -0.0010   -6.4740   -3.0010 c2        1 4MS      0.141000
     28 C3          1.3690   -6.2360   -2.6390 c2        1 4MS     -0.512000
     29 C1          2.4370   -6.9520   -2.9410 c1        1 4MS      0.305000
     30 C23        -4.4530   -9.1890   -4.2500 c2        1 4MS     -0.429000
     31 N27        -3.9860   -8.4330   -5.1780 n8        1 4MS     -0.049000
     32 S36        -5.4850   -8.6140   -2.8050 s6        1 4MS      2.853000
     33 O31        -6.6430   -9.3330   -3.0620 o         1 4MS     -0.893500
     34 O32        -5.5510   -7.2410   -2.9170 o         1 4MS     -0.893500
     35 H4         -0.6120   -0.1210   -0.6490 hc        1 4MS      0.179000
     36 H5          1.1730    0.0450   -0.4530 hc        1 4MS      0.179000
     37 H6         -0.3630   -0.0870    4.0920 ha        1 4MS      0.160000
     38 H17        -2.3040   -0.8410    1.6870 hn        1 4MS      0.249000
     39 H20        -4.0180   -1.0650   -1.5340 hc        1 4MS      0.136000
     40 H20A       -5.4350   -0.1470    1.6240 ha        1 4MS      0.142000
     41 H20B       -5.6900   -1.3270   -0.8140 hc        1 4MS      0.136000
     42 H21        -3.5760   -9.5210   -1.7530 h1        1 4MS      0.195667
     43 H21A       -4.5970   -8.5910   -0.6640 h1        1 4MS      0.195667
     44 H21B       -5.1190  -10.2390   -1.1710 h1        1 4MS      0.195667
     45 H22        -0.2660    2.3960    4.0390 ha        1 4MS      0.145000
     46 H22A       -0.1190    3.2830    2.3940 ha        1 4MS      0.145000
     47 H19        -4.1910   -3.6350    2.4150 hc        1 4MS      0.094667
     48 H19A       -3.7140   -2.9380    4.0290 hc        1 4MS      0.094667
     49 H19B       -5.3340   -3.7200    3.8200 hc        1 4MS      0.094667
     50 H18        -7.0320   -0.2360    5.3360 ha        1 4MS      0.001000
     51 H18A       -5.8350   -1.3490    3.7010 ha        1 4MS      0.135000
     52 H18B       -7.5190   -0.6780    5.1790 ha        1 4MS      0.001000
     53 HO33       -5.4700   -4.1310   -0.7000 ho        1 4MS      0.235000
     54 H2         -0.3640   -4.5330    0.7250 ha        1 4MS      0.141500
     55 H3          1.5610   -5.3080   -2.0440 ha        1 4MS      0.219000
     56 H1          0.6470   -5.7900   -0.1930 ha        1 4MS      0.141500
     57 H23        -0.1450   -7.1110   -3.8980 ha        1 4MS      0.132000
     58 H23A       -4.3100  -10.2900   -4.3180 h5        1 4MS      0.192000
     59 HN27       -4.0480   -7.4130   -5.1190 hn        1 4MS      0.289000
     60 Cl37       -0.1490   -2.7620    3.2430 cl        1 4MS      0.020000
     61 C20        -4.6040   -1.5200   -0.7160 cx        1 4MS     -0.190000
     62 H272       -3.4690   -8.7880   -5.9630 hn        1 4MS      0.289000
     63 O33        -5.0960   -3.8370    0.1460 oh        1 4MS     -0.269000
@<TRIPOS>BOND
     1    1    2 1   
     2    1    5 1   
     3    2    6 1   
     4    2   35 1   
     5    2   36 1   
     6    3    5 1   
     7    3   13 1   
     8    3   37 1   
     9    4    7 1   
    10    4   21 1   
    11    4   26 1   
    12    5   11 1   
    13    6   13 1   
    14    6   14 1   
    15    6   19 1   
    16    7   20 1   
    17    7   22 1   
    18    8    9 1   
    19    8   20 1   
    20    8   61 1   
    21    8   63 1   
    22    9   12 1   
    23    9   15 1   
    24    9   61 1   
    25   10   32 1   
    26   10   42 1   
    27   10   43 1   
    28   10   44 1   
    29   11   45 1   
    30   11   46 1   
    31   12   17 1   
    32   12   40 1   
    33   13   60 1   
    34   15   18 1   
    35   15   38 1   
    36   16   17 1   
    37   16   47 1   
    38   16   48 1   
    39   16   49 1   
    40   17   51 1   
    41   18   19 1   
    42   18   20 1   
    43   21   54 1   
    44   21   56 1   
    45   22   23 1   
    46   23   24 1   
    47   23   25 1   
    48   23   26 1   
    49   26   27 1   
    50   27   28 1   
    51   27   57 1   
    52   28   29 1   
    53   28   55 1   
    54   30   31 1   
    55   30   32 1   
    56   30   58 1   
    57   31   59 1   
    58   31   62 1   
    59   32   33 1   
    60   32   34 1   
    61   39   61 1   
    62   41   61 1   
    63   50   52 1   
    64   53   63 1   
@<TRIPOS>SUBSTRUCTURE
     1 4MS         1 TEMP              0 ****  ****    0 ROOT
