@<TRIPOS>MOLECULE
4MS
   62    56     1     0     0
SMALL
bcc


@<TRIPOS>ATOM
      1 C4          4.3030    3.7290   -0.5350 c1        1 4MS     -0.087000
      2 C5          5.6700    3.6770   -0.9050 c1        1 4MS     -0.157000
      3 C6          4.8250    2.6310    1.5480 c1        1 4MS     -0.097000
      4 C7         -0.6370   -1.2950   -1.3340 c1        1 4MS     -0.088000
      5 C8          3.8870    3.2110    0.6790 c1        1 4MS     -0.138000
      6 C10         6.6040    3.1020   -0.0450 c1        1 4MS      0.112000
      7 C13         0.2550   -1.0920   -0.0510 c1        1 4MS      0.285000
      8 C15         0.0020    0.6500    1.7010 c1        1 4MS      0.210000
      9 C17         0.7550    1.6420    2.3900 c2        1 4MS      0.022000
     10 C20        -1.3000    2.0940    3.7750 c3        1 4MS     -0.212667
     11 C21        -6.3010   -5.4480   -3.3580 c3        1 4MS     -0.946000
     12 C22         2.3850    3.3760    1.1210 c3        1 4MS     -0.002000
     13 C24        -0.1440    2.7230    2.8720 c3        1 4MS     -0.037000
     14 CL37        7.4240    1.7610    2.2690 cl        1 4MS      0.016000
     15 C12         6.1990    2.5800    1.1740 c1        1 4MS     -0.107000
     16 F34         7.8380    3.2860   -0.4790 f         1 4MS     -0.085000
     17 N26         1.7770    2.0860    1.2510 n         1 4MS     -0.298000
     18 C19         0.6740    3.7430    3.7160 c3        1 4MS     -0.212667
     19 C18        -0.7400    3.4130    1.7220 c3        1 4MS     -0.212667
     20 O33        -0.7650   -0.3170    2.4520 oh        1 4MS     -0.198000
     21 C16         1.5840    1.0540    0.1200 c2        1 4MS      0.358000
     22 O28         2.0420    1.1480   -1.0720 o         1 4MS     -0.335000
     23 C14         0.4820    0.3250    0.5120 c2        1 4MS     -0.323000
     24 C2         -1.0000   -0.5020   -2.4010 c1        1 4MS     -0.055000
     25 N25         0.3640   -2.1710    0.7620 n1        1 4MS     -0.793000
     26 S35        -0.3780   -3.4070    0.2940 ss        1 4MS      2.749000
     27 O29         0.4620   -4.5490    0.0360 o         1 4MS     -0.917000
     28 O30        -1.4630   -3.8420    1.1720 o         1 4MS     -0.917000
     29 C11        -1.0940   -2.7430   -1.2750 c1        1 4MS     -0.763000
     30 C9         -1.8690   -3.2580   -2.2840 c1        1 4MS      0.025000
     31 C3         -2.2460   -2.4240   -3.3960 c1        1 4MS     -0.104500
     32 C1         -1.8080   -1.0400   -3.4520 c1        1 4MS     -0.104500
     33 C23        -2.2910   -4.6950   -2.6330 c3        1 4MS      0.002000
     34 N27        -3.7350   -4.8280   -2.4830 n3        1 4MS     -0.893000
     35 S36        -4.5930   -5.7300   -3.5650 s6        1 4MS      2.824000
     36 O31        -4.2780   -7.1390   -3.4510 o         1 4MS     -0.937000
     37 O32        -4.1810   -5.4590   -4.9080 o         1 4MS     -0.937000
     38 H4          3.6720    4.1200   -1.1190 ha        1 4MS      0.162000
     39 H5          5.9510    4.0360   -1.7420 ha        1 4MS      0.161000
     40 H6          4.5170    2.2380    2.4660 ha        1 4MS      0.149000
     41 H17         1.2230    1.3830    3.2280 h4        1 4MS      0.133000
     42 H20        -1.6300    2.7860    4.4250 hc        1 4MS      0.084333
     43 H20A       -0.9380    1.3050    4.2810 hc        1 4MS      0.084333
     44 H20B       -2.0790    1.7880    3.1750 hc        1 4MS      0.084333
     45 H21        -6.4780   -4.4390   -3.3060 h1        1 4MS      0.155000
     46 H21A       -6.7970   -5.8310   -4.1340 h1        1 4MS      0.155000
     47 H21B       -6.6240   -5.9060   -2.4810 h1        1 4MS      0.155000
     48 H22         1.8730    3.9290    0.4030 h1        1 4MS      0.121500
     49 H22A        2.3480    3.8370    1.9660 h1        1 4MS      0.121500
     50 H19         1.5340    3.2870    4.0720 hc        1 4MS      0.084333
     51 H19A        0.9220    4.5220    3.1450 hc        1 4MS      0.084333
     52 H19B        0.1380    4.0490    4.4620 hc        1 4MS      0.084333
     53 H18        -1.2990    4.2170    2.0540 hc        1 4MS      0.084333
     54 H18A        0.0120    3.7490    1.0990 hc        1 4MS      0.084333
     55 H18B       -1.3080    2.8070    1.2420 hc        1 4MS      0.084333
     56 HO33       -0.1590   -0.8380    3.0270 ho        1 4MS      0.286000
     57 H2         -0.6950    0.4520   -2.4410 ha        1 4MS      0.175000
     58 H3         -2.7760   -2.7740   -4.0860 ha        1 4MS      0.153000
     59 H1         -2.0790   -0.4460   -4.2500 ha        1 4MS      0.153000
     60 H23        -1.8200   -5.3530   -2.0070 h1        1 4MS      0.123500
     61 H23A       -2.0460   -4.8880   -3.5350 h1        1 4MS      0.123500
     62 HN27       -4.1690   -4.3250   -1.8820 hn        1 4MS      0.267000
@<TRIPOS>BOND
     1    1    5 1   
     2    1   38 1   
     3    2    6 1   
     4    2   39 1   
     5    3   15 1   
     6    3   40 1   
     7    4   24 1   
     8    4   29 1   
     9    5   12 1   
    10    6   16 1   
    11    7   23 1   
    12    7   25 1   
    13    8   20 1   
    14    8   23 1   
    15    9   13 1   
    16    9   17 1   
    17    9   41 1   
    18   10   13 1   
    19   10   42 1   
    20   10   43 1   
    21   10   44 1   
    22   11   35 1   
    23   11   45 1   
    24   11   46 1   
    25   11   47 1   
    26   12   17 1   
    27   12   48 1   
    28   12   49 1   
    29   13   18 1   
    30   13   19 1   
    31   14   15 1   
    32   17   21 1   
    33   18   50 1   
    34   18   51 1   
    35   18   52 1   
    36   19   53 1   
    37   19   54 1   
    38   19   55 1   
    39   20   56 1   
    40   21   22 1   
    41   21   23 1   
    42   24   57 1   
    43   26   27 1   
    44   26   28 1   
    45   29   30 1   
    46   30   33 1   
    47   31   32 1   
    48   31   58 1   
    49   32   59 1   
    50   33   34 1   
    51   33   60 1   
    52   33   61 1   
    53   34   35 1   
    54   34   62 1   
    55   35   36 1   
    56   35   37 1   
@<TRIPOS>SUBSTRUCTURE
     1 4MS         1 TEMP              0 ****  ****    0 ROOT
