@<TRIPOS>MOLECULE
4MS
   63    62     1     0     0
SMALL
bcc


@<TRIPOS>ATOM
      1 C4          1.2080   -0.6750   -2.7710 c1        1 4MS     -0.014000
      2 C5          0.7340   -0.0360   -3.9800 c3        1 4MS     -0.246000
      3 C6         -1.0780   -1.5450   -2.3290 c2        1 4MS      0.231000
      4 C7         -2.6420   -6.1460    0.7930 c2        1 4MS     -0.136000
      5 C8          0.2910   -1.3900   -1.9500 c2        1 4MS     -0.289000
      6 C10        -0.7220   -0.1770   -4.3090 c2        1 4MS      0.262000
      7 C13        -2.2690   -4.6860    0.6690 c2        1 4MS      0.278000
      8 C15        -3.2960   -3.8450    2.8570 c2        1 4MS      0.296000
      9 C17        -3.4440   -2.4180    3.4550 c3        1 4MS     -0.007000
     10 C21        -3.0300   -5.9540   -4.4570 c3        1 4MS     -0.948000
     11 C22         0.7470   -1.9180   -0.7590 c2        1 4MS      0.208000
     12 C24        -4.8800   -2.0910    3.7710 c2        1 4MS     -0.145000
     13 C12        -1.5750   -0.9220   -3.4890 c2        1 4MS     -0.250000
     14 F34        -1.1520    0.4360   -5.4080 f         1 4MS     -0.022000
     15 N26        -2.7640   -1.5510    2.5020 n         1 4MS     -0.354000
     16 C19        -8.9140   -1.3750    4.9330 c3        1 4MS     -0.271000
     17 C18        -5.5860   -2.8970    4.5720 c2        1 4MS     -0.192000
     18 C16        -2.3960   -2.2550    1.3500 c2        1 4MS      0.385000
     19 O28        -1.8950   -1.6670    0.3650 o         1 4MS     -0.464000
     20 C14        -2.6560   -3.7000    1.5460 c2        1 4MS     -0.367000
     21 C2         -3.7640   -6.6200    1.3390 c2        1 4MS     -0.090000
     22 N25        -1.4700   -4.5010   -0.4180 n2        1 4MS     -0.910000
     23 S35        -0.9980   -5.8240   -1.1060 s6        1 4MS      2.743000
     24 O29         0.4170   -6.0260   -1.2810 o         1 4MS     -1.058500
     25 O30        -1.5320   -6.1020   -2.4530 o         1 4MS     -1.058500
     26 C11        -1.6710   -6.9300    0.0140 c2        1 4MS     -0.804000
     27 C9         -1.3210   -8.2090    0.2180 c2        1 4MS      0.130000
     28 C3         -1.8020   -9.0610    1.2710 c2        1 4MS     -0.506000
     29 C1         -1.7870  -10.3790    1.3420 c1        1 4MS      0.288000
     30 C23        -0.4390   -6.8510   -4.6010 c2        1 4MS     -0.410000
     31 N27         0.6380   -6.9860   -3.9130 n3        1 4MS     -0.055000
     32 S36        -1.5160   -5.3380   -4.7030 s6        1 4MS      2.867000
     33 O31        -1.3390   -5.0830   -6.0640 o         1 4MS     -0.923500
     34 O32        -1.0080   -4.3430   -3.8850 o         1 4MS     -0.923500
     35 H4          0.9990    1.0680   -3.9140 hc        1 4MS      0.212000
     36 H5          1.3530   -0.4290   -4.8480 hc        1 4MS      0.212000
     37 H6         -1.7590   -2.1600   -1.6880 ha        1 4MS      0.247000
     38 H17        -2.8590   -2.3870    4.4250 h1        1 4MS      0.136000
     39 H20        -4.8840    0.0500    3.5750 hc        1 4MS      0.085333
     40 H20A        0.0700   -2.4560   -0.0620 ha        1 4MS      0.186500
     41 H20B       -5.4430   -0.8550    2.1010 hc        1 4MS      0.085333
     42 H21        -3.6240   -6.0360   -5.4070 h1        1 4MS      0.193333
     43 H21A       -3.6340   -5.3200   -3.7490 h1        1 4MS      0.193333
     44 H21B       -3.0650   -6.9680   -3.9740 h1        1 4MS      0.193333
     45 H22        -2.9940   -0.5880    2.4640 hn        1 4MS      0.235000
     46 H22A        1.8050   -1.7910   -0.4670 ha        1 4MS      0.186500
     47 H19        -8.6990   -1.6300    3.8720 hc        1 4MS      0.068250
     48 H19A       -6.5220   -0.7200    3.5480 hc        1 4MS      0.085333
     49 H19B       -8.9400   -2.3050    5.5410 hc        1 4MS      0.068250
     50 H18        -8.1180   -0.7010    5.3210 hc        1 4MS      0.068250
     51 H18A       -9.8980   -0.8620    5.0000 hc        1 4MS      0.068250
     52 H18B       -6.6270   -2.6750    4.8490 ha        1 4MS      0.132500
     53 HO33       -5.1700   -3.8270    4.9870 ha        1 4MS      0.132500
     54 H2         -4.5050   -5.9800    1.8390 ha        1 4MS      0.142500
     55 H3         -2.2270   -8.5320    2.1620 ha        1 4MS      0.226000
     56 H1         -4.0130   -7.6910    1.3110 ha        1 4MS      0.142500
     57 H23        -0.5690   -8.6700   -0.4540 ha        1 4MS      0.123000
     58 H23A       -0.7530   -7.6740   -5.2820 h5        1 4MS      0.190000
     59 HN27        0.9170   -6.2900   -3.2150 hn        1 4MS      0.288500
     60 CL37       -3.2200   -1.1000   -3.8560 cl        1 4MS      0.064000
     61 C20        -5.4580   -0.8430    3.2190 c3        1 4MS     -0.187000
     62 H272        1.2010   -7.8180   -3.9430 hn        1 4MS      0.288500
     63 O33        -3.6140   -4.8620    3.4730 o         1 4MS     -0.311000
@<TRIPOS>BOND
     1    1    2 1   
     2    1    5 1   
     3    2    6 1   
     4    2   35 1   
     5    2   36 1   
     6    3    5 1   
     7    3   13 1   
     8    3   37 1   
     9    4    7 1   
    10    4   21 1   
    11    4   26 1   
    12    5   11 1   
    13    6   13 1   
    14    6   14 1   
    15    7   20 1   
    16    7   22 1   
    17    8    9 1   
    18    8   20 1   
    19    8   63 1   
    20    9   12 1   
    21    9   15 1   
    22    9   38 1   
    23   10   32 1   
    24   10   42 1   
    25   10   43 1   
    26   10   44 1   
    27   11   40 1   
    28   11   46 1   
    29   12   17 1   
    30   12   61 1   
    31   13   60 1   
    32   15   18 1   
    33   15   45 1   
    34   16   47 1   
    35   16   49 1   
    36   16   50 1   
    37   16   51 1   
    38   17   52 1   
    39   17   53 1   
    40   18   19 1   
    41   18   20 1   
    42   21   54 1   
    43   21   56 1   
    44   22   23 1   
    45   23   24 1   
    46   23   25 1   
    47   23   26 1   
    48   26   27 1   
    49   27   28 1   
    50   27   57 1   
    51   28   29 1   
    52   28   55 1   
    53   30   31 1   
    54   30   32 1   
    55   30   58 1   
    56   31   59 1   
    57   31   62 1   
    58   32   33 1   
    59   32   34 1   
    60   39   61 1   
    61   41   61 1   
    62   48   61 1   
@<TRIPOS>SUBSTRUCTURE
     1 4MS         1 TEMP              0 ****  ****    0 ROOT
