@<TRIPOS>MOLECULE
4MS
   63    64     1     0     0
SMALL
bcc


@<TRIPOS>ATOM
      1 C4         -1.5010    3.5830    2.4640 c1        1 4MS      0.317000
      2 C5          1.5010   -0.3070    1.8480 c2        1 4MS     -0.262000
      3 C6         -0.4960    1.8390    3.8240 c2        1 4MS     -0.073000
      4 C7         -1.8610   -5.8130   -1.5880 c2        1 4MS      0.004000
      5 C8         -1.4190    2.2870    2.7810 c2        1 4MS     -0.387000
      6 C10         1.2530    0.9500    2.2610 c2        1 4MS      0.090000
      7 C13        -2.8490   -4.9340   -0.8340 c2        1 4MS      0.277000
      8 C15        -3.2750   -3.3970    1.1050 c2        1 4MS      0.211000
      9 C17        -2.5140   -2.3010    1.8650 c3        1 4MS     -0.012000
     10 C21        -6.0030   -8.6760   -4.5940 c3        1 4MS     -1.074000
     11 C22        -2.2710    1.3060    2.1210 c2        1 4MS     -0.043000
     12 C24        -3.2990   -0.9730    1.9210 c3        1 4MS     -0.079000
     13 C12         0.6880    1.2480    3.5930 c2        1 4MS     -0.081000
     14 F34         1.5050    2.0220    1.4690 f         1 4MS     -0.092000
     15 N26        -1.2220   -2.2580    1.1930 n         1 4MS     -0.351000
     16 C19        -5.6300   -2.7030    4.4190 c3        1 4MS     -0.286000
     17 C18        -2.4410    0.0560    2.5690 c2        1 4MS     -0.207000
     18 C16        -1.2060   -3.1180    0.0820 c2        1 4MS      0.361000
     19 O28        -0.2690   -3.1900   -0.7230 o         1 4MS     -0.341000
     20 C14        -2.4820   -3.9070    0.0850 c2        1 4MS     -0.290000
     21 C2         -0.3970   -5.7700   -1.5890 c3        1 4MS     -0.207000
     22 N25        -4.0910   -5.2580   -1.1080 n2        1 4MS     -0.702000
     23 S35        -4.2680   -6.5080   -2.1430 s6        1 4MS      2.704000
     24 O29        -4.7510   -6.2200   -3.4570 o         1 4MS     -0.942000
     25 O30        -4.8690   -7.6940   -1.6730 o         1 4MS     -0.942000
     26 C11        -2.5520   -6.7570   -2.3150 c2        1 4MS     -0.809000
     27 C9         -1.8610   -7.8070   -2.9960 c2        1 4MS      0.000000
     28 C3         -0.5030   -7.9140   -2.8630 c2        1 4MS     -0.148000
     29 C1          0.2620   -6.8630   -2.2740 c1        1 4MS     -0.020000
     30 C23        -2.6670   -8.8240   -3.7470 c3        1 4MS     -0.106000
     31 N27        -3.3640   -8.2930   -4.9430 n4        1 4MS     -0.488000
     32 S36        -4.8280   -9.3640   -5.4860 s6        1 4MS      2.782000
     33 O31        -4.4490  -10.6180   -5.0560 o         1 4MS     -0.847500
     34 O32        -4.8740   -9.0650   -6.8310 o         1 4MS     -0.847500
     35 H4          1.3240   -1.1670    2.5040 ha        1 4MS      0.143500
     36 H5          1.9230   -0.5210    0.8580 ha        1 4MS      0.143500
     37 H6         -0.8460    2.0170    4.8580 ha        1 4MS      0.161000
     38 H17        -2.3440   -2.6550    2.9290 h1        1 4MS      0.145000
     39 H20        -2.9960   -0.3250   -0.1390 hc        1 4MS      0.094000
     40 H20A       -4.4840    0.3310    0.6610 hc        1 4MS      0.094000
     41 H20B       -4.4390   -1.3950    0.1220 hc        1 4MS      0.094000
     42 H21        -5.9130   -8.8060   -3.4710 h1        1 4MS      0.232667
     43 H21A       -6.1310   -7.5550   -4.7100 h1        1 4MS      0.232667
     44 H21B       -7.0300   -9.0840   -4.8300 h1        1 4MS      0.232667
     45 H22        -2.7770    1.6670    1.2070 ha        1 4MS      0.138000
     46 H22A       -0.6840   -1.4200    1.2120 hn        1 4MS      0.266000
     47 H19        -5.9850   -3.7100    4.1050 hc        1 4MS      0.072750
     48 H19A       -4.5190   -2.6620    4.3710 hc        1 4MS      0.072750
     49 H19B       -4.1820   -1.1590    2.6070 hc        1 4MS      0.107000
     50 H18        -5.9560   -2.5130    5.4650 hc        1 4MS      0.072750
     51 H18A       -6.0670   -1.9250    3.7540 hc        1 4MS      0.072750
     52 H18B       -1.9430   -0.2810    3.4950 ha        1 4MS      0.138000
     53 HO33       -4.8200   -3.3150    2.2030 ho        1 4MS      0.264000
     54 H2         -0.0370   -4.8200   -2.1260 hc        1 4MS      0.229500
     55 H3          0.0540   -8.7870   -3.2460 ha        1 4MS      0.171000
     56 H1          0.0360   -5.6360   -0.5490 hc        1 4MS      0.229500
     57 H23        -3.4540   -9.2430   -3.0430 hx        1 4MS      0.164500
     58 H23A       -2.0070   -9.6820   -4.0740 hx        1 4MS      0.164500
     59 HN27       -3.6840   -7.3320   -4.7580 hn        1 4MS      0.262500
     60 CL37        1.6590    0.7560    4.9000 cl        1 4MS      0.018000
     61 C20        -3.8290   -0.5690    0.5640 c3        1 4MS     -0.230000
     62 H272       -2.6940   -8.2200   -5.7100 hn        1 4MS      0.262500
     63 O33        -4.4880   -3.8360    1.4420 oh        1 4MS     -0.161000
@<TRIPOS>BOND
     1    1    5 1   
     2    2    6 1   
     3    2   35 1   
     4    2   36 1   
     5    3    5 1   
     6    3   13 1   
     7    3   37 1   
     8    4    7 1   
     9    4   21 1   
    10    4   26 1   
    11    5   11 1   
    12    6   13 1   
    13    6   14 1   
    14    7   20 1   
    15    7   22 1   
    16    8    9 1   
    17    8   20 1   
    18    8   63 1   
    19    9   12 1   
    20    9   15 1   
    21    9   38 1   
    22   10   32 1   
    23   10   42 1   
    24   10   43 1   
    25   10   44 1   
    26   11   17 1   
    27   11   45 1   
    28   12   17 1   
    29   12   49 1   
    30   12   61 1   
    31   13   60 1   
    32   15   18 1   
    33   15   46 1   
    34   16   47 1   
    35   16   48 1   
    36   16   50 1   
    37   16   51 1   
    38   17   52 1   
    39   18   19 1   
    40   18   20 1   
    41   21   29 1   
    42   21   54 1   
    43   21   56 1   
    44   22   23 1   
    45   23   24 1   
    46   23   25 1   
    47   23   26 1   
    48   26   27 1   
    49   27   28 1   
    50   27   30 1   
    51   28   29 1   
    52   28   55 1   
    53   30   31 1   
    54   30   57 1   
    55   30   58 1   
    56   31   32 1   
    57   31   59 1   
    58   31   62 1   
    59   32   33 1   
    60   32   34 1   
    61   39   61 1   
    62   40   61 1   
    63   41   61 1   
    64   53   63 1   
@<TRIPOS>SUBSTRUCTURE
     1 4MS         1 TEMP              0 ****  ****    0 ROOT
