@<TRIPOS>MOLECULE
4MT
   24    24     1     0     0
SMALL
bcc


@<TRIPOS>ATOM
      1 O1          0.0040    0.0570    0.1930 oh        1 4MT     -0.476100
      2 C2          1.3670    0.0620    0.0710 ca        1 4MT      0.163100
      3 C3          2.1000   -0.0590    1.2680 ca        1 4MT     -0.179500
      4 C4          3.4860   -0.0630    1.2120 ca        1 4MT     -0.075000
      5 C5          4.1550    0.0460   -0.0170 ca        1 4MT     -0.176300
      6 C6          5.6400    0.0620   -0.0540 c3        1 4MT     -0.034100
      7 C7          6.1490   -1.3800    0.0080 c3        1 4MT      0.086800
      8 N8          7.6420   -1.4540    0.0050 n4        1 4MT     -0.622800
      9 C9          8.2130   -2.8250    0.0690 c         1 4MT      0.040200
     10 S10         7.4760   -4.1210    0.1370 s         1 4MT      0.141600
     11 C11         3.4160    0.1710   -1.1980 ca        1 4MT     -0.075000
     12 C12         2.0250    0.1790   -1.1640 ca        1 4MT     -0.179500
     13 H1         -0.3870    0.1760   -0.6870 ho        1 4MT      0.435000
     14 H2          1.5630   -0.1400    2.2250 ha        1 4MT      0.161000
     15 H3          4.0640   -0.1420    2.1460 ha        1 4MT      0.133500
     16 H4          6.0350    0.6510    0.8180 hc        1 4MT      0.066200
     17 H5          5.9980    0.5600   -0.9960 hc        1 4MT      0.066200
     18 H6          5.7640   -1.9600   -0.8790 hx        1 4MT      0.113700
     19 H7          5.7700   -1.8760    0.9480 hx        1 4MT      0.113700
     20 H8          9.3240   -2.6870    0.0560 hx        1 4MT      0.094200
     21 H10         3.9320    0.2740   -2.1650 ha        1 4MT      0.133500
     22 H11         1.4470    0.2820   -2.0940 ha        1 4MT      0.161000
     23 H12         7.9900   -0.9940   -0.8480 hn        1 4MT      0.454800
     24 H82         7.9970   -0.9140    0.8070 hn        1 4MT      0.454800
@<TRIPOS>BOND
     1    1    2 1   
     2    1   13 1   
     3    2    3 ar  
     4    2   12 ar  
     5    3    4 ar  
     6    3   14 1   
     7    4    5 ar  
     8    4   15 1   
     9    5    6 1   
    10    5   11 ar  
    11    6    7 1   
    12    6   16 1   
    13    6   17 1   
    14    7    8 1   
    15    7   18 1   
    16    7   19 1   
    17    8    9 1   
    18    8   23 1   
    19    8   24 1   
    20    9   10 2   
    21    9   20 1   
    22   11   12 ar  
    23   11   21 1   
    24   12   22 1   
@<TRIPOS>SUBSTRUCTURE
     1 4MT         1 TEMP              0 ****  ****    0 ROOT
