@<TRIPOS>MOLECULE
4MT
   24    24     1     0     0
SMALL
bcc


@<TRIPOS>ATOM
      1 O1          0.0060    0.0660    0.2040 oh        1 4MT     -0.476100
      2 C2          1.3690    0.0690    0.0790 ca        1 4MT      0.163100
      3 C3          2.1050   -0.0580    1.2730 ca        1 4MT     -0.179500
      4 C4          3.4910   -0.0650    1.2140 ca        1 4MT     -0.075000
      5 C5          4.1560    0.0470   -0.0160 ca        1 4MT     -0.176300
      6 C6          5.6420    0.0600   -0.0570 c3        1 4MT     -0.034100
      7 C7          6.1470   -1.3840    0.0030 c3        1 4MT      0.086800
      8 N8          7.6410   -1.4600   -0.0040 n4        1 4MT     -0.622800
      9 C9          8.2100   -2.8330    0.0640 c         1 4MT      0.040200
     10 S10         7.4700   -4.1260    0.1450 s         1 4MT      0.141600
     11 C11         3.4150    0.1780   -1.1950 ca        1 4MT     -0.075000
     12 C12         2.0240    0.1890   -1.1570 ca        1 4MT     -0.179500
     13 H1         -0.3870    0.1900   -0.6740 ho        1 4MT      0.435000
     14 H2          1.5700   -0.1410    2.2320 ha        1 4MT      0.161000
     15 H3          4.0700   -0.1490    2.1460 ha        1 4MT      0.133500
     16 H4          5.9980    0.5570   -1.0000 hc        1 4MT      0.066200
     17 H5          6.0400    0.6480    0.8140 hc        1 4MT      0.066200
     18 H6          5.7700   -1.8780    0.9440 hx        1 4MT      0.113700
     19 H7          5.7590   -1.9630   -0.8830 hx        1 4MT      0.113700
     20 H8          9.3200   -2.6970    0.0410 hx        1 4MT      0.094200
     21 H10         3.9280    0.2830   -2.1630 ha        1 4MT      0.133500
     22 H11         1.4440    0.2970   -2.0850 ha        1 4MT      0.161000
     23 H12         8.0000   -0.9180    0.7950 hn        1 4MT      0.454800
     24 H82         7.9870   -1.0050   -0.8600 hn        1 4MT      0.454800
@<TRIPOS>BOND
     1    1    2 1   
     2    1   13 1   
     3    2    3 ar  
     4    2   12 ar  
     5    3    4 ar  
     6    3   14 1   
     7    4    5 ar  
     8    4   15 1   
     9    5    6 1   
    10    5   11 ar  
    11    6    7 1   
    12    6   16 1   
    13    6   17 1   
    14    7    8 1   
    15    7   18 1   
    16    7   19 1   
    17    8    9 1   
    18    8   23 1   
    19    8   24 1   
    20    9   10 2   
    21    9   20 1   
    22   11   12 ar  
    23   11   21 1   
    24   12   22 1   
@<TRIPOS>SUBSTRUCTURE
     1 4MT         1 TEMP              0 ****  ****    0 ROOT
