@<TRIPOS>MOLECULE
4MT
   24    24     1     0     0
SMALL
bcc


@<TRIPOS>ATOM
      1 O1          0.0020    0.0490    0.1740 oh        1 4MT     -0.476100
      2 C2          1.3660    0.0570    0.0590 ca        1 4MT      0.163100
      3 C3          2.0930   -0.0720    1.2590 ca        1 4MT     -0.179500
      4 C4          3.4790   -0.0740    1.2100 ca        1 4MT     -0.075000
      5 C5          4.1540    0.0460   -0.0150 ca        1 4MT     -0.176300
      6 C6          5.6400    0.0640   -0.0450 c3        1 4MT     -0.034100
      7 C7          6.1500   -1.3780    0.0110 c3        1 4MT      0.086800
      8 N8          7.6430   -1.4500    0.0150 ny        1 4MT     -0.622800
      9 C9          8.2160   -2.8210    0.0750 c         1 4MT      0.040200
     10 S10         7.4800   -4.1180    0.1360 s         1 4MT      0.141600
     11 C11         3.4210    0.1780   -1.1990 ca        1 4MT     -0.075000
     12 C12         2.0300    0.1840   -1.1710 ca        1 4MT     -0.179500
     13 H1         -0.3850    0.1750   -0.7060 ho        1 4MT      0.435000
     14 H2          1.5520   -0.1610    2.2120 ha        1 4MT      0.161000
     15 H3          4.0520   -0.1600    2.1460 ha        1 4MT      0.133500
     16 H4          6.0010    0.5680   -0.9810 hc        1 4MT      0.066200
     17 H5          6.0290    0.6470    0.8330 hc        1 4MT      0.066200
     18 H6          5.7670   -1.8810    0.9450 hx        1 4MT      0.113700
     19 H7          5.7700   -1.9530   -0.8820 hx        1 4MT      0.113700
     20 H8          9.3270   -2.6810    0.0650 hx        1 4MT      0.094200
     21 H10         3.9410    0.2900   -2.1630 ha        1 4MT      0.133500
     22 H11         1.4560    0.2940   -2.1030 ha        1 4MT      0.161000
     23 H12         7.9940   -0.9140    0.8210 hn        1 4MT      0.454800
     24 H82         7.9950   -0.9860   -0.8350 hn        1 4MT      0.454800
@<TRIPOS>BOND
     1    1    2 1   
     2    1   13 1   
     3    2    3 ar  
     4    2   12 ar  
     5    3    4 ar  
     6    3   14 1   
     7    4    5 ar  
     8    4   15 1   
     9    5    6 1   
    10    5   11 ar  
    11    6    7 1   
    12    6   16 1   
    13    6   17 1   
    14    7    8 1   
    15    7   18 1   
    16    7   19 1   
    17    8    9 1   
    18    8   23 1   
    19    8   24 1   
    20    9   10 2   
    21    9   20 1   
    22   11   12 ar  
    23   11   21 1   
    24   12   22 1   
@<TRIPOS>SUBSTRUCTURE
     1 4MT         1 TEMP              0 ****  ****    0 ROOT
