@<TRIPOS>MOLECULE
4MU
   21    22     1     0     0
SMALL
bcc


@<TRIPOS>ATOM
      1 C5         -0.0320   -0.0270   -0.0690 ca        1 4MU     -0.043000
      2 C6          1.3490   -0.0720   -0.0940 ca        1 4MU     -0.184000
      3 C7          2.0620   -0.1260    1.1250 ca        1 4MU      0.175100
      4 C2         -1.9940   -0.0570    3.6640 c         1 4MU      0.724800
      5 C3         -2.7770    0.0000    2.4440 cc        1 4MU     -0.273200
      6 C4         -2.1860    0.0110    1.2250 cd        1 4MU      0.058600
      7 O2         -2.3670   -0.0740    4.8360 o         1 4MU     -0.566500
      8 O1         -0.5980   -0.1010    3.5900 os        1 4MU     -0.327200
      9 CM4        -2.9810    0.0690   -0.0230 c3        1 4MU     -0.074900
     10 C4A        -0.7410   -0.0340    1.1470 ca        1 4MU     -0.186800
     11 C8A        -0.0050   -0.0890    2.3490 ca        1 4MU      0.195100
     12 C8          1.4000   -0.1350    2.3530 ca        1 4MU     -0.246000
     13 O1'         3.4290   -0.1680    1.0240 oh        1 4MU     -0.488100
     14 H5         -0.5920    0.0150   -1.0170 ha        1 4MU      0.142000
     15 H6          1.9070   -0.0660   -1.0410 ha        1 4MU      0.159000
     16 H3         -3.8690    0.0330    2.5800 ha        1 4MU      0.169000
     17 HM4        -4.0770    0.0990    0.1960 hc        1 4MU      0.059033
     18 HM4A       -2.7710   -0.8310   -0.6550 hc        1 4MU      0.059033
     19 HM4B       -2.7110    0.9840   -0.6090 hc        1 4MU      0.059033
     20 H8          1.9420   -0.1770    3.3080 ha        1 4MU      0.163000
     21 HO1'        3.8000   -0.2030    1.9190 ho        1 4MU      0.429000
@<TRIPOS>BOND
     1    1    2 ar  
     2    1   10 ar  
     3    1   14 1   
     4    2    3 ar  
     5    2   15 1   
     6    3   12 ar  
     7    3   13 1   
     8    4    5 1   
     9    4    7 2   
    10    4    8 1   
    11    5    6 2   
    12    5   16 1   
    13    6    9 1   
    14    6   10 1   
    15    8   11 1   
    16    9   17 1   
    17    9   18 1   
    18    9   19 1   
    19   10   11 ar  
    20   11   12 ar  
    21   12   20 1   
    22   13   21 1   
@<TRIPOS>SUBSTRUCTURE
     1 4MU         1 TEMP              0 ****  ****    0 ROOT
