@<TRIPOS>MOLECULE
4MU
   21    22     1     0     0
SMALL
bcc


@<TRIPOS>ATOM
      1 C5         -1.1010   -1.6550    0.0220 ca        1 4MU     -0.043000
      2 C6         -2.3860   -1.1490    0.0610 ca        1 4MU     -0.184000
      3 C7         -2.5780    0.2510    0.1090 ca        1 4MU      0.175100
      4 C2          2.1430    1.0410    0.0490 c         1 4MU      0.724800
      5 C3          2.3980   -0.3870   -0.0010 cc        1 4MU     -0.273200
      6 C4          1.3850   -1.2860   -0.0110 cd        1 4MU      0.058600
      7 O2          2.9360    1.9800    0.0650 o         1 4MU     -0.566500
      8 O1          0.8250    1.5080    0.0880 os        1 4MU     -0.327200
      9 CM4         1.6410   -2.7440   -0.0630 c3        1 4MU     -0.074900
     10 C4A         0.0200   -0.8040    0.0290 ca        1 4MU     -0.186800
     11 C8A        -0.1990    0.5890    0.0770 ca        1 4MU      0.195100
     12 C8         -1.4950    1.1310    0.1180 ca        1 4MU     -0.246000
     13 O1'        -3.8790    0.6810    0.1460 oh        1 4MU     -0.488100
     14 H5         -0.9470   -2.7460   -0.0160 ha        1 4MU      0.142000
     15 H6         -3.2650   -1.8090    0.0560 ha        1 4MU      0.159000
     16 H3          3.4580   -0.6800   -0.0290 ha        1 4MU      0.169000
     17 HM4         2.7370   -2.9620   -0.0890 hc        1 4MU      0.059033
     18 HM4A        1.2020   -3.2430    0.8380 hc        1 4MU      0.059033
     19 HM4B        1.1700   -3.1850   -0.9770 hc        1 4MU      0.059033
     20 H8         -1.6300    2.2210    0.1550 ha        1 4MU      0.163000
     21 HO1'       -3.8780    1.6510    0.1770 ho        1 4MU      0.429000
@<TRIPOS>BOND
     1    1    2 ar  
     2    1   10 ar  
     3    1   14 1   
     4    2    3 ar  
     5    2   15 1   
     6    3   12 ar  
     7    3   13 1   
     8    4    5 1   
     9    4    7 2   
    10    4    8 1   
    11    5    6 2   
    12    5   16 1   
    13    6    9 1   
    14    6   10 1   
    15    8   11 1   
    16    9   17 1   
    17    9   18 1   
    18    9   19 1   
    19   10   11 ar  
    20   11   12 ar  
    21   12   20 1   
    22   13   21 1   
@<TRIPOS>SUBSTRUCTURE
     1 4MU         1 TEMP              0 ****  ****    0 ROOT
