@<TRIPOS>MOLECULE
4MU
   21    18     1     0     0
SMALL
bcc


@<TRIPOS>ATOM
      1 C5          0.5710   -0.0490   -1.3520 c1        1 4MU     -0.137500
      2 C6          1.9660   -0.0490   -1.3520 c1        1 4MU     -0.137500
      3 C7          2.6690   -0.0490   -0.1370 c1        1 4MU      0.126000
      4 C2         -1.6010   -0.0490    2.3770 c1        1 4MU      0.339000
      5 C3         -2.3430   -0.0490    1.1010 c1        1 4MU     -0.252000
      6 C4         -1.6160   -0.0490   -0.1500 c1        1 4MU      0.048000
      7 O2         -2.2060   -0.0280    3.4300 o         1 4MU     -0.289000
      8 O1         -0.1670   -0.0490    2.3700 os        1 4MU     -0.189000
      9 CM4        -2.3610    0.1140   -1.4570 c2        1 4MU     -0.196000
     10 C4A        -0.1280   -0.0490   -0.1420 c1        1 4MU     -0.174000
     11 C8A         0.5760   -0.0490    1.0750 c2        1 4MU      0.143000
     12 C8          1.9740   -0.0490    1.0730 c2        1 4MU     -0.185000
     13 O1'         4.0590   -0.2680   -0.1360 oh        1 4MU     -0.240000
     14 H5          0.0830   -0.0490   -2.1980 ha        1 4MU      0.141000
     15 H6          2.4540   -0.0490   -2.1980 ha        1 4MU      0.141000
     16 H3         -3.3140   -0.1420    1.1010 ha        1 4MU      0.169000
     17 HM4        -2.0620    0.9300   -1.9020 ha        1 4MU      0.097667
     18 HM4A       -2.1820   -0.6550   -2.0320 ha        1 4MU      0.097667
     19 HM4B       -3.3190    0.1720   -1.2810 ha        1 4MU      0.097667
     20 H8          2.4630   -0.0490    1.9170 ha        1 4MU      0.178000
     21 HO1'        4.4820    0.5120   -0.1070 ho        1 4MU      0.224000
@<TRIPOS>BOND
     1    1    2 1   
     2    1   14 1   
     3    2   15 1   
     4    3   12 1   
     5    3   13 1   
     6    4    7 1   
     7    4    8 1   
     8    5    6 1   
     9    5   16 1   
    10    6   10 1   
    11    8   11 1   
    12    9   17 1   
    13    9   18 1   
    14    9   19 1   
    15   10   11 1   
    16   11   12 1   
    17   12   20 1   
    18   13   21 1   
@<TRIPOS>SUBSTRUCTURE
     1 4MU         1 TEMP              0 ****  ****    0 ROOT
