@<TRIPOS>MOLECULE
4MV
   19    18     1     0     0
SMALL
bcc


@<TRIPOS>ATOM
      1 CA          0.5150    0.3400   -0.5720 c3        1 4MV     -0.194400
      2 CB         -0.3790   -0.1180    0.5530 c3        1 4MV     -0.062400
      3 CG          0.1350    0.2890    1.9280 c3        1 4MV     -0.072700
      4 CD1        -0.9480    0.1050    2.9710 c3        1 4MV     -0.083600
      5 CD2         1.3690   -0.5000    2.3130 c3        1 4MV     -0.083600
      6 C          -0.1630    0.1430   -1.9400 c         1 4MV      0.907600
      7 O          -1.3670    0.5070   -2.0780 o         1 4MV     -0.853800
      8 OXT         0.5300   -0.3580   -2.8720 o         1 4MV     -0.853800
      9 HA1         0.7450    1.4310   -0.4610 hc        1 4MV      0.018700
     10 HA2         1.4840   -0.2180   -0.5590 hc        1 4MV      0.018700
     11 HB1        -0.4890   -1.2330    0.5150 hc        1 4MV      0.044700
     12 HB2        -1.4000    0.3220    0.3910 hc        1 4MV      0.044700
     13 HG          0.4110    1.3810    1.8930 hc        1 4MV      0.037700
     14 HD11       -0.5750    0.4010    3.9820 hc        1 4MV      0.021700
     15 HD12       -1.8360    0.7330    2.7210 hc        1 4MV      0.021700
     16 HD13       -1.2720   -0.9620    3.0130 hc        1 4MV      0.021700
     17 HD21        1.1350   -1.5900    2.3680 hc        1 4MV      0.021700
     18 HD22        2.1730   -0.3510    1.5510 hc        1 4MV      0.021700
     19 HD23        1.7530   -0.1700    3.3080 hc        1 4MV      0.021700
@<TRIPOS>BOND
     1    1    2 1   
     2    1    6 1   
     3    1    9 1   
     4    1   10 1   
     5    2    3 1   
     6    2   11 1   
     7    2   12 1   
     8    3    4 1   
     9    3    5 1   
    10    3   13 1   
    11    4   14 1   
    12    4   15 1   
    13    4   16 1   
    14    5   17 1   
    15    5   18 1   
    16    5   19 1   
    17    6    7 1   
    18    6    8 1   
@<TRIPOS>SUBSTRUCTURE
     1 4MV         1 TEMP              0 ****  ****    0 ROOT
