@<TRIPOS>MOLECULE
4MV
   19    18     1     0     0
SMALL
bcc


@<TRIPOS>ATOM
      1 CA         -0.0290   -0.0550   -0.0290 c3        1 4MV     -0.194400
      2 CB          1.4590    0.1930    0.0180 c3        1 4MV     -0.062400
      3 CG          2.0370    0.0910    1.4240 c3        1 4MV     -0.072700
      4 CD1         3.5490    0.0130    1.3680 c3        1 4MV     -0.083600
      5 CD2         1.6060    1.2600    2.2850 c3        1 4MV     -0.083600
      6 C          -0.5250   -0.2030   -1.4790 c         1 4MV      0.907600
      7 O           0.1310   -0.9400   -2.2720 o         1 4MV     -0.853800
      8 OXT        -1.5840    0.4090   -1.8020 o         1 4MV     -0.853800
      9 HA1        -0.2780   -1.0030    0.5130 hc        1 4MV      0.018700
     10 HA2        -0.5840    0.7800    0.4660 hc        1 4MV      0.018700
     11 HB1         1.6840    1.2080   -0.4010 hc        1 4MV      0.044700
     12 HB2         1.9610   -0.5600   -0.6480 hc        1 4MV      0.044700
     13 HG          1.6510   -0.8570    1.8960 hc        1 4MV      0.037700
     14 HD11        3.9780   -0.0610    2.3960 hc        1 4MV      0.021700
     15 HD12        3.8680   -0.8830    0.7830 hc        1 4MV      0.021700
     16 HD13        3.9680    0.9220    0.8740 hc        1 4MV      0.021700
     17 HD21        1.9780    2.2210    1.8550 hc        1 4MV      0.021700
     18 HD22        0.4920    1.3060    2.3390 hc        1 4MV      0.021700
     19 HD23        2.0120    1.1560    3.3200 hc        1 4MV      0.021700
@<TRIPOS>BOND
     1    1    2 1   
     2    1    6 1   
     3    1    9 1   
     4    1   10 1   
     5    2    3 1   
     6    2   11 1   
     7    2   12 1   
     8    3    4 1   
     9    3    5 1   
    10    3   13 1   
    11    4   14 1   
    12    4   15 1   
    13    4   16 1   
    14    5   17 1   
    15    5   18 1   
    16    5   19 1   
    17    6    7 1   
    18    6    8 1   
@<TRIPOS>SUBSTRUCTURE
     1 4MV         1 TEMP              0 ****  ****    0 ROOT
