@<TRIPOS>MOLECULE
4MV
   19    18     1     0     0
SMALL
bcc


@<TRIPOS>ATOM
      1 CA         -0.0240   -0.0910   -0.0220 c3        1 4MV     -0.194400
      2 CB          1.4500    0.2270    0.0150 c3        1 4MV     -0.062400
      3 CG          2.0570    0.0830    1.4050 c3        1 4MV     -0.072700
      4 CD1         3.5700    0.0800    1.3210 c3        1 4MV     -0.083600
      5 CD2         1.5880    1.1860    2.3300 c3        1 4MV     -0.083600
      6 C          -0.5390   -0.1890   -1.4690 c         1 4MV      0.907600
      7 O           0.1390   -0.8490   -2.3090 o         1 4MV     -0.853800
      8 OXT        -1.6330    0.3840   -1.7430 o         1 4MV     -0.853800
      9 HA1        -0.2170   -1.0760    0.4750 hc        1 4MV      0.018700
     10 HA2        -0.6100    0.6900    0.5240 hc        1 4MV      0.018700
     11 HB1         1.6180    1.2720   -0.3550 hc        1 4MV      0.044700
     12 HB2         1.9760   -0.4660   -0.6960 hc        1 4MV      0.044700
     13 HG          1.7250   -0.9040    1.8340 hc        1 4MV      0.037700
     14 HD11        4.0210   -0.0230    2.3380 hc        1 4MV      0.021700
     15 HD12        3.9210   -0.7690    0.6880 hc        1 4MV      0.021700
     16 HD13        3.9370    1.0320    0.8680 hc        1 4MV      0.021700
     17 HD21        1.9070    2.1830    1.9440 hc        1 4MV      0.021700
     18 HD22        0.4740    1.1760    2.4040 hc        1 4MV      0.021700
     19 HD23        2.0160    1.0500    3.3530 hc        1 4MV      0.021700
@<TRIPOS>BOND
     1    1    2 1   
     2    1    6 1   
     3    1    9 1   
     4    1   10 1   
     5    2    3 1   
     6    2   11 1   
     7    2   12 1   
     8    3    4 1   
     9    3    5 1   
    10    3   13 1   
    11    4   14 1   
    12    4   15 1   
    13    4   16 1   
    14    5   17 1   
    15    5   18 1   
    16    5   19 1   
    17    6    7 1   
    18    6    8 1   
@<TRIPOS>SUBSTRUCTURE
     1 4MV         1 TEMP              0 ****  ****    0 ROOT
