@<TRIPOS>MOLECULE
4MV
   19    18     1     0     0
SMALL
bcc


@<TRIPOS>ATOM
      1 CA          0.7980   -0.0270   -1.4840 c3        1 4MV     -0.194400
      2 CB         -0.3540   -0.0110   -0.5020 c3        1 4MV     -0.062400
      3 CG          0.1880   -0.0140    0.9100 c3        1 4MV     -0.072700
      4 CD1        -0.2190    1.2650    1.6090 c3        1 4MV     -0.083600
      5 CD2        -0.3740   -1.2000    1.6630 c3        1 4MV     -0.083600
      6 C           0.2560   -0.0390   -2.8960 c         1 4MV      0.907600
      7 O           0.0600   -1.1340   -3.4860 o         1 4MV     -0.853800
      8 OXT         0.0010    1.0460   -3.4820 o         1 4MV     -0.853800
      9 HA1         1.3400   -0.8280   -1.3360 hc        1 4MV      0.018700
     10 HA2         1.3490    0.7700   -1.3530 hc        1 4MV      0.018700
     11 HB1        -0.8910    0.7940   -0.6440 hc        1 4MV      0.044700
     12 HB2        -0.9110   -0.8030   -0.6400 hc        1 4MV      0.044700
     13 HG          1.1610   -0.0750    0.8850 hc        1 4MV      0.037700
     14 HD11        0.1760    1.2870    2.5060 hc        1 4MV      0.021700
     15 HD12        0.0990    2.0350    1.0920 hc        1 4MV      0.021700
     16 HD13       -1.1960    1.3020    1.6810 hc        1 4MV      0.021700
     17 HD21       -0.0160   -1.2070    2.5750 hc        1 4MV      0.021700
     18 HD22       -1.3510   -1.1330    1.6960 hc        1 4MV      0.021700
     19 HD23       -0.1180   -2.0280    1.2050 hc        1 4MV      0.021700
@<TRIPOS>BOND
     1    1    2 1   
     2    1    6 1   
     3    1    9 1   
     4    1   10 1   
     5    2    3 1   
     6    2   11 1   
     7    2   12 1   
     8    3    4 1   
     9    3    5 1   
    10    3   13 1   
    11    4   14 1   
    12    4   15 1   
    13    4   16 1   
    14    5   17 1   
    15    5   18 1   
    16    5   19 1   
    17    6    7 1   
    18    6    8 1   
@<TRIPOS>SUBSTRUCTURE
     1 4MV         1 TEMP              0 ****  ****    0 ROOT
