@<TRIPOS>MOLECULE
4MY
   36    36     1     0     0
SMALL
bcc


@<TRIPOS>ATOM
      1 C1          0.7160    2.1510   -0.3830 c3        1 4MY      0.096100
      2 C2         -0.7870    2.1790   -0.0530 c3        1 4MY      0.096100
      3 C3         -1.5340    0.8630   -0.4470 c3        1 4MY      0.203100
      4 C4         -0.7240   -0.2820    0.3480 c3        1 4MY      0.215100
      5 C5          0.7150   -0.3220   -0.4390 c3        1 4MY      0.215100
      6 C6          1.5100    0.9350    0.2090 c3        1 4MY      0.203100
      7 O11         1.2310    3.4400   -0.0540 oh        1 4MY     -0.689800
      8 O12        -1.0050    2.5230    1.3140 oh        1 4MY     -0.689800
      9 O13        -2.8990    1.0360   -0.2010 os        1 4MY     -0.603700
     10 O14        -1.3960   -1.4760    0.5130 os        1 4MY     -0.559200
     11 O15         1.3960   -1.5210   -0.4410 os        1 4MY     -0.559200
     12 O16         2.8710    1.0830   -0.0730 os        1 4MY     -0.603700
     13 O23        -3.3120    2.8590   -2.0730 o         1 4MY     -0.981167
     14 O24        -3.3530   -2.6020    1.8150 o         1 4MY     -0.978500
     15 O25         3.3250   -2.8030   -1.6400 o         1 4MY     -0.978500
     16 O26         4.7630    0.8150    1.8600 o         1 4MY     -0.981167
     17 O33        -4.8010    0.8550   -2.0830 o         1 4MY     -0.981167
     18 O34        -1.0950   -3.1390    2.5930 o         1 4MY     -0.978500
     19 O35         1.0530   -3.5590   -2.1420 o         1 4MY     -0.978500
     20 O36         5.1640    2.2410   -0.1490 o         1 4MY     -0.981167
     21 O43        -4.9990    2.5380   -0.2600 o         1 4MY     -0.981167
     22 O44        -1.9770   -0.8490    3.0240 o         1 4MY     -0.978500
     23 O45         1.8090   -1.3760   -3.0730 o         1 4MY     -0.978500
     24 O46         3.5460    2.9740    1.5900 o         1 4MY     -0.981167
     25 H1          0.8060    2.0830   -1.5080 h1        1 4MY      0.022200
     26 H2         -1.2320    3.0370   -0.6390 h1        1 4MY      0.022200
     27 H3         -1.3970    0.6960   -1.5510 h1        1 4MY      0.005200
     28 H4         -0.5150    0.1190    1.3850 h1        1 4MY      0.005200
     29 H5          0.5200   -0.0530   -1.5200 h1        1 4MY      0.005200
     30 H6          1.3770    0.9160    1.3250 h1        1 4MY      0.005200
     31 HO11        1.9550    3.2940    0.5850 ho        1 4MY      0.440500
     32 HO12       -1.4980    1.7860    1.7060 ho        1 4MY      0.440500
     33 P3         -4.0310    1.8350   -1.2110 p5        1 4MY      1.377900
     34 P4         -1.9640   -2.0120    2.0490 p5        1 4MY      1.367400
     35 P5          1.8990   -2.3180   -1.8870 p5        1 4MY      1.367400
     36 P6          4.1270    1.7650    0.8640 p5        1 4MY      1.377900
@<TRIPOS>BOND
     1    1    2 1   
     2    1    6 1   
     3    1    7 1   
     4    1   25 1   
     5    2    3 1   
     6    2    8 1   
     7    2   26 1   
     8    3    4 1   
     9    3    9 1   
    10    3   27 1   
    11    4    5 1   
    12    4   10 1   
    13    4   28 1   
    14    5    6 1   
    15    5   11 1   
    16    5   29 1   
    17    6   12 1   
    18    6   30 1   
    19    7   31 1   
    20    8   32 1   
    21    9   33 1   
    22   10   34 1   
    23   11   35 1   
    24   12   36 1   
    25   13   33 1   
    26   14   34 1   
    27   15   35 1   
    28   16   36 1   
    29   17   33 1   
    30   18   34 1   
    31   19   35 1   
    32   20   36 1   
    33   21   33 1   
    34   22   34 1   
    35   23   35 1   
    36   24   36 1   
@<TRIPOS>SUBSTRUCTURE
     1 4MY         1 TEMP              0 ****  ****    0 ROOT
