@<TRIPOS>MOLECULE
4MY
   36    43     1     0     0
SMALL
bcc


@<TRIPOS>ATOM
      1 C1          0.0000    0.0000    0.0000 DU        1 4MY     -0.108000
      2 C2          1.5300    0.0000    0.0000 DU        1 4MY     -0.444000
      3 C3          2.0400    0.0000    1.4420 DU        1 4MY      0.051000
      4 C4          1.5310   -1.2490    2.1640 DU        1 4MY     -0.133000
      5 C5          0.0010   -1.2480    2.1640 DU        1 4MY     -0.006000
      6 C6         -0.5100   -1.2490    0.7210 DU        1 4MY      0.049000
      7 O11        -0.4770   -0.0000   -1.3470 oh        1 4MY     -0.638000
      8 O12         2.0060   -1.1670   -0.6740 oh        1 4MY     -0.365000
      9 O13         3.4700   -0.0000    1.4420 os        1 4MY     -0.513000
     10 O14         2.0070   -1.2490    3.5110 os        1 4MY     -0.463000
     11 O15        -0.4760   -2.4150    2.8380 os        1 4MY     -0.430000
     12 O16        -1.9390   -1.2490    0.7230 os        1 4MY     -0.531000
     13 O23         3.9440    2.4760    1.5520 o         1 4MY     -0.803833
     14 O24         3.3880   -2.0290    5.6070 o         1 4MY     -0.789500
     15 O25        -1.6400   -3.8410    4.7150 o         1 4MY     -0.788500
     16 O26        -2.5710   -3.7980    0.8400 o         1 4MY     -0.790833
     17 O33         4.1010    1.1740    3.7080 o         1 4MY     -0.803833
     18 O34         2.1080   -3.7980    4.1450 o         1 4MY     -0.789500
     19 O35        -0.7370   -1.5320    5.1880 o         1 4MY     -0.788500
     20 O36        -4.3770   -2.0290    0.1190 o         1 4MY     -0.790833
     21 O43         5.9070    0.9120    1.8140 o         1 4MY     -0.803833
     22 O44         4.1350   -2.5830    3.2610 o         1 4MY     -0.789500
     23 O45        -2.8220   -1.6890    3.7750 o         1 4MY     -0.788500
     24 O46        -2.4140   -2.5820   -1.3680 o         1 4MY     -0.790833
     25 H1          0.9400    0.2780    0.4620 DU        1 4MY      0.222000
     26 H2          1.8520   -0.5390    0.8820 DU        1 4MY      0.046000
     27 H3          1.2910   -0.4940    2.0490 DU        1 4MY      0.178000
     28 H4          0.5960   -1.5120    1.6820 DU        1 4MY      0.258000
     29 H5         -0.1430   -0.3980    1.5080 DU        1 4MY      0.156000
     30 H6          0.2450   -0.5760    0.3340 DU        1 4MY     -0.203000
     31 HO11        0.0250    0.2070   -0.5760 DU        1 4MY      0.369000
     32 HO12        1.9630   -1.5300    0.1950 ho        1 4MY      0.207000
     33 P3          4.3470    1.1700    2.1170 p5        1 4MY      0.950500
     34 P4          2.9360   -2.4180    4.1120 p5        1 4MY      0.955500
     35 P5         -1.4040   -2.3520    4.1520 p5        1 4MY      0.951500
     36 P6         -2.8160   -2.4180    0.0470 p5        1 4MY      0.957500
@<TRIPOS>BOND
     1    1    2 1   
     2    1    6 1   
     3    1    7 1   
     4    1   25 1   
     5    1   30 1   
     6    1   31 1   
     7    2    3 1   
     8    2    8 1   
     9    2   25 1   
    10    2   26 1   
    11    3    4 1   
    12    3    9 1   
    13    3   26 1   
    14    3   27 1   
    15    4    5 1   
    16    4   10 1   
    17    4   27 1   
    18    4   28 1   
    19    5    6 1   
    20    5   11 1   
    21    5   28 1   
    22    5   29 1   
    23    6   12 1   
    24    6   29 1   
    25    6   30 1   
    26    7   31 1   
    27    8   32 1   
    28    9   33 1   
    29   10   34 1   
    30   11   35 1   
    31   12   36 1   
    32   13   33 1   
    33   14   34 1   
    34   15   35 1   
    35   16   36 1   
    36   17   33 1   
    37   18   34 1   
    38   19   35 1   
    39   20   36 1   
    40   21   33 1   
    41   22   34 1   
    42   23   35 1   
    43   24   36 1   
@<TRIPOS>SUBSTRUCTURE
     1 4MY         1 TEMP              0 ****  ****    0 ROOT
