@<TRIPOS>MOLECULE
4MY
   36    32     1     0     0
SMALL
bcc


@<TRIPOS>ATOM
      1 C1         -0.7590   -0.7020   -1.5760 c3        1 4MY      0.006000
      2 C2          0.7650   -0.6760   -1.5750 c3        1 4MY     -0.023000
      3 C3          1.3470   -0.6680   -0.1670 c3        1 4MY      0.074000
      4 P3          2.3310   -2.8410    0.8020 p3        1 4MY      2.596333
      5 C4          0.7460    0.4260    0.7050 c3        1 4MY      0.153000
      6 P4          2.1670    2.5320    1.1230 p3        1 4MY      2.596333
      7 C5         -0.7780    0.4000    0.7040 c3        1 4MY      0.137000
      8 P5         -2.1410   -0.5810    2.6530 p3        1 4MY      2.596333
      9 C6         -1.3600    0.3910   -0.7060 c3        1 4MY      0.087000
     10 P6         -2.3360    2.4610   -1.8870 p3        1 4MY      2.566000
     11 O11        -1.1950   -1.9600   -1.0960 oh        1 4MY     -0.392000
     12 O12         1.2420   -1.8180   -2.2600 oh        1 4MY     -0.441000
     13 O13         1.0980   -1.9220    0.4380 o         1 4MY     -0.784000
     14 O14         1.1810    1.6830    0.2250 o         1 4MY     -0.848000
     15 O15        -1.2150   -0.7580    1.3850 o         1 4MY     -0.847000
     16 O16        -1.1100    1.6450   -1.3100 os        1 4MY     -0.778000
     17 O23         3.0380   -2.2790    2.0120 o         1 4MY     -1.299556
     18 O24         1.4290    3.0380    2.3400 o         1 4MY     -1.299556
     19 O25        -3.4060    0.1410    2.2560 o         1 4MY     -1.299556
     20 O26        -3.1890    1.5520   -2.7380 os        1 4MY     -1.300000
     21 O33         1.8450   -4.2380    1.1060 o         1 4MY     -1.299556
     22 O34         2.6890    3.7040    0.3280 o         1 4MY     -1.299556
     23 O35        -2.4920   -1.9390    3.2140 o         1 4MY     -1.299556
     24 O36        -3.1620    3.0020   -0.7440 o         1 4MY     -1.306000
     25 O43         3.2880   -2.8840   -0.3660 o         1 4MY     -1.299556
     26 O44         3.3230    1.6650    1.5600 o         1 4MY     -1.299556
     27 O45        -1.4110    0.2230    3.7020 o         1 4MY     -1.299556
     28 O46        -1.8270    3.6070   -2.7280 o         1 4MY     -1.306000
     29 H1         -1.0770   -0.5860   -2.4930 h1        1 4MY      0.059000
     30 H2          1.0680    0.1250   -2.0470 h1        1 4MY      0.116000
     31 H3          2.3130   -0.5310   -0.2240 h1        1 4MY      0.056000
     32 H4          1.0640    0.3100    1.6220 h1        1 4MY      0.061000
     33 H5         -1.1080    1.1890    1.1770 h1        1 4MY      0.069000
     34 H6         -2.3260    0.2540   -0.6480 h1        1 4MY      0.060000
     35 HO11       -1.6270   -2.3910   -1.7430 ho        1 4MY      0.249000
     36 HO12        1.5850   -1.5720   -3.0430 ho        1 4MY      0.241000
@<TRIPOS>BOND
     1    1    2 1   
     2    1    9 1   
     3    1   11 1   
     4    1   29 1   
     5    2    3 1   
     6    2   12 1   
     7    2   30 1   
     8    3    5 1   
     9    3   13 1   
    10    3   31 1   
    11    4   17 1   
    12    4   21 1   
    13    4   25 1   
    14    5    7 1   
    15    5   14 1   
    16    5   32 1   
    17    6   18 1   
    18    6   22 1   
    19    6   26 1   
    20    7    9 1   
    21    7   15 1   
    22    7   33 1   
    23    8   19 1   
    24    8   23 1   
    25    8   27 1   
    26    9   16 1   
    27    9   34 1   
    28   10   16 1   
    29   10   24 1   
    30   10   28 1   
    31   11   35 1   
    32   12   36 1   
@<TRIPOS>SUBSTRUCTURE
     1 4MY         1 TEMP              0 ****  ****    0 ROOT
