@<TRIPOS>MOLECULE
4MZ
   12    12     1     0     0
SMALL
bcc


@<TRIPOS>ATOM
      1 CG         -0.0250   -0.0260   -0.0290 cc        1 4MZ      0.304600
      2 ND1         1.3650   -0.2100   -0.0780 nc        1 4MZ     -0.664000
      3 CD2        -0.4300    0.1500    1.3110 cd        1 4MZ     -0.261600
      4 CE1         1.7890   -0.1470    1.2010 cd        1 4MZ      0.386400
      5 NE2         0.7260    0.0710    2.0850 na        1 4MZ     -0.322900
      6 C4         -0.9000   -0.0220   -1.2130 c3        1 4MZ     -0.113400
      7 HD2        -1.4150    0.3170    1.7420 h4        1 4MZ      0.176000
      8 HE1         2.8270   -0.2510    1.5350 h5        1 4MZ      0.059100
      9 HE2         0.7790    0.1550    3.0640 hn        1 4MZ      0.298700
     10 H41        -0.5990    0.7910   -1.9210 hc        1 4MZ      0.046033
     11 H42        -0.8330   -0.9990   -1.7550 hc        1 4MZ      0.046033
     12 H43        -1.9600    0.1460   -0.9040 hc        1 4MZ      0.046033
@<TRIPOS>BOND
     1    1    2 1   
     2    1    3 2   
     3    1    6 1   
     4    2    4 2   
     5    3    5 1   
     6    3    7 1   
     7    4    5 1   
     8    4    8 1   
     9    5    9 1   
    10    6   10 1   
    11    6   11 1   
    12    6   12 1   
@<TRIPOS>SUBSTRUCTURE
     1 4MZ         1 TEMP              0 ****  ****    0 ROOT
