@<TRIPOS>MOLECULE
4MZ
   12     8     1     0     0
SMALL
bcc


@<TRIPOS>ATOM
      1 CG         -0.0990   -0.0150   -0.4320 c1        1 4MZ     -0.145000
      2 ND1         1.2370   -0.0150   -0.4320 n2        1 4MZ     -0.173500
      3 CD2        -0.5210   -0.0150    0.8700 c1        1 4MZ     -0.145000
      4 CE1         1.6560   -0.0150    0.8570 c1        1 4MZ     -0.102000
      5 NE2         0.5600   -0.0150    1.6540 n2        1 4MZ     -0.173500
      6 C4         -0.9880    0.0230   -1.6560 c2        1 4MZ     -0.137000
      7 HD2        -1.4500   -0.0150    1.1720 DU        1 4MZ      0.207000
      8 HE1         2.5840   -0.0150    1.1580 DU        1 4MZ      0.207000
      9 HE2         0.5610   -0.0150    2.5660 DU        1 4MZ      0.207000
     10 H41        -0.4360    0.0020   -2.4600 ha        1 4MZ      0.085333
     11 H42        -1.5200    0.8420   -1.6470 ha        1 4MZ      0.085333
     12 H43        -1.5830   -0.7510   -1.6490 ha        1 4MZ      0.085333
@<TRIPOS>BOND
     1    1    2 1   
     2    1    3 1   
     3    2    4 1   
     4    3    5 1   
     5    4    5 1   
     6    6   10 1   
     7    6   11 1   
     8    6   12 1   
@<TRIPOS>SUBSTRUCTURE
     1 4MZ         1 TEMP              0 ****  ****    0 ROOT
