@<TRIPOS>MOLECULE
4MZ
   12    12     1     0     0
SMALL
bcc


@<TRIPOS>ATOM
      1 CG         -0.0210   -0.0420   -0.0290 cc        1 4MZ      0.304600
      2 ND1         1.3540   -0.3230   -0.0460 nc        1 4MZ     -0.664000
      3 CD2        -0.4290    0.2360    1.2930 cd        1 4MZ     -0.261600
      4 CE1         1.7660   -0.2180    1.2340 cd        1 4MZ      0.386400
      5 NE2         0.7100    0.1230    2.0880 na        1 4MZ     -0.322900
      6 C4         -0.8790   -0.0440   -1.2250 c3        1 4MZ     -0.113400
      7 HD2        -1.4040    0.4940    1.6980 h4        1 4MZ      0.176000
      8 HE1         2.7890   -0.3730    1.5890 h5        1 4MZ      0.059100
      9 HE2         0.7570    0.2570    3.0620 hn        1 4MZ      0.298700
     10 H41        -0.5160    0.7060   -1.9710 hc        1 4MZ      0.046033
     11 H42        -0.8730   -1.0520   -1.7120 hc        1 4MZ      0.046033
     12 H43        -1.9300    0.2110   -0.9420 hc        1 4MZ      0.046033
@<TRIPOS>BOND
     1    1    2 1   
     2    1    3 2   
     3    1    6 1   
     4    2    4 2   
     5    3    5 1   
     6    3    7 1   
     7    4    5 1   
     8    4    8 1   
     9    5    9 1   
    10    6   10 1   
    11    6   11 1   
    12    6   12 1   
@<TRIPOS>SUBSTRUCTURE
     1 4MZ         1 TEMP              0 ****  ****    0 ROOT
