@<TRIPOS>MOLECULE
4MZ
   12    12     1     0     0
SMALL
bcc


@<TRIPOS>ATOM
      1 CG         -0.0090    0.0190    0.7300 cc        1 4MZ      0.304600
      2 ND1        -1.1570    0.1550   -0.0650 nc        1 4MZ     -0.664000
      3 CD2         1.1250   -0.1150   -0.1000 cd        1 4MZ     -0.261600
      4 CE1        -0.7280    0.1040   -1.3430 cd        1 4MZ      0.386400
      5 NE2         0.6610   -0.0600   -1.4130 na        1 4MZ     -0.322900
      6 C4         -0.0180    0.0200    2.2010 c3        1 4MZ     -0.113400
      7 HD2         2.1770   -0.2390    0.1460 h4        1 4MZ      0.176000
      8 HE1        -1.3620    0.1790   -2.2320 h5        1 4MZ      0.059100
      9 HE2         1.2080   -0.1240   -2.2280 hn        1 4MZ      0.298700
     10 H41        -0.4370    0.9820    2.5910 hc        1 4MZ      0.046033
     11 H42        -0.6490   -0.8180    2.5910 hc        1 4MZ      0.046033
     12 H43         1.0220   -0.1030    2.5900 hc        1 4MZ      0.046033
@<TRIPOS>BOND
     1    1    2 1   
     2    1    3 2   
     3    1    6 1   
     4    2    4 2   
     5    3    5 1   
     6    3    7 1   
     7    4    5 1   
     8    4    8 1   
     9    5    9 1   
    10    6   10 1   
    11    6   11 1   
    12    6   12 1   
@<TRIPOS>SUBSTRUCTURE
     1 4MZ         1 TEMP              0 ****  ****    0 ROOT
