@<TRIPOS>MOLECULE
4N5
   38    38     1     0     0
SMALL
bcc


@<TRIPOS>ATOM
      1 CAA         0.0000   -0.8180   -1.0900 c3        1 4N5     -0.280000
      2 CAK         1.3780   -0.4260   -0.6650 c2        1 4N5      0.254000
      3 OAB         1.7120   -0.4110    0.5260 o         1 4N5     -0.283000
      4 CAL         2.3340   -0.0460   -1.7430 c2        1 4N5     -0.066000
      5 CAG         3.5690    0.3760   -1.3980 c2        1 4N5     -0.079000
      6 CAD         1.8890   -0.1590   -3.1140 c2        1 4N5     -0.462000
      7 CAC         0.6840   -0.3900   -3.5890 c1        1 4N5      0.190000
      8 CAE         4.3320    1.8500   -3.2250 c2        1 4N5     -0.138000
      9 CAM         4.5740    0.8510   -2.3570 c2        1 4N5      0.024000
     10 NAN         5.8620    0.2200   -2.2800 na        1 4N5     -0.072000
     11 NAJ         6.7660    0.4440   -1.3070 n2        1 4N5     -0.001000
     12 NAI         7.7850   -0.2970   -1.5480 n2        1 4N5     -0.052000
     13 NAH         7.6280   -1.0300   -2.6420 n2        1 4N5     -0.071000
     14 CAF         6.3980   -0.7390   -3.1620 c2        1 4N5     -0.680000
     15 HAB        -0.6290   -1.0520   -0.1960 hc        1 4N5      0.118333
     16 HAC         0.0400   -1.7300   -1.7390 hc        1 4N5      0.118333
     17 HAA        -0.4890    0.0190   -1.6510 hc        1 4N5      0.118333
     18 HAH         3.8710    0.3900   -0.3320 ha        1 4N5      0.177000
     19 HAE         2.6970   -0.0650   -3.8910 ha        1 4N5      0.240000
     20 HAD         3.3340    2.3090   -3.2760 ha        1 4N5      0.142000
     21 HAF         5.0780    2.2440   -3.9270 ha        1 4N5      0.142000
     22 S1          5.6610   -1.5140   -4.5770 s6        1 4N5      2.900000
     23 C1          7.0480   -1.2570   -5.5770 c3        1 4N5     -0.810000
     24 C2          6.6830   -1.7480   -6.9700 c3        1 4N5     -0.160000
     25 C3          5.3670   -2.3330   -6.8040 c1        1 4N5     -0.189000
     26 C4          4.5690   -3.0360   -7.7050 c2        1 4N5     -0.191000
     27 C5          5.0490   -3.7810   -8.7380 c2        1 4N5      0.034000
     28 C6          4.2140   -4.6130   -9.5690 c2        1 4N5     -0.407000
     29 C7          2.8890   -4.7600   -9.4230 c1        1 4N5      0.355000
     30 Cl1         4.9670   -5.4770  -10.8340 cl        1 4N5      0.051000
     31 O1          5.4750   -2.8280   -4.1680 o         1 4N5     -0.919000
     32 O2          4.5940   -0.6540   -4.8690 o         1 4N5     -0.919000
     33 H1          7.9420   -1.8190   -5.2000 h1        1 4N5      0.164500
     34 H2          7.3600   -0.1840   -5.6100 h1        1 4N5      0.164500
     35 H3          6.6490   -0.8940   -7.7050 hc        1 4N5      0.134500
     36 H4          3.4830   -3.0220   -7.4820 ha        1 4N5      0.166000
     37 H5          6.1350   -3.8170   -8.9500 ha        1 4N5      0.151000
     38 H6          7.4440   -2.4760   -7.3660 hc        1 4N5      0.134500
@<TRIPOS>BOND
     1    1    2 1   
     2    1   15 1   
     3    1   16 1   
     4    1   17 1   
     5    2    3 1   
     6    2    4 1   
     7    4    5 1   
     8    4    6 1   
     9    5    9 1   
    10    5   18 1   
    11    6    7 1   
    12    6   19 1   
    13    8    9 1   
    14    8   20 1   
    15    8   21 1   
    16    9   10 1   
    17   10   11 1   
    18   10   14 1   
    19   11   12 1   
    20   12   13 1   
    21   13   14 1   
    22   14   22 1   
    23   22   23 1   
    24   22   31 1   
    25   22   32 1   
    26   23   24 1   
    27   23   33 1   
    28   23   34 1   
    29   24   25 1   
    30   24   35 1   
    31   24   38 1   
    32   25   26 1   
    33   26   27 1   
    34   26   36 1   
    35   27   28 1   
    36   27   37 1   
    37   28   29 1   
    38   28   30 1   
@<TRIPOS>SUBSTRUCTURE
     1 4N5         1 TEMP              0 ****  ****    0 ROOT
