@<TRIPOS>MOLECULE
4N6
   24    24     1     0     0
SMALL
bcc


@<TRIPOS>ATOM
      1 OAA         0.1860    0.0690    0.1090 o         1 4N6     -0.230500
      2 NAQ         1.0350   -0.6700   -0.3050 no        1 4N6      0.343200
      3 OAC         1.2130   -1.7510    0.2150 o         1 4N6     -0.230500
      4 CAN         1.8550   -0.2740   -1.4540 ca        1 4N6     -0.317200
      5 CAP         2.0000    1.1260   -1.7180 ca        1 4N6     -0.025000
      6 NAI         1.5770    2.2480   -1.0920 nc        1 4N6     -0.086500
      7 OAK         2.0420    3.2800   -1.8030 os        1 4N6      0.199000
      8 NAH         2.7530    2.9450   -2.8630 nc        1 4N6     -0.045500
      9 CAO         2.7840    1.5940   -2.8930 ca        1 4N6     -0.157000
     10 CAL         3.3860    0.6260   -3.7570 ca        1 4N6      0.129400
     11 CAE         3.2460   -0.6940   -3.4690 ca        1 4N6     -0.185000
     12 CAM         2.5000   -1.2010   -2.3120 ca        1 4N6      0.321600
     13 NAJ         2.4390   -2.5440   -2.1270 nu        1 4N6     -0.720600
     14 CAG         3.0390   -3.5040   -3.0050 c3        1 4N6      0.182100
     15 CAF         1.0360   -4.8160    0.5590 c         1 4N6      0.578700
     16 OAB         1.5900   -4.9020   -0.5380 o         1 4N6     -0.569100
     17 HAE         3.7190   -1.4360   -4.1380 ha        1 4N6      0.167000
     18 HAJ         4.1540   -3.3720   -3.0470 h1        1 4N6      0.059700
     19 HAH         1.9740   -2.9220   -1.3180 hn        1 4N6      0.495800
     20 HAI         2.6210   -3.4150   -4.0440 h1        1 4N6      0.059700
     21 HAG         2.8080   -4.5300   -2.6050 h1        1 4N6      0.059700
     22 HAF         0.7990   -5.7190    1.1610 h4        1 4N6     -0.001300
     23 HAB         0.7460   -3.8380    0.9990 h4        1 4N6     -0.001300
     24 Cl1         4.2550    1.1550   -5.1020 cl        1 4N6     -0.024400
@<TRIPOS>BOND
     1    1    2 1   
     2    2    3 1   
     3    2    4 1   
     4    4    5 ar  
     5    4   12 ar  
     6    5    6 2   
     7    5    9 ar  
     8    6    7 1   
     9    7    8 1   
    10    8    9 2   
    11    9   10 ar  
    12   10   11 ar  
    13   10   24 1   
    14   11   12 ar  
    15   11   17 1   
    16   12   13 1   
    17   13   14 1   
    18   13   19 1   
    19   14   18 1   
    20   14   20 1   
    21   14   21 1   
    22   15   16 2   
    23   15   22 1   
    24   15   23 1   
@<TRIPOS>SUBSTRUCTURE
     1 4N6         1 TEMP              0 ****  ****    0 ROOT
