@<TRIPOS>MOLECULE
4NA
   30    24     1     0     0
SMALL
bcc


@<TRIPOS>ATOM
      1 C1         -2.7380    1.3310   -2.5740 c1        1 4NA      0.091000
      2 C2         -1.3610    1.1580   -2.6230 c1        1 4NA     -0.154000
      3 C3         -0.6080    1.1720   -1.4350 c1        1 4NA      0.008000
      4 C4         -1.2350    1.3570   -0.2260 c1        1 4NA     -0.059000
      5 C5         -2.6300    1.5320   -0.1770 c1        1 4NA     -0.085000
      6 C6         -3.3730    1.5180   -1.3510 c1        1 4NA     -0.148500
      7 C9          0.7880    1.0030   -1.4840 c2        1 4NA     -0.124000
      8 C10         1.5310    1.0230   -0.3120 c1        1 4NA     -0.106000
      9 C11         0.8960    1.2100    0.9120 c1        1 4NA     -0.033000
     10 C12        -0.4810    1.3770    0.9620 c2        1 4NA     -0.102000
     11 C16         1.2850   -0.0540    1.3210 c1        1 4NA     -0.075000
     12 C17         0.3380   -1.0540    1.4750 c1        1 4NA     -0.146500
     13 C18         0.7350   -2.3380    1.8120 c1        1 4NA     -0.146500
     14 C19         2.0780   -2.6230    1.9950 c1        1 4NA      0.091000
     15 C20         3.0250   -1.6230    1.8400 c1        1 4NA     -0.148500
     16 C21         2.6290   -0.3390    1.5030 c1        1 4NA     -0.084000
     17 O26         2.4850   -3.9390    2.2850 oh        1 4NA     -0.247000
     18 CL27       -0.5300    0.2630   -3.8690 cl        1 4NA     -0.018000
     19 O28        -3.0960    0.8100   -3.8290 oh        1 4NA     -0.247000
     20 H5         -3.0760    1.6630    0.6810 ha        1 4NA      0.140000
     21 H6         -4.3400    1.6400   -1.3170 ha        1 4NA      0.154500
     22 H9          1.2330    0.8720   -2.3410 ha        1 4NA      0.146000
     23 H10         2.4980    0.9060   -0.3460 ha        1 4NA      0.139000
     24 H12        -0.9250    1.5080    1.8180 ha        1 4NA      0.137000
     25 H17        -0.6080   -0.8540    1.3470 ha        1 4NA      0.136000
     26 H18         0.0680   -3.0410    1.9210 ha        1 4NA      0.136000
     27 H20         3.9710   -1.8240    1.9680 ha        1 4NA      0.154500
     28 H21         3.2950    0.3640    1.3940 ha        1 4NA      0.139000
     29 H26         1.8920   -4.3200    2.8270 ho        1 4NA      0.224500
     30 H28        -3.7450    1.3030   -4.1790 ho        1 4NA      0.224500
@<TRIPOS>BOND
     1    1    6 1   
     2    1   19 1   
     3    2    3 1   
     4    2   18 1   
     5    3    7 1   
     6    4    5 1   
     7    4   10 1   
     8    5   20 1   
     9    6   21 1   
    10    7    8 1   
    11    7   22 1   
    12    8   23 1   
    13    9   10 1   
    14   10   24 1   
    15   11   16 1   
    16   12   13 1   
    17   12   25 1   
    18   13   26 1   
    19   14   15 1   
    20   14   17 1   
    21   15   27 1   
    22   16   28 1   
    23   17   29 1   
    24   19   30 1   
@<TRIPOS>SUBSTRUCTURE
     1 4NA         1 TEMP              0 ****  ****    0 ROOT
