@<TRIPOS>MOLECULE
4NA
   30    32     1     0     0
SMALL
bcc


@<TRIPOS>ATOM
      1 C1         -0.0870    0.0520    0.0070 ca        1 4NA      0.144100
      2 C2          1.3000    0.0430   -0.0110 ca        1 4NA     -0.075600
      3 C3          2.0330    0.0500    1.2130 ca        1 4NA      0.008000
      4 C4          1.3160    0.0660    2.4380 ca        1 4NA     -0.059000
      5 C5         -0.1070    0.0770    2.4220 ca        1 4NA     -0.085000
      6 C6         -0.7990    0.0700    1.2430 ca        1 4NA     -0.140000
      7 C9          3.4540    0.0410    1.2600 ca        1 4NA     -0.124000
      8 C10         4.1200    0.0510    2.4600 ca        1 4NA     -0.106000
      9 C11         3.4080    0.0660    3.6900 cp        1 4NA     -0.033000
     10 C12         2.0270    0.0730    3.6660 ca        1 4NA     -0.102000
     11 C16         4.1410    0.0740    4.9530 cp        1 4NA     -0.075000
     12 C17         3.7020   -0.7030    6.0330 ca        1 4NA     -0.081500
     13 C18         4.3970   -0.7010    7.2390 ca        1 4NA     -0.185500
     14 C19         5.5450    0.0920    7.3690 ca        1 4NA      0.128100
     15 C20         5.9990    0.8800    6.2970 ca        1 4NA     -0.185500
     16 C21         5.2940    0.8620    5.1000 ca        1 4NA     -0.081500
     17 O26         6.2840    0.1480    8.5280 oh        1 4NA     -0.496100
     18 CL27        2.1320    0.0220   -1.4990 cl        1 4NA     -0.096400
     19 O28        -0.8850    0.0470   -1.1090 oh        1 4NA     -0.490100
     20 H5         -0.6440    0.0910    3.3840 ha        1 4NA      0.140000
     21 H6         -1.8990    0.0780    1.2070 ha        1 4NA      0.157000
     22 H9          4.0210    0.0250    0.3160 ha        1 4NA      0.146000
     23 H10         5.2210    0.0380    2.4840 ha        1 4NA      0.139000
     24 H12         1.4520    0.0910    4.6050 ha        1 4NA      0.137000
     25 H17         2.8030   -1.3290    5.9250 ha        1 4NA      0.138000
     26 H18         4.0490   -1.3160    8.0810 ha        1 4NA      0.143500
     27 H20         6.8990    1.4970    6.4200 ha        1 4NA      0.143500
     28 H21         5.6410    1.4810    4.2580 ha        1 4NA      0.138000
     29 H26         5.8660   -0.4360    9.1770 ho        1 4NA      0.420000
     30 H28        -0.3170    0.0360   -1.8960 ho        1 4NA      0.431000
@<TRIPOS>BOND
     1    1    2 ar  
     2    1    6 ar  
     3    1   19 1   
     4    2    3 ar  
     5    2   18 1   
     6    3    4 ar  
     7    3    7 ar  
     8    4    5 ar  
     9    4   10 ar  
    10    5    6 ar  
    11    5   20 1   
    12    6   21 1   
    13    7    8 ar  
    14    7   22 1   
    15    8    9 ar  
    16    8   23 1   
    17    9   10 ar  
    18    9   11 1   
    19   10   24 1   
    20   11   12 ar  
    21   11   16 ar  
    22   12   13 ar  
    23   12   25 1   
    24   13   14 ar  
    25   13   26 1   
    26   14   15 ar  
    27   14   17 1   
    28   15   16 ar  
    29   15   27 1   
    30   16   28 1   
    31   17   29 1   
    32   19   30 1   
@<TRIPOS>SUBSTRUCTURE
     1 4NA         1 TEMP              0 ****  ****    0 ROOT
