@<TRIPOS>MOLECULE
4NA
   30    32     1     0     0
SMALL
bcc


@<TRIPOS>ATOM
      1 C1         -3.9320   -0.9480    0.0180 ca        1 4NA      0.145100
      2 C2         -3.2090    0.2280   -0.1240 ca        1 4NA     -0.075600
      3 C3         -1.7840    0.2010   -0.0970 ca        1 4NA      0.008000
      4 C4         -1.1270   -1.0450    0.0760 ca        1 4NA     -0.059000
      5 C5         -1.8980   -2.2340    0.2190 ca        1 4NA     -0.084000
      6 C6         -3.2640   -2.1970    0.1920 ca        1 4NA     -0.140000
      7 C9         -0.9890    1.3710   -0.2360 ca        1 4NA     -0.124000
      8 C10         0.3820    1.3010   -0.2020 ca        1 4NA     -0.106000
      9 C11         1.0440    0.0560   -0.0300 cp        1 4NA     -0.033000
     10 C12         0.2900   -1.0930    0.1050 ca        1 4NA     -0.101000
     11 C16         2.5040    0.0090    0.0020 cp        1 4NA     -0.075000
     12 C17         3.1950   -1.0250   -0.6500 ca        1 4NA     -0.081500
     13 C18         4.5830   -1.0820   -0.6260 ca        1 4NA     -0.185500
     14 C19         5.2960   -0.0880    0.0650 ca        1 4NA      0.128100
     15 C20         4.6220    0.9510    0.7220 ca        1 4NA     -0.185500
     16 C21         3.2320    0.9930    0.6840 ca        1 4NA     -0.081500
     17 O26         6.6670   -0.1970    0.0550 oh        1 4NA     -0.496100
     18 CL27       -4.0280    1.7100   -0.3310 cl        1 4NA     -0.096400
     19 O28        -5.3010   -1.0330    0.0060 oh        1 4NA     -0.489100
     20 H5         -1.3680   -3.1910    0.3540 ha        1 4NA      0.141000
     21 H6         -3.8790   -3.1020    0.3010 ha        1 4NA      0.157000
     22 H9         -1.4860    2.3440   -0.3750 ha        1 4NA      0.146000
     23 H10         0.9870    2.2130   -0.3180 ha        1 4NA      0.138000
     24 H12         0.7800   -2.0690    0.2460 ha        1 4NA      0.137000
     25 H17         2.6300   -1.7980   -1.1940 ha        1 4NA      0.138000
     26 H18         5.1300   -1.8860   -1.1370 ha        1 4NA      0.143500
     27 H20         5.1870    1.7240    1.2620 ha        1 4NA      0.143500
     28 H21         2.6990    1.8040    1.2040 ha        1 4NA      0.138000
     29 H26         7.0290    0.5450    0.5610 ho        1 4NA      0.420000
     30 H28        -5.6660   -0.1420   -0.1170 ho        1 4NA      0.431000
@<TRIPOS>BOND
     1    1    2 ar  
     2    1    6 ar  
     3    1   19 1   
     4    2    3 ar  
     5    2   18 1   
     6    3    4 ar  
     7    3    7 ar  
     8    4    5 ar  
     9    4   10 ar  
    10    5    6 ar  
    11    5   20 1   
    12    6   21 1   
    13    7    8 ar  
    14    7   22 1   
    15    8    9 ar  
    16    8   23 1   
    17    9   10 ar  
    18    9   11 1   
    19   10   24 1   
    20   11   12 ar  
    21   11   16 ar  
    22   12   13 ar  
    23   12   25 1   
    24   13   14 ar  
    25   13   26 1   
    26   14   15 ar  
    27   14   17 1   
    28   15   16 ar  
    29   15   27 1   
    30   16   28 1   
    31   17   29 1   
    32   19   30 1   
@<TRIPOS>SUBSTRUCTURE
     1 4NA         1 TEMP              0 ****  ****    0 ROOT
