@<TRIPOS>MOLECULE
4NB
   16    16     1     0     0
SMALL
bcc


@<TRIPOS>ATOM
      1 C           2.9190   -0.0430    0.0010 c         1 4NB      0.906200
      2 O1          3.5120    1.0700    0.0010 o         1 4NB     -0.813300
      3 O2          3.4870   -1.1690    0.0010 o         1 4NB     -0.813300
      4 C1          1.3910   -0.0260    0.0010 ca        1 4NB     -0.076600
      5 C2          0.6980    1.1900    0.0010 ca        1 4NB     -0.126000
      6 C3         -0.6920    1.2200    0.0000 ca        1 4NB     -0.093000
      7 C4         -1.4010    0.0040    0.0000 ca        1 4NB     -0.207200
      8 C5         -0.7180   -1.2260    0.0000 ca        1 4NB     -0.093000
      9 C6          0.6710   -1.2270    0.0000 ca        1 4NB     -0.126000
     10 N          -2.8780    0.0210    0.0000 no        1 4NB      0.315200
     11 O1'        -3.4870   -1.0200   -0.0000 o         1 4NB     -0.247000
     12 O2'        -3.4640    1.0750    0.0000 o         1 4NB     -0.247000
     13 H2          1.2860    2.1240    0.0010 ha        1 4NB      0.167000
     14 H3         -1.2340    2.1780    0.0000 ha        1 4NB      0.145000
     15 H5         -1.2820   -2.1720    0.0000 ha        1 4NB      0.145000
     16 H6          1.2390   -2.1730    0.0000 ha        1 4NB      0.167000
@<TRIPOS>BOND
     1    1    2 1   
     2    1    3 1   
     3    1    4 1   
     4    4    5 ar  
     5    4    9 ar  
     6    5    6 ar  
     7    5   13 1   
     8    6    7 ar  
     9    6   14 1   
    10    7    8 ar  
    11    7   10 1   
    12    8    9 ar  
    13    8   15 1   
    14    9   16 1   
    15   10   11 1   
    16   10   12 1   
@<TRIPOS>SUBSTRUCTURE
     1 4NB         1 TEMP              0 ****  ****    0 ROOT
