@<TRIPOS>MOLECULE
4NB
   16    13     1     0     0
SMALL
bcc


@<TRIPOS>ATOM
      1 C           1.4620   -0.0040    2.4850 c1        1 4NB      0.355000
      2 O1          2.7210    0.0180    2.4910 os        1 4NB     -0.548000
      3 O2          0.8280   -0.0340    3.5720 o         1 4NB     -0.548000
      4 C1          0.7120   -0.0070    1.1710 c2        1 4NB     -0.056000
      5 C2          0.2710   -1.2040    0.6290 c2        1 4NB     -0.126000
      6 C3         -0.4450   -1.2040   -0.5590 c1        1 4NB     -0.093000
      7 C4         -0.7180   -0.0080   -1.2040 c1        1 4NB     -0.162000
      8 C5         -0.2760    1.1890   -0.6610 c1        1 4NB     -0.093000
      9 C6          0.4390    1.1890    0.5260 c1        1 4NB     -0.126000
     10 N          -1.4470   -0.0090   -2.4200 no        1 4NB      0.570000
     11 O1'        -1.6260    1.1560   -3.1100 o         1 4NB     -0.397000
     12 O2'        -1.9070   -1.0540   -2.8570 o         1 4NB     -0.397000
     13 H2          0.4730   -2.0470    1.0770 ha        1 4NB      0.167000
     14 H3         -0.7660   -2.0460   -0.9340 ha        1 4NB      0.145000
     15 H5         -0.4620    2.0300   -1.1190 ha        1 4NB      0.145000
     16 H6          0.7390    2.0330    0.9150 ha        1 4NB      0.167000
@<TRIPOS>BOND
     1    1    3 1   
     2    1    4 1   
     3    4    5 1   
     4    4    9 1   
     5    5    6 1   
     6    5   13 1   
     7    6   14 1   
     8    7    8 1   
     9    7   10 1   
    10    8   15 1   
    11    9   16 1   
    12   10   11 1   
    13   10   12 1   
@<TRIPOS>SUBSTRUCTURE
     1 4NB         1 TEMP              0 ****  ****    0 ROOT
