@<TRIPOS>MOLECULE
4NB
   16    16     1     0     0
SMALL
bcc


@<TRIPOS>ATOM
      1 C           0.0410    0.0040    0.0390 c         1 4NB      0.906200
      2 O1          1.3000    0.0120   -0.0220 o         1 4NB     -0.813300
      3 O2         -0.6350   -0.0040    1.1030 o         1 4NB     -0.813300
      4 C1         -0.7280    0.0040   -1.2820 ca        1 4NB     -0.076600
      5 C2         -0.0380    0.0140   -2.5000 ca        1 4NB     -0.126000
      6 C3         -0.7240    0.0140   -3.7090 ca        1 4NB     -0.093000
      7 C4         -2.1310    0.0040   -3.6970 ca        1 4NB     -0.207200
      8 C5         -2.8380   -0.0060   -2.4800 ca        1 4NB     -0.093000
      9 C6         -2.1270   -0.0060   -1.2860 ca        1 4NB     -0.126000
     10 N          -2.8730    0.0040   -4.9730 no        1 4NB      0.315200
     11 O1'        -4.0800   -0.0050   -4.9630 o         1 4NB     -0.247000
     12 O2'        -2.2680    0.0120   -6.0170 o         1 4NB     -0.247000
     13 H2          1.0650    0.0210   -2.4730 ha        1 4NB      0.167000
     14 H3         -0.1790    0.0220   -4.6660 ha        1 4NB      0.145000
     15 H5         -3.9400   -0.0140   -2.4790 ha        1 4NB      0.145000
     16 H6         -2.6500   -0.0140   -0.3140 ha        1 4NB      0.167000
@<TRIPOS>BOND
     1    1    2 1   
     2    1    3 1   
     3    1    4 1   
     4    4    5 ar  
     5    4    9 ar  
     6    5    6 ar  
     7    5   13 1   
     8    6    7 ar  
     9    6   14 1   
    10    7    8 ar  
    11    7   10 1   
    12    8    9 ar  
    13    8   15 1   
    14    9   16 1   
    15   10   11 1   
    16   10   12 1   
@<TRIPOS>SUBSTRUCTURE
     1 4NB         1 TEMP              0 ****  ****    0 ROOT
