@<TRIPOS>MOLECULE
4NC
   16    16     1     0     0
SMALL
bcc


@<TRIPOS>ATOM
      1 C1         -0.0280   -0.1680   -0.0580 ca        1 4NC      0.149100
      2 C2          1.3930   -0.1600   -0.0520 ca        1 4NC      0.095100
      3 C3          2.0860   -0.1090    1.1550 ca        1 4NC     -0.131000
      4 C4          1.3600   -0.0660    2.3600 ca        1 4NC     -0.178200
      5 C5         -0.0410   -0.0730    2.3630 ca        1 4NC     -0.055000
      6 C6         -0.7280   -0.1250    1.1530 ca        1 4NC     -0.205000
      7 O7         -0.6410   -0.2190   -1.2800 oh        1 4NC     -0.460100
      8 O8          2.0150   -0.2040   -1.2760 oh        1 4NC     -0.467100
      9 N9          2.0980   -0.0110    3.6460 no        1 4NC      0.318200
     10 O10         1.4760    0.0260    4.6730 o         1 4NC     -0.209500
     11 O11         3.3010   -0.0060    3.6280 o         1 4NC     -0.209500
     12 H3          3.1890   -0.1020    1.1690 ha        1 4NC      0.175000
     13 H5         -0.5980   -0.0390    3.3160 ha        1 4NC      0.174000
     14 H6         -1.8280   -0.1310    1.1500 ha        1 4NC      0.152000
     15 HO7        -1.6000   -0.2190   -1.1350 ho        1 4NC      0.426000
     16 HO8         2.9730   -0.1930   -1.1230 ho        1 4NC      0.425000
@<TRIPOS>BOND
     1    1    2 ar  
     2    1    6 ar  
     3    1    7 1   
     4    2    3 ar  
     5    2    8 1   
     6    3    4 ar  
     7    3   12 1   
     8    4    5 ar  
     9    4    9 1   
    10    5    6 ar  
    11    5   13 1   
    12    6   14 1   
    13    7   15 1   
    14    8   16 1   
    15    9   10 1   
    16    9   11 1   
@<TRIPOS>SUBSTRUCTURE
     1 4NC         1 TEMP              0 ****  ****    0 ROOT
