@<TRIPOS>MOLECULE
4NC
   16    16     1     0     0
SMALL
bcc


@<TRIPOS>ATOM
      1 C1          0.7090    0.0770    1.8610 ca        1 4NC      0.159100
      2 C2         -0.6360    0.0010    1.4220 ca        1 4NC      0.030100
      3 C3         -0.9380   -0.0610    0.0640 ca        1 4NC     -0.112000
      4 C4          0.1210   -0.0460   -0.8620 ca        1 4NC     -0.185200
      5 C5          1.4570    0.0290   -0.4380 ca        1 4NC     -0.057000
      6 C6          1.7480    0.0900    0.9210 ca        1 4NC     -0.152000
      7 O7          1.0530    0.1400    3.1830 oh        1 4NC     -0.479100
      8 O8         -1.5920   -0.0060    2.4150 oh        1 4NC     -0.511100
      9 N9         -0.1890   -0.1120   -2.3120 no        1 4NC      0.318200
     10 O10         0.7170   -0.1000   -3.1020 o         1 4NC     -0.209500
     11 O11        -1.3390   -0.1760   -2.6590 o         1 4NC     -0.209500
     12 H3         -1.9840   -0.1200   -0.2810 ha        1 4NC      0.174000
     13 H5          2.2750    0.0390   -1.1800 ha        1 4NC      0.176000
     14 H6          2.7900    0.1490    1.2710 ha        1 4NC      0.170000
     15 HO7         0.2390    0.1220    3.7150 ho        1 4NC      0.448000
     16 HO8        -2.4630   -0.0600    1.9940 ho        1 4NC      0.439000
@<TRIPOS>BOND
     1    1    2 ar  
     2    1    6 ar  
     3    1    7 1   
     4    2    3 ar  
     5    2    8 1   
     6    3    4 ar  
     7    3   12 1   
     8    4    5 ar  
     9    4    9 1   
    10    5    6 ar  
    11    5   13 1   
    12    6   14 1   
    13    7   15 1   
    14    8   16 1   
    15    9   10 1   
    16    9   11 1   
@<TRIPOS>SUBSTRUCTURE
     1 4NC         1 TEMP              0 ****  ****    0 ROOT
