@<TRIPOS>MOLECULE
4NC
   16    13     1     0     0
SMALL
bcc


@<TRIPOS>ATOM
      1 C1         -0.9080   -0.0330   -1.2280 c1        1 4NC      0.076600
      2 C2          0.4780   -0.0390   -1.2310 c1        1 4NC      0.076600
      3 C3          1.1740    0.0090   -0.0330 c1        1 4NC     -0.072500
      4 C4          0.4840    0.0610    1.1670 c1        1 4NC     -0.186300
      5 C5         -0.9020    0.0660    1.1700 c1        1 4NC     -0.007500
      6 C6         -1.5980    0.0190   -0.0280 c1        1 4NC     -0.072500
      7 O7         -1.6140   -0.1250   -2.4420 oh        1 4NC     -0.477600
      8 O8          1.1790   -0.0570   -2.4510 oh        1 4NC     -0.477600
      9 N9          1.1950    0.0710    2.3950 no        1 4NC      0.325300
     10 O10         2.4120   -0.0490    2.3970 o         1 4NC     -0.206500
     11 O11         0.5190    0.1920    3.5750 o         1 4NC     -0.206500
     12 H3          2.1500    0.0050   -0.0360 ha        1 4NC      0.113500
     13 H5         -1.3890    0.1030    2.0160 ha        1 4NC      0.117500
     14 H6         -2.5740    0.0220   -0.0250 ha        1 4NC      0.113500
     15 HO7        -2.0260    0.6460   -2.6030 ho        1 4NC      0.441000
     16 HO8         1.4200   -0.8910   -2.6420 ho        1 4NC      0.441000
@<TRIPOS>BOND
     1    1    6 3   
     2    1    7 1   
     3    2    3 3   
     4    2    8 1   
     5    3   12 1   
     6    4    5 3   
     7    4    9 1   
     8    5   13 1   
     9    6   14 1   
    10    7   15 1   
    11    8   16 1   
    12    9   10 1   
    13    9   11 1   
@<TRIPOS>SUBSTRUCTURE
     1 4NC         1 TEMP              0 ****  ****    0 ROOT
