@<TRIPOS>MOLECULE
4ND
   38    38     1     0     0
SMALL
bcc


@<TRIPOS>ATOM
      1 C1        -90.0730  -44.2310  394.8650 c         1 4ND      0.736100
      2 O1        -89.3850  -45.0660  395.4500 o         1 4ND     -0.436100
      3 N5        -90.7280  -43.1790  395.8050 n         1 4ND      0.023800
      4 C3        -92.0720  -43.3170  396.0360 ca        1 4ND     -0.061400
      5 C4        -92.9070  -42.2150  396.4540 ca        1 4ND     -0.019000
      6 C5        -94.2470  -42.4110  396.7070 ca        1 4ND     -0.140000
      7 C6        -94.8320  -43.6830  396.5520 ca        1 4ND      0.112000
      8 C7        -94.0480  -44.7640  396.1030 ca        1 4ND     -0.140000
      9 C8        -92.7080  -44.6020  395.8330 ca        1 4ND     -0.019000
     10 C9        -89.9100  -42.2630  396.3790 ca        1 4ND     -0.061400
     11 C10       -90.2650  -41.5410  397.5930 ca        1 4ND     -0.019000
     12 C11       -89.4110  -40.6080  398.1270 ca        1 4ND     -0.140000
     13 C12       -88.1560  -40.3490  397.5360 ca        1 4ND      0.112000
     14 C13       -87.7550  -41.0790  396.3950 ca        1 4ND     -0.140000
     15 C14       -88.5800  -42.0180  395.8300 ca        1 4ND     -0.019000
     16 N4        -90.3290  -44.1000  393.5420 nt        1 4ND     -0.605000
     17 N3        251.7830  119.2230-1107.1100 nv        1 4ND     -0.951800
     18 N2        250.2840  119.8720-1108.9090 nz        1 4ND     -0.823600
     19 N1        249.6700  120.4660-1106.7070 n2        1 4ND     -0.747100
     20 C15       250.5560  119.8460-1107.4050 c2        1 4ND      0.702100
     21 HC41      -92.4910  -41.1900  396.4930 ha        1 4ND      0.189500
     22 HC51      -94.8820  -41.5570  397.0150 ha        1 4ND      0.215500
     23 HC61      -95.9110  -43.8290  396.7660 ha        1 4ND      0.215500
     24 HC71      -94.5180  -45.7610  395.9760 ha        1 4ND      0.215500
     25 HC81      -92.1060  -45.4790  395.5200 ha        1 4ND      0.189500
     26 H101      -91.1930  -41.8060  398.1370 ha        1 4ND      0.189500
     27 H111      -89.6910  -40.0690  399.0560 ha        1 4ND      0.215500
     28 H121      -87.4740  -39.5940  397.9820 ha        1 4ND      0.215500
     29 H131      -86.7530  -40.8890  395.9560 ha        1 4ND      0.215500
     30 H141      -88.2390  -42.5790  394.9370 ha        1 4ND      0.189500
     31 HN41      -89.9180  -44.7810  392.9300 hn        1 4ND      0.382500
     32 HN31      252.2200  119.5340-1106.2670 hn        1 4ND      0.450800
     33 HN21      251.0870  120.2990-1109.3860 hn        1 4ND      0.477800
     34 HN22      249.4370  120.4240-1109.1050 hn        1 4ND      0.477800
     35 HN11      249.7540  120.4830-1105.7110 hn        1 4ND      0.486400
     36 H42       -90.9100  -43.3940  393.1530 hn        1 4ND      0.382500
     37 H32       251.8370  118.2400-1107.2710 hn        1 4ND      0.450800
     38 H23       250.1520  118.9160-1109.2500 hn        1 4ND      0.477800
@<TRIPOS>BOND
     1    1    2 2   
     2    1    3 1   
     3    1   16 1   
     4    3    4 1   
     5    3   10 1   
     6    4    5 ar  
     7    4    9 ar  
     8    5    6 ar  
     9    5   21 1   
    10    6    7 ar  
    11    6   22 1   
    12    7    8 ar  
    13    7   23 1   
    14    8    9 ar  
    15    8   24 1   
    16    9   25 1   
    17   10   11 ar  
    18   10   15 ar  
    19   11   12 ar  
    20   11   26 1   
    21   12   13 ar  
    22   12   27 1   
    23   13   14 ar  
    24   13   28 1   
    25   14   15 ar  
    26   14   29 1   
    27   15   30 1   
    28   16   31 1   
    29   16   36 1   
    30   17   20 1   
    31   17   32 1   
    32   17   37 1   
    33   18   20 1   
    34   18   33 1   
    35   18   34 1   
    36   18   38 1   
    37   19   20 2   
    38   19   35 1   
@<TRIPOS>SUBSTRUCTURE
     1 4ND         1 TEMP              0 ****  ****    0 ROOT
