@<TRIPOS>MOLECULE
4ND
   35    36     1     0     0
SMALL
bcc


@<TRIPOS>ATOM
      1 C1          3.4350    3.9970   -1.7800 c         1 4ND      0.736100
      2 O1          3.0260    2.8570   -1.4660 o         1 4ND     -0.603100
      3 N5          4.7130    4.1940   -2.3370 n         1 4ND     -0.301200
      4 C3          5.1930    5.5070   -2.6130 ca        1 4ND      0.047100
      5 C4          5.3630    5.9470   -3.9420 ca        1 4ND     -0.136750
      6 C5          5.8390    7.2310   -4.1960 ca        1 4ND     -0.118250
      7 C6          6.1480    8.0920   -3.1450 ca        1 4ND     -0.132500
      8 C7          5.9830    7.6650   -1.8280 ca        1 4ND     -0.118250
      9 C8          5.5130    6.3830   -1.5540 ca        1 4ND     -0.136750
     10 C9          5.5060    3.0950   -2.7670 ca        1 4ND      0.047100
     11 C10         6.9120    3.1720   -2.6520 ca        1 4ND     -0.136750
     12 C11         7.7050    2.1110   -3.0780 ca        1 4ND     -0.118250
     13 C12         7.1250    0.9610   -3.6130 ca        1 4ND     -0.132500
     14 C13         5.7390    0.8770   -3.7220 ca        1 4ND     -0.118250
     15 C14         4.9260    1.9300   -3.3100 ca        1 4ND     -0.136750
     16 N4          2.5720    5.1430   -1.6280 n         1 4ND     -0.395300
     17 N3          1.4640    5.0570   -0.8280 nh        1 4ND     -0.575200
     18 N2         -0.9160    4.5530   -0.7700 nh        1 4ND     -0.878800
     19 N1         -0.0460    5.4520   -2.7810 n2        1 4ND     -0.846100
     20 C15         0.1700    5.0440   -1.5650 c2        1 4ND      0.718100
     21 HC41        5.1250    5.2760   -4.7830 ha        1 4ND      0.148500
     22 HC51        5.9690    7.5640   -5.2370 ha        1 4ND      0.137750
     23 HC61        6.5210    9.1060   -3.3530 ha        1 4ND      0.136500
     24 HC71        6.2300    8.3410   -0.9950 ha        1 4ND      0.137750
     25 HC81        5.4030    6.0570   -0.5080 ha        1 4ND      0.148500
     26 H101        7.3880    4.0710   -2.2320 ha        1 4ND      0.148500
     27 H111        8.7990    2.1830   -2.9850 ha        1 4ND      0.137750
     28 H121        7.7580    0.1250   -3.9430 ha        1 4ND      0.136500
     29 H131        5.2730   -0.0290   -4.1380 ha        1 4ND      0.137750
     30 H141        3.8310    1.8350   -3.3870 ha        1 4ND      0.148500
     31 HN41        3.0530    6.0060   -1.4160 hn        1 4ND      0.316500
     32 HN31        1.5110    4.2260   -0.2400 hn        1 4ND      0.400800
     33 HN21       -1.8000    4.6580   -1.2260 hn        1 4ND      0.394800
     34 HN22       -0.9300    4.9440    0.1490 hn        1 4ND      0.394800
     35 HN11        0.7490    5.6770   -3.3350 hn        1 4ND      0.412400
@<TRIPOS>BOND
     1    1    2 2   
     2    1    3 1   
     3    1   16 1   
     4    3    4 1   
     5    3   10 1   
     6    4    5 ar  
     7    4    9 ar  
     8    5    6 ar  
     9    5   21 1   
    10    6    7 ar  
    11    6   22 1   
    12    7    8 ar  
    13    7   23 1   
    14    8    9 ar  
    15    8   24 1   
    16    9   25 1   
    17   10   11 ar  
    18   10   15 ar  
    19   11   12 ar  
    20   11   26 1   
    21   12   13 ar  
    22   12   27 1   
    23   13   14 ar  
    24   13   28 1   
    25   14   15 ar  
    26   14   29 1   
    27   15   30 1   
    28   16   17 1   
    29   16   31 1   
    30   17   20 1   
    31   17   32 1   
    32   18   20 1   
    33   18   33 1   
    34   18   34 1   
    35   19   20 2   
    36   19   35 1   
@<TRIPOS>SUBSTRUCTURE
     1 4ND         1 TEMP              0 ****  ****    0 ROOT
