@<TRIPOS>MOLECULE
4ND
   35    30     1     0     0
SMALL
bcc


@<TRIPOS>ATOM
      1 C1          1.0270   -0.1140   -0.8010 c1        1 4ND      0.367000
      2 O1          2.3050   -0.0680   -0.8080 o         1 4ND     -0.402000
      3 N5          0.3340   -0.1860    0.4230 n2        1 4ND     -0.237000
      4 C3          1.0910   -0.2080    1.6990 c2        1 4ND      0.042000
      5 C4          1.6180   -1.4090    2.1790 c2        1 4ND     -0.128000
      6 C5          2.3370   -1.4260    3.3730 c1        1 4ND     -0.121500
      7 C6          2.5350   -0.2260    4.1000 c1        1 4ND     -0.126750
      8 C7          2.0090    0.9730    3.6200 c1        1 4ND     -0.126750
      9 C8          1.2890    0.9910    2.4260 c1        1 4ND     -0.133500
     10 C9         -1.1530   -0.2420    0.4380 c2        1 4ND      0.042000
     11 C10        -1.8960    0.9110    0.2070 c2        1 4ND     -0.128000
     12 C11        -3.2880    0.8700    0.2820 c1        1 4ND     -0.121500
     13 C12        -3.9300   -0.3190    0.5860 c1        1 4ND     -0.126750
     14 C13        -3.1850   -1.4740    0.8180 c1        1 4ND     -0.126750
     15 C14        -1.7990   -1.4340    0.7430 c1        1 4ND     -0.133500
     16 N4          0.2920   -0.0870   -2.0580 n3        1 4ND     -0.274000
     17 N3          0.9540   -0.2150   -3.2260 n3        1 4ND     -0.170000
     18 N2          0.6360    2.0960   -4.1550 n3        1 4ND     -0.366000
     19 N1          0.3380    0.1270   -5.5130 n1        1 4ND     -0.307000
     20 C15         0.6350    0.6470   -4.3330 c2        1 4ND      0.143000
     21 HC41        1.4760   -2.2640    1.6630 ha        1 4ND      0.157000
     22 HC51        2.7050   -2.2640    3.7080 ha        1 4ND      0.138500
     23 HC61        3.0540   -0.2400    4.9630 ha        1 4ND      0.136500
     24 HC71        2.1410    1.7790    4.1080 ha        1 4ND      0.136500
     25 HC81        0.9260    1.8220    2.0960 ha        1 4ND      0.145500
     26 H101       -1.4390    1.7590   -0.0100 ha        1 4ND      0.157000
     27 H111       -3.8050    1.6730    0.1210 ha        1 4ND      0.138500
     28 H121       -4.9050   -0.3480    0.6390 ha        1 4ND      0.136500
     29 H131       -3.6300   -2.2970    1.0290 ha        1 4ND      0.136500
     30 H141       -1.2770   -2.2430    0.9060 ha        1 4ND      0.145500
     31 HN41       -0.6330    0.0050   -2.0550 hn        1 4ND      0.242000
     32 HN31        1.5960   -0.9050   -3.3340 hn        1 4ND      0.165000
     33 HN21        0.3890    2.6330   -4.8350 hn        1 4ND      0.218500
     34 HN22        0.9180    2.4570   -3.3720 hn        1 4ND      0.218500
     35 HN11        0.3370   -0.7710   -5.6250 DU        1 4ND      0.163000
@<TRIPOS>BOND
     1    1    2 1   
     2    1   16 1   
     3    3    4 1   
     4    3   10 1   
     5    4    5 1   
     6    4    9 1   
     7    5    6 1   
     8    5   21 1   
     9    6   22 1   
    10    7    8 1   
    11    7   23 1   
    12    8   24 1   
    13    9   25 1   
    14   10   11 1   
    15   10   15 1   
    16   11   12 1   
    17   11   26 1   
    18   12   27 1   
    19   13   14 1   
    20   13   28 1   
    21   14   29 1   
    22   15   30 1   
    23   16   17 1   
    24   16   31 1   
    25   17   20 1   
    26   17   32 1   
    27   18   20 1   
    28   18   33 1   
    29   18   34 1   
    30   19   20 1   
@<TRIPOS>SUBSTRUCTURE
     1 4ND         1 TEMP              0 ****  ****    0 ROOT
