@<TRIPOS>MOLECULE
4ND
   38    38     1     0     0
SMALL
bcc


@<TRIPOS>ATOM
      1 C1         26.1130   -9.6300  475.8000 c1        1 4ND      0.668500
      2 O1         26.1610   -9.6310  476.9720 o         1 4ND     -0.184500
      3 N5         26.0610   -9.6910  474.5000 nh        1 4ND      0.017400
      4 C3         27.2770   -9.5630  473.7270 ca        1 4ND     -0.090700
      5 C4         27.4310   -8.4700  472.8560 ca        1 4ND     -0.100250
      6 C5         28.5900   -8.3800  472.0870 ca        1 4ND     -0.106500
      7 C6         29.5820   -9.3560  472.1820 ca        1 4ND     -0.073500
      8 C7         29.4210  -10.4380  473.0500 ca        1 4ND     -0.106500
      9 C8         28.2720  -10.5550  473.8290 ca        1 4ND     -0.100250
     10 C9         24.7710   -9.7260  473.8420 ca        1 4ND     -0.090700
     11 C10        24.3140  -10.9430  473.3050 ca        1 4ND     -0.100250
     12 C11        23.0880  -10.9650  472.6410 ca        1 4ND     -0.106500
     13 C12        22.3280   -9.8030  472.5130 ca        1 4ND     -0.073500
     14 C13        22.7910   -8.5990  473.0490 ca        1 4ND     -0.106500
     15 C14        24.0130   -8.5460  473.7160 ca        1 4ND     -0.100250
     16 N4        -54.3250   19.1430 -907.2870 n3        1 4ND     -0.660600
     17 N3        -53.6880   18.2290 -908.0980 n4        1 4ND     -0.525800
     18 N2        -52.3710   17.6460 -910.2130 n4        1 4ND     -0.818600
     19 N1        -53.0290   19.9010 -909.8890 n2        1 4ND     -0.597100
     20 C15       -53.0480   18.7260 -909.4160 c2        1 4ND      0.553100
     21 HC41       26.6490   -7.6980  472.7650 ha        1 4ND      0.158250
     22 HC51       28.7170   -7.5270  471.3990 ha        1 4ND      0.170250
     23 HC61       30.4960   -9.2740  471.5700 ha        1 4ND      0.170000
     24 HC71       30.2040  -11.2110  473.1220 ha        1 4ND      0.170250
     25 HC81       28.1570  -11.4190  474.5020 ha        1 4ND      0.158250
     26 H101       24.9060  -11.8680  473.3910 ha        1 4ND      0.158250
     27 H111       22.7230  -11.9150  472.2150 ha        1 4ND      0.170250
     28 H121       21.3590   -9.8330  471.9870 ha        1 4ND      0.170000
     29 H131       22.1900   -7.6800  472.9460 ha        1 4ND      0.170250
     30 H141       24.3680   -7.5880  474.1270 ha        1 4ND      0.158250
     31 HN41      -55.1570   19.5510 -907.7050 hn        1 4ND      0.465800
     32 HN31      -54.3980   17.4960 -908.3270 hn        1 4ND      0.512800
     33 HN21      -51.5970   17.2250 -909.6750 hn        1 4ND      0.514133
     34 HN22      -51.9670   18.0590 -911.0850 hn        1 4ND      0.514133
     35 HN11      -53.4290   20.7280 -909.4870 hn        1 4ND      0.548400
     36 H42       -53.7040   19.8430 -906.8920 hn        1 4ND      0.465800
     37 H32       -52.9430   17.7870 -907.5100 hn        1 4ND      0.512800
     38 H23       -53.0480   16.9190 -910.4930 hn        1 4ND      0.514133
@<TRIPOS>BOND
     1    1    2 2   
     2    1    3 2   
     3    3    4 1   
     4    3   10 1   
     5    4    5 ar  
     6    4    9 ar  
     7    5    6 ar  
     8    5   21 1   
     9    6    7 ar  
    10    6   22 1   
    11    7    8 ar  
    12    7   23 1   
    13    8    9 ar  
    14    8   24 1   
    15    9   25 1   
    16   10   11 ar  
    17   10   15 ar  
    18   11   12 ar  
    19   11   26 1   
    20   12   13 ar  
    21   12   27 1   
    22   13   14 ar  
    23   13   28 1   
    24   14   15 ar  
    25   14   29 1   
    26   15   30 1   
    27   16   17 1   
    28   16   31 1   
    29   16   36 1   
    30   17   20 1   
    31   17   32 1   
    32   17   37 1   
    33   18   20 1   
    34   18   33 1   
    35   18   34 1   
    36   18   38 1   
    37   19   20 2   
    38   19   35 1   
@<TRIPOS>SUBSTRUCTURE
     1 4ND         1 TEMP              0 ****  ****    0 ROOT
