@<TRIPOS>MOLECULE
4ND
   39    38     1     0     0
SMALL
bcc


@<TRIPOS>ATOM
      1 C1       1405.4170-1122.9170 -192.8590 c1        1 4ND      0.699500
      2 O1       1406.3850-1122.9330 -192.2050 o         1 4ND     -0.127500
      3 N5       -233.1120  137.0160  450.2680 nh        1 4ND     -0.254000
      4 C3       -233.3370  136.3520  449.1030 ca        1 4ND      0.023600
      5 C4       -234.7150  136.0710  448.7210 ca        1 4ND     -0.017500
      6 C5       -234.9840  135.3680  447.5730 ca        1 4ND     -0.137000
      7 C6       -233.9410  134.9340  446.7260 ca        1 4ND      0.122000
      8 C7       -232.6030  135.2520  447.0420 ca        1 4ND     -0.137000
      9 C8       -232.2920  135.9510  448.1840 ca        1 4ND     -0.017500
     10 C9       -231.9660  137.1590  450.9860 ca        1 4ND      0.023600
     11 C10      -230.8030  136.3100  450.8320 ca        1 4ND     -0.017500
     12 C11      -229.6700  136.5440  451.5750 ca        1 4ND     -0.137000
     13 C12      -229.6230  137.5930  452.5190 ca        1 4ND      0.122000
     14 C13      -230.7650  138.3950  452.7330 ca        1 4ND     -0.137000
     15 C14      -231.9160  138.1910  452.0130 ca        1 4ND     -0.017500
     16 N4       1404.3470-1122.8990 -193.5820 n3        1 4ND     -0.364400
     17 N3       -149.7960  232.8820 -980.6400 nh        1 4ND     -0.951800
     18 N2       -149.0810  235.1870 -980.9310 n4        1 4ND     -0.823600
     19 N1       -149.0370  233.7810 -982.8290 n2        1 4ND     -0.746100
     20 C15      -149.2840  233.8110 -981.5660 c2        1 4ND      0.702100
     21 HC41     -235.5490  136.3940  449.3750 ha        1 4ND      0.191000
     22 HC51     -236.0350  135.1350  447.3010 ha        1 4ND      0.219000
     23 HC61     -234.1750  134.3630  445.8020 ha        1 4ND      0.219000
     24 HC71     -231.7970  134.9530  446.3400 ha        1 4ND      0.219000
     25 HC81     -231.2470  136.2720  448.3580 ha        1 4ND      0.191000
     26 H101     -230.8470  135.4230  450.1710 ha        1 4ND      0.191000
     27 H111     -228.7850  135.8860  451.4560 ha        1 4ND      0.219000
     28 H121     -228.6990  137.7720  453.1080 ha        1 4ND      0.219000
     29 H131     -230.7260  139.2000  453.4970 ha        1 4ND      0.219000
     30 H141     -232.7980  138.8390  452.1920 ha        1 4ND      0.191000
     31 HN41     1403.7730-1123.7280 -193.6690 hn        1 4ND      0.395700
     32 HN31     -150.3380  232.1450 -981.0410 hn        1 4ND      0.450800
     33 HN21     -148.8090  235.8710 -981.6510 hn        1 4ND      0.477800
     34 HN22     -149.9600  235.4840 -980.4920 hn        1 4ND      0.477800
     35 HN11     -149.1220  232.9180 -983.3250 hn        1 4ND      0.486400
     36 H51      -233.9330  137.4810  450.6660 hn        1 4ND      0.505800
     37 H42      1404.0710-1122.0550 -194.0690 hn        1 4ND      0.395700
     38 H32      -149.1850  232.6000 -979.9040 hn        1 4ND      0.450800
     39 H23      -148.3460  235.1310 -980.2210 hn        1 4ND      0.477800
@<TRIPOS>BOND
     1    1    2 2   
     2    1   16 2   
     3    3    4 1   
     4    3   10 1   
     5    3   36 1   
     6    4    5 ar  
     7    4    9 ar  
     8    5    6 ar  
     9    5   21 1   
    10    6    7 ar  
    11    6   22 1   
    12    7    8 ar  
    13    7   23 1   
    14    8    9 ar  
    15    8   24 1   
    16    9   25 1   
    17   10   11 ar  
    18   10   15 ar  
    19   11   12 ar  
    20   11   26 1   
    21   12   13 ar  
    22   12   27 1   
    23   13   14 ar  
    24   13   28 1   
    25   14   15 ar  
    26   14   29 1   
    27   15   30 1   
    28   16   31 1   
    29   16   37 1   
    30   17   20 1   
    31   17   32 1   
    32   17   38 1   
    33   18   20 1   
    34   18   33 1   
    35   18   34 1   
    36   18   39 1   
    37   19   20 2   
    38   19   35 1   
@<TRIPOS>SUBSTRUCTURE
     1 4ND         1 TEMP              0 ****  ****    0 ROOT
