@<TRIPOS>MOLECULE
4NE
   53    52     1     0     0
SMALL
bcc


@<TRIPOS>ATOM
      1 C10         1.2860   -0.0010   -0.9720 c3        1 4NE     -0.559600
      2 C13         5.0710   -0.0050   -0.2790 c3        1 4NE     -0.100100
      3 C15        -2.5800    0.0030   -0.1880 c3        1 4NE     -0.063400
      4 C17        -5.0710    0.0050   -0.2790 c3        1 4NE     -0.100100
      5 P01        -0.0000   -0.0000   -0.0000 p5        1 4NE      1.624800
      6 C02        -0.0010   -1.2860    0.9720 c3        1 4NE     -0.559600
      7 C03        -0.0030   -2.5800    0.1880 c3        1 4NE     -0.063400
      8 C04        -0.0040   -3.7980    1.0870 c3        1 4NE     -0.074400
      9 C05        -0.0050   -5.0710    0.2790 c3        1 4NE     -0.100100
     10 C06         0.0010    1.2860    0.9720 c3        1 4NE     -0.559600
     11 C07         0.0030    2.5800    0.1880 c3        1 4NE     -0.063400
     12 C08         0.0040    3.7980    1.0860 c3        1 4NE     -0.074400
     13 C09         0.0050    5.0710    0.2790 c3        1 4NE     -0.100100
     14 C11         2.5800   -0.0030   -0.1880 c3        1 4NE     -0.063400
     15 C12         3.7980   -0.0040   -1.0870 c3        1 4NE     -0.074400
     16 C14        -1.2860    0.0010   -0.9720 c3        1 4NE     -0.559600
     17 C16        -3.7980    0.0040   -1.0860 c3        1 4NE     -0.074400
     18 H10         1.3240   -0.8800   -1.6800 hc        1 4NE      0.145700
     19 H10A        1.3250    0.8770   -1.6800 hc        1 4NE      0.145700
     20 H13         5.9550   -0.0060   -0.9630 hc        1 4NE      0.048033
     21 H13A        5.1310    0.9010    0.3710 hc        1 4NE      0.048033
     22 H13B        5.1290   -0.9110    0.3710 hc        1 4NE      0.048033
     23 H15        -2.6070   -0.9070    0.4700 hc        1 4NE      0.050700
     24 H15A       -2.6050    0.9120    0.4700 hc        1 4NE      0.050700
     25 H17        -5.9550    0.0060   -0.9630 hc        1 4NE      0.048033
     26 H17A       -5.1310   -0.9010    0.3710 hc        1 4NE      0.048033
     27 H17B       -5.1290    0.9110    0.3710 hc        1 4NE      0.048033
     28 H02         0.8770   -1.3250    1.6800 hc        1 4NE      0.145700
     29 H02A       -0.8800   -1.3240    1.6800 hc        1 4NE      0.145700
     30 H03        -0.9120   -2.6050   -0.4700 hc        1 4NE      0.050700
     31 H03A        0.9070   -2.6070   -0.4700 hc        1 4NE      0.050700
     32 H04         0.9000   -3.7720    1.7520 hc        1 4NE      0.052700
     33 H04A       -0.9070   -3.7710    1.7520 hc        1 4NE      0.052700
     34 H05        -0.9110   -5.1290   -0.3710 hc        1 4NE      0.048033
     35 H05A        0.9010   -5.1310   -0.3710 hc        1 4NE      0.048033
     36 H05B       -0.0060   -5.9550    0.9630 hc        1 4NE      0.048033
     37 H06        -0.8770    1.3260    1.6800 hc        1 4NE      0.145700
     38 H06A        0.8800    1.3240    1.6800 hc        1 4NE      0.145700
     39 H07         0.9120    2.6050   -0.4700 hc        1 4NE      0.050700
     40 H07A       -0.9070    2.6070   -0.4710 hc        1 4NE      0.050700
     41 H08        -0.9000    3.7720    1.7520 hc        1 4NE      0.052700
     42 H08A        0.9070    3.7710    1.7520 hc        1 4NE      0.052700
     43 H09         0.9110    5.1290   -0.3710 hc        1 4NE      0.048033
     44 H09A       -0.9010    5.1310   -0.3710 hc        1 4NE      0.048033
     45 H09B        0.0060    5.9550    0.9620 hc        1 4NE      0.048033
     46 H11         2.6070    0.9070    0.4700 hc        1 4NE      0.050700
     47 H11A        2.6050   -0.9120    0.4700 hc        1 4NE      0.050700
     48 H12         3.7720    0.9000   -1.7520 hc        1 4NE      0.052700
     49 H12A        3.7710   -0.9070   -1.7520 hc        1 4NE      0.052700
     50 H14        -1.3250   -0.8770   -1.6800 hc        1 4NE      0.145700
     51 H14A       -1.3240    0.8800   -1.6800 hc        1 4NE      0.145700
     52 H16        -3.7710    0.9070   -1.7520 hc        1 4NE      0.052700
     53 H16A       -3.7720   -0.9000   -1.7520 hc        1 4NE      0.052700
@<TRIPOS>BOND
     1    1    5 1   
     2    1   14 1   
     3    1   18 1   
     4    1   19 1   
     5    2   15 1   
     6    2   20 1   
     7    2   21 1   
     8    2   22 1   
     9    3   16 1   
    10    3   17 1   
    11    3   23 1   
    12    3   24 1   
    13    4   17 1   
    14    4   25 1   
    15    4   26 1   
    16    4   27 1   
    17    5    6 1   
    18    5   10 1   
    19    5   16 1   
    20    6    7 1   
    21    6   28 1   
    22    6   29 1   
    23    7    8 1   
    24    7   30 1   
    25    7   31 1   
    26    8    9 1   
    27    8   32 1   
    28    8   33 1   
    29    9   34 1   
    30    9   35 1   
    31    9   36 1   
    32   10   11 1   
    33   10   37 1   
    34   10   38 1   
    35   11   12 1   
    36   11   39 1   
    37   11   40 1   
    38   12   13 1   
    39   12   41 1   
    40   12   42 1   
    41   13   43 1   
    42   13   44 1   
    43   13   45 1   
    44   14   15 1   
    45   14   46 1   
    46   14   47 1   
    47   15   48 1   
    48   15   49 1   
    49   16   50 1   
    50   16   51 1   
    51   17   52 1   
    52   17   53 1   
@<TRIPOS>SUBSTRUCTURE
     1 4NE         1 TEMP              0 ****  ****    0 ROOT
