@<TRIPOS>MOLECULE
4NF
   18    16     1     0     0
SMALL
bcc


@<TRIPOS>ATOM
      1 N2          1.2090    0.4860   -2.0190 n         1 4NF     -0.247000
      2 S2          1.7420   -2.0110   -2.8380 s         1 4NF     -0.089000
      3 C4          2.1970   -0.4690   -2.3750 c2        1 4NF     -0.074000
      4 O4         -2.1660   -1.2960    3.0060 o         1 4NF     -0.305200
      5 C5          0.4580    0.3190   -0.8270 c2        1 4NF      0.092000
      6 C6          0.0080    1.4290   -0.1300 c1        1 4NF     -0.189000
      7 C7         -0.7540    1.2660    1.0160 c1        1 4NF     -0.043000
      8 C8         -1.0670   -0.0070    1.4650 c1        1 4NF     -0.158000
      9 C9         -0.6170   -1.1170    0.7680 c2        1 4NF     -0.038000
     10 C10         0.1450   -0.9550   -0.3780 c2        1 4NF     -0.173000
     11 N3         -1.8520   -0.1740    2.6360 n2        1 4NF      0.463400
     12 O3         -2.2790    0.9200    3.3320 o         1 4NF     -0.305200
     13 H1          1.0530    1.2030   -2.5600 hn        1 4NF      0.237000
     14 H3          3.1410   -0.2180   -2.3720 h5        1 4NF      0.136000
     15 H5          0.2280    2.3260   -0.4470 ha        1 4NF      0.145000
     16 H6         -1.0710    2.0490    1.5070 ha        1 4NF      0.173000
     17 H7         -0.8370   -2.0140    1.0850 ha        1 4NF      0.177000
     18 H8          0.4620   -1.7370   -0.8690 ha        1 4NF      0.198000
@<TRIPOS>BOND
     1    1    3 1   
     2    1    5 1   
     3    1   13 1   
     4    2    3 1   
     5    3   14 1   
     6    4   11 2   
     7    5    6 1   
     8    5   10 1   
     9    6   15 1   
    10    7    8 1   
    11    7   16 1   
    12    8    9 1   
    13    9   10 1   
    14    9   17 1   
    15   10   18 1   
    16   11   12 2   
@<TRIPOS>SUBSTRUCTURE
     1 4NF         1 TEMP              0 ****  ****    0 ROOT
