@<TRIPOS>MOLECULE
4NF
   18    18     1     0     0
SMALL
bcc


@<TRIPOS>ATOM
      1 N2          0.1500   -0.2350    0.1320 n         1 4NF     -0.393100
      2 S2          2.4130    1.0760    0.7030 s         1 4NF     -0.372400
      3 C4          1.3930    0.2580   -0.1440 c         1 4NF      0.369200
      4 O4         -2.5610    0.6540    5.8330 o         1 4NF     -0.209500
      5 C5         -0.5860   -0.1320    1.3220 ca        1 4NF      0.084600
      6 C6         -0.1140    0.5390    2.4710 ca        1 4NF     -0.181000
      7 C7         -0.8930    0.6060    3.6200 ca        1 4NF     -0.040500
      8 C8         -2.1590    0.0050    3.6450 ca        1 4NF     -0.203200
      9 C9         -2.6480   -0.6670    2.5110 ca        1 4NF     -0.040500
     10 C10        -1.8720   -0.7340    1.3660 ca        1 4NF     -0.181000
     11 N3         -2.9900    0.0760    4.8710 no        1 4NF      0.317200
     12 O3         -4.0740   -0.4460    4.8710 o         1 4NF     -0.209500
     13 H1         -0.3120   -0.7390   -0.5980 hn        1 4NF      0.323500
     14 H3          1.6630   -0.0170   -1.1970 h5        1 4NF      0.043200
     15 H5          0.8860    1.0200    2.4680 ha        1 4NF      0.171500
     16 H6         -0.5090    1.1340    4.5120 ha        1 4NF      0.175000
     17 H7         -3.6460   -1.1400    2.5340 ha        1 4NF      0.175000
     18 H8         -2.2720   -1.2660    0.4880 ha        1 4NF      0.171500
@<TRIPOS>BOND
     1    1    3 1   
     2    1    5 1   
     3    1   13 1   
     4    2    3 2   
     5    3   14 1   
     6    4   11 1   
     7    5    6 ar  
     8    5   10 ar  
     9    6    7 ar  
    10    6   15 1   
    11    7    8 ar  
    12    7   16 1   
    13    8    9 ar  
    14    8   11 1   
    15    9   10 ar  
    16    9   17 1   
    17   10   18 1   
    18   11   12 1   
@<TRIPOS>SUBSTRUCTURE
     1 4NF         1 TEMP              0 ****  ****    0 ROOT
