@<TRIPOS>MOLECULE
4NF
   18    18     1     0     0
SMALL
bcc


@<TRIPOS>ATOM
      1 N2          2.4300    1.0390    0.1540 n         1 4NF     -0.393100
      2 S2          3.6590   -1.2760    0.6990 s         1 4NF     -0.372400
      3 C4          3.5160    0.2430    0.3840 c         1 4NF      0.369200
      4 O4         -3.4850   -1.3370    0.2540 o         1 4NF     -0.209500
      5 C5          1.0730    0.6830    0.1380 ca        1 4NF      0.084600
      6 C6          0.6130   -0.6310    0.3740 ca        1 4NF     -0.181000
      7 C7         -0.7460   -0.9190    0.3450 ca        1 4NF     -0.040500
      8 C8         -1.6730    0.0990    0.0800 ca        1 4NF     -0.203200
      9 C9         -1.2360    1.4140   -0.1570 ca        1 4NF     -0.040500
     10 C10         0.1190    1.7010   -0.1280 ca        1 4NF     -0.181000
     11 N3         -3.1240   -0.2090    0.0490 no        1 4NF      0.317200
     12 O3         -3.9020    0.6790   -0.1790 o         1 4NF     -0.209500
     13 H1          2.6060    2.0070   -0.0300 hn        1 4NF      0.323500
     14 H3          4.4420    0.8710    0.3160 h5        1 4NF      0.043200
     15 H5          1.3330   -1.4470    0.5850 ha        1 4NF      0.171500
     16 H6         -1.0910   -1.9520    0.5310 ha        1 4NF      0.175000
     17 H7         -1.9690    2.2130   -0.3650 ha        1 4NF      0.175000
     18 H8          0.4420    2.7370   -0.3160 ha        1 4NF      0.171500
@<TRIPOS>BOND
     1    1    3 1   
     2    1    5 1   
     3    1   13 1   
     4    2    3 2   
     5    3   14 1   
     6    4   11 1   
     7    5    6 ar  
     8    5   10 ar  
     9    6    7 ar  
    10    6   15 1   
    11    7    8 ar  
    12    7   16 1   
    13    8    9 ar  
    14    8   11 1   
    15    9   10 ar  
    16    9   17 1   
    17   10   18 1   
    18   11   12 1   
@<TRIPOS>SUBSTRUCTURE
     1 4NF         1 TEMP              0 ****  ****    0 ROOT
