@<TRIPOS>MOLECULE
4NF
   18    18     1     0     0
SMALL
bcc


@<TRIPOS>ATOM
      1 N2          0.1450   -0.2220    0.1280 ns        1 4NF     -0.393100
      2 S2          2.3960    1.1140    0.6910 s         1 4NF     -0.372400
      3 C4          1.3820    0.2850   -0.1530 c         1 4NF      0.369200
      4 O4         -2.5550    0.6380    5.8390 o         1 4NF     -0.209500
      5 C5         -0.5880   -0.1270    1.3210 ca        1 4NF      0.084600
      6 C6         -0.1190    0.5490    2.4680 ca        1 4NF     -0.181000
      7 C7         -0.8950    0.6080    3.6190 ca        1 4NF     -0.040500
      8 C8         -2.1540   -0.0080    3.6490 ca        1 4NF     -0.203200
      9 C9         -2.6390   -0.6860    2.5170 ca        1 4NF     -0.040500
     10 C10        -1.8660   -0.7450    1.3690 ca        1 4NF     -0.181000
     11 N3         -2.9820    0.0550    4.8780 no        1 4NF      0.317200
     12 O3         -4.0590   -0.4800    4.8830 o         1 4NF     -0.209500
     13 H1         -0.3140   -0.7320   -0.6010 hn        1 4NF      0.323500
     14 H3          1.6510    0.0120   -1.2060 h5        1 4NF      0.043200
     15 H5          0.8750    1.0420    2.4610 ha        1 4NF      0.171500
     16 H6         -0.5140    1.1410    4.5090 ha        1 4NF      0.175000
     17 H7         -3.6310   -1.1700    2.5440 ha        1 4NF      0.175000
     18 H8         -2.2640   -1.2810    0.4930 ha        1 4NF      0.171500
@<TRIPOS>BOND
     1    1    3 1   
     2    1    5 1   
     3    1   13 1   
     4    2    3 2   
     5    3   14 1   
     6    4   11 1   
     7    5    6 ar  
     8    5   10 ar  
     9    6    7 ar  
    10    6   15 1   
    11    7    8 ar  
    12    7   16 1   
    13    8    9 ar  
    14    8   11 1   
    15    9   10 ar  
    16    9   17 1   
    17   10   18 1   
    18   11   12 1   
@<TRIPOS>SUBSTRUCTURE
     1 4NF         1 TEMP              0 ****  ****    0 ROOT
