@<TRIPOS>MOLECULE
4NH
   50    47     1     0     0
SMALL
bcc


@<TRIPOS>ATOM
      1 C1          0.5020    2.3520   -2.5780 c3        1 4NH     -0.213000
      2 C2          2.0410    2.3770   -2.5820 c3        1 4NH     -0.145000
      3 C3          2.5380    2.3640   -1.1280 c3        1 4NH      0.039000
      4 N1          2.2260    0.9400   -0.4820 n3        1 4NH     -0.826000
      5 C4          2.7530   -0.2890   -1.3480 c3        1 4NH     -0.026000
      6 C5          2.2960   -0.2470   -2.7440 c3        1 4NH     -0.296000
      7 S1          2.5830    1.1200   -3.4380 ss        1 4NH      0.096000
      8 S2          2.0740    0.7930    1.1660 s4        1 4NH      2.069800
      9 O1          2.0140    2.0920    1.8070 o         1 4NH     -0.542900
     10 O2          3.2570    0.2510    1.7490 o         1 4NH     -0.542900
     11 C6          0.6420   -0.1970    1.5710 c1        1 4NH     -0.881000
     12 C7         -0.5560    0.4190    1.9020 c2        1 4NH      0.028000
     13 C8         -1.6690   -0.3500    2.2200 c1        1 4NH     -0.240000
     14 C9         -1.5810   -1.7380    2.2060 c1        1 4NH      0.154000
     15 C10        -0.3860   -2.3530    1.8750 c1        1 4NH     -0.184000
     16 C11         0.7290   -1.5820    1.5570 c1        1 4NH      0.018000
     17 O3         -2.7440   -2.5340    2.4920 os        1 4NH     -0.196000
     18 C12        -3.7100   -2.5220    1.4680 c3        1 4NH      0.093000
     19 C13        -4.8280   -3.5120    1.8040 c1        1 4NH     -0.182000
     20 C14        -5.7000   -4.2840    2.0640 c1        1 4NH     -0.152000
     21 C15        -6.8090   -5.2660    2.3910 c2        1 4NH      0.018000
     22 N2         -8.0860   -4.6600    2.1080 n3        1 4NH     -0.333000
     23 C16         3.9570    2.7330   -1.0130 c2        1 4NH      0.219000
     24 O4          4.8100    2.0200   -1.5010 o         1 4NH     -0.302000
     25 N3          4.3390    3.8620   -0.2220 n         1 4NH     -0.200000
     26 O5          5.6700    4.2030   -0.1070 oh        1 4NH     -0.236000
     27 C17         2.5020    3.6510   -3.2460 c3        1 4NH     -0.213000
     28 H11A        0.1850    1.6760   -1.9300 hc        1 4NH      0.092000
     29 H12         0.1650    3.2300   -2.3240 hc        1 4NH      0.092000
     30 H13         0.1760    2.1230   -3.4760 hc        1 4NH      0.092000
     31 H3          2.1120    3.0860   -0.6060 h1        1 4NH      0.114000
     32 H41         2.4380   -1.1170   -0.9400 h1        1 4NH      0.120000
     33 H42         3.7310   -0.2850   -1.3380 h1        1 4NH      0.120000
     34 H51         2.7560   -0.9620   -3.2500 h1        1 4NH      0.117000
     35 H52         1.3340   -0.4140   -2.7660 h1        1 4NH      0.117000
     36 H7         -0.6170    1.3870    1.9110 ha        1 4NH      0.154000
     37 H8         -2.5170    0.0860    2.4550 ha        1 4NH      0.147000
     38 H10        -0.3260   -3.3110    1.8650 ha        1 4NH      0.163000
     39 H11         1.5820   -2.0210    1.3210 ha        1 4NH      0.156000
     40 H121       -3.2900   -2.7790    0.6210 h1        1 4NH      0.104000
     41 H122       -4.0820   -1.6300    1.3860 h1        1 4NH      0.104000
     42 H151       -6.7630   -5.5080    3.3460 h4        1 4NH      0.116500
     43 H152       -6.7000   -6.0800    1.8410 h4        1 4NH      0.116500
     44 HN21       -8.0620   -4.2650    1.2630 hn        1 4NH      0.151000
     45 HN22       -8.2690   -4.0150    2.7440 hn        1 4NH      0.151000
     46 HN3         3.7070    4.3070    0.2750 hn        1 4NH      0.246000
     47 HO5         5.7620    5.0750   -0.2210 ho        1 4NH      0.227000
     48 H171        3.4830    3.7060   -3.2080 hc        1 4NH      0.092000
     49 H172        2.1160    4.4130   -2.7840 hc        1 4NH      0.092000
     50 H173        2.2120    3.6550   -4.1780 hc        1 4NH      0.092000
@<TRIPOS>BOND
     1    1    2 1   
     2    1   28 1   
     3    1   29 1   
     4    1   30 1   
     5    2    3 1   
     6    2    7 1   
     7    2   27 1   
     8    3    4 1   
     9    3   23 1   
    10    3   31 1   
    11    4    5 1   
    12    4    8 1   
    13    5    6 1   
    14    5   32 1   
    15    5   33 1   
    16    6    7 1   
    17    6   34 1   
    18    6   35 1   
    19    8    9 1   
    20    8   10 1   
    21   11   12 1   
    22   11   16 1   
    23   12   13 1   
    24   12   36 1   
    25   13   37 1   
    26   14   15 1   
    27   14   17 1   
    28   15   38 1   
    29   16   39 1   
    30   17   18 1   
    31   18   19 1   
    32   18   40 1   
    33   18   41 1   
    34   19   20 1   
    35   21   22 1   
    36   21   42 1   
    37   21   43 1   
    38   22   44 1   
    39   22   45 1   
    40   23   24 1   
    41   23   25 1   
    42   25   26 1   
    43   25   46 1   
    44   26   47 1   
    45   27   48 1   
    46   27   49 1   
    47   27   50 1   
@<TRIPOS>SUBSTRUCTURE
     1 4NH         1 TEMP              0 ****  ****    0 ROOT
