@<TRIPOS>MOLECULE
4NH
   52    51     1     0     0
SMALL
bcc


@<TRIPOS>ATOM
      1 C1          1.9500    0.0550   -1.2880 c3        1 4NH     -0.096600
      2 C2          2.7360    0.2960   -0.0170 c3        1 4NH     -0.087200
      3 C3          1.8460    0.6450    1.1330 c2        1 4NH      0.439200
      4 N1          1.2200    1.7890    1.2990 nh        1 4NH     -0.239600
      5 C4          1.3700    2.8640    0.3260 c3        1 4NH     -0.025700
      6 C5          2.7670    3.0390   -0.2650 c3        1 4NH     -0.077300
      7 S1          3.8680    1.6820   -0.0780 ss        1 4NH     -0.152200
      8 S2          0.2710    2.1460    2.7960 sy        1 4NH      1.494300
      9 O1          0.5440    3.4790    3.0720 o         1 4NH     -0.584300
     10 O2          0.6770    1.1450    3.6670 o         1 4NH     -0.584300
     11 C6         -1.2580    1.9430    2.2670 ca        1 4NH     -0.513500
     12 C7         -2.0770    3.0570    1.9970 ca        1 4NH      0.043000
     13 C8         -3.4170    2.9150    1.6710 ca        1 4NH     -0.202500
     14 C9         -3.9710    1.6250    1.6060 ca        1 4NH      0.221100
     15 C10        -3.1700    0.4870    1.8470 ca        1 4NH     -0.202500
     16 C11        -1.8370    0.6590    2.1720 ca        1 4NH      0.043000
     17 O3         -5.2840    1.3470    1.3180 os        1 4NH     -0.308900
     18 C12        -6.1460    2.4860    1.1160 c3        1 4NH      0.183500
     19 C13        -7.4730    1.9800    0.8720 c1        1 4NH      0.033900
     20 C14        -8.5870    1.5930    0.6630 c1        1 4NH     -0.233100
     21 C15        -9.8920    1.1360    0.2930 c3        1 4NH      0.222900
     22 N2        -10.7920    0.9470    1.4810 n4        1 4NH     -0.845600
     23 C16         0.2050   -2.9100    2.4460 c1        1 4NH      0.795900
     24 O4          0.3680   -1.8260    1.9160 o         1 4NH     -0.584500
     25 N3         -0.2520   -3.9220    2.9370 n2        1 4NH     -0.783800
     26 O5          1.9120   -5.7250    3.8070 oh        1 4NH     -0.832000
     27 C17         3.5840   -0.9170    0.3160 c3        1 4NH     -0.096600
     28 H11A        1.3610    0.9570   -1.5820 hc        1 4NH      0.074033
     29 H12         1.2530   -0.8090   -1.1530 hc        1 4NH      0.074033
     30 H13         2.6590   -0.1900   -2.1200 hc        1 4NH      0.074033
     31 H3          1.7390   -0.1360    1.9390 h4        1 4NH      0.112800
     32 H41         0.6380    2.6760   -0.5150 h1        1 4NH      0.102700
     33 H42         1.0760    3.8320    0.8360 h1        1 4NH      0.102700
     34 H51         3.2900    3.9020    0.2300 h1        1 4NH      0.116200
     35 H52         2.6500    3.3020   -1.3480 h1        1 4NH      0.116200
     36 H7         -1.6450    4.0750    2.0700 ha        1 4NH      0.177500
     37 H8         -4.0240    3.8120    1.4760 ha        1 4NH      0.171500
     38 H10        -3.6180   -0.5180    1.7820 ha        1 4NH      0.171500
     39 H11        -1.2120   -0.2350    2.3780 ha        1 4NH      0.177500
     40 H121       -5.7870    3.0720    0.2220 h1        1 4NH      0.097700
     41 H122       -6.1360    3.1330    2.0390 h1        1 4NH      0.097700
     42 H151      -10.3900    1.8860   -0.3980 hx        1 4NH      0.135200
     43 H152       -9.8190    0.1390   -0.2440 hx        1 4NH      0.135200
     44 HN21      -10.3890    0.2590    2.1270 hn        1 4NH      0.468800
     45 HN22      -11.7100    0.6130    1.1660 hn        1 4NH      0.468800
     46 HN3         0.1600   -4.7300    3.3370 hn        1 4NH      0.569400
     47 HO5         2.2300   -5.8210    4.7100 ho        1 4NH      0.420000
     48 H171        2.9270   -1.7920    0.5480 hc        1 4NH      0.074033
     49 H172        4.2290   -1.1780   -0.5600 hc        1 4NH      0.074033
     50 H173        4.2430   -0.7150    1.1960 hc        1 4NH      0.074033
     51 H23       -10.9120    1.8330    1.9830 hn        1 4NH      0.468800
     52 H32         2.1550   -6.5550    3.3860 ho        1 4NH      0.420000
@<TRIPOS>BOND
     1    1    2 1   
     2    1   28 1   
     3    1   29 1   
     4    1   30 1   
     5    2    3 1   
     6    2    7 1   
     7    2   27 1   
     8    3    4 2   
     9    3   31 1   
    10    4    5 1   
    11    4    8 1   
    12    5    6 1   
    13    5   32 1   
    14    5   33 1   
    15    6    7 1   
    16    6   34 1   
    17    6   35 1   
    18    8    9 2   
    19    8   10 2   
    20    8   11 1   
    21   11   12 ar  
    22   11   16 ar  
    23   12   13 ar  
    24   12   36 1   
    25   13   14 ar  
    26   13   37 1   
    27   14   15 ar  
    28   14   17 1   
    29   15   16 ar  
    30   15   38 1   
    31   16   39 1   
    32   17   18 1   
    33   18   19 1   
    34   18   40 1   
    35   18   41 1   
    36   19   20 3   
    37   20   21 1   
    38   21   22 1   
    39   21   42 1   
    40   21   43 1   
    41   22   44 1   
    42   22   45 1   
    43   22   51 1   
    44   23   24 2   
    45   23   25 2   
    46   25   46 1   
    47   26   47 1   
    48   26   52 1   
    49   27   48 1   
    50   27   49 1   
    51   27   50 1   
@<TRIPOS>SUBSTRUCTURE
     1 4NH         1 TEMP              0 ****  ****    0 ROOT
