@<TRIPOS>MOLECULE
4NH
   50    51     1     0     0
SMALL
bcc


@<TRIPOS>ATOM
      1 C1         -1.0770   -1.3830   -1.6590 c3        1 4NH     -0.095600
      2 C2         -2.5540   -1.4840   -1.3750 c3        1 4NH      0.042100
      3 C3         -3.1040   -0.3740   -0.4440 c3        1 4NH      0.185500
      4 N1         -2.5100   -0.3640    0.8770 n3        1 4NH     -0.806500
      5 C4         -2.8010   -1.5550    1.6470 c3        1 4NH      0.207800
      6 C5         -2.2980   -2.8500    1.0260 c3        1 4NH     -0.035300
      7 S1         -2.9150   -3.0780   -0.6070 ss        1 4NH     -0.310200
      8 S2         -1.6520    0.8530    1.5840 sy        1 4NH      1.513200
      9 O1         -1.7110    0.6930    2.9890 o         1 4NH     -0.654800
     10 O2         -2.1580    2.0720    1.0790 o         1 4NH     -0.654800
     11 C6         -0.0740    0.6400    1.0940 ca        1 4NH     -0.447500
     12 C7          0.8450   -0.0090    1.9310 ca        1 4NH      0.027000
     13 C8          2.1830   -0.1380    1.5840 ca        1 4NH     -0.215000
     14 C9          2.6260    0.4000    0.3650 ca        1 4NH      0.201100
     15 C10         1.7230    1.0610   -0.4950 ca        1 4NH     -0.215000
     16 C11         0.3930    1.1690   -0.1230 ca        1 4NH      0.027000
     17 O3          3.9170    0.3430   -0.0960 os        1 4NH     -0.313900
     18 C12         4.8700   -0.3050    0.7760 c3        1 4NH      0.217500
     19 C13         6.1500   -0.2450    0.1320 c1        1 4NH     -0.150100
     20 C14         7.2240   -0.2060   -0.3930 c1        1 4NH     -0.084100
     21 C15         8.5170   -0.1920   -1.0350 c3        1 4NH      0.234900
     22 N2          9.4700    0.7130   -0.4250 n3        1 4NH     -0.911800
     23 C16        -3.0730    1.0010   -1.1560 c         1 4NH      0.584100
     24 O4         -2.2470    1.2860   -2.0360 o         1 4NH     -0.563100
     25 N3         -4.1980    1.8510   -0.9030 n         1 4NH     -0.324400
     26 O5         -4.1170    3.0530   -1.4810 oh        1 4NH     -0.423100
     27 C17        -3.3450   -1.5240   -2.6650 c3        1 4NH     -0.095600
     28 H11A       -0.8430   -0.4330   -2.2020 hc        1 4NH      0.055867
     29 H12        -0.4810   -1.4030   -0.7140 hc        1 4NH      0.055867
     30 H13        -0.7550   -2.2430   -2.2970 hc        1 4NH      0.055867
     31 H3         -4.2070   -0.6340   -0.3050 h1        1 4NH      0.087700
     32 H41        -3.9200   -1.6360    1.7830 h1        1 4NH      0.073200
     33 H42        -2.3440   -1.4470    2.6760 h1        1 4NH      0.073200
     34 H51        -2.6740   -3.7160    1.6260 h1        1 4NH      0.080200
     35 H52        -1.1810   -2.8810    1.0300 h1        1 4NH      0.080200
     36 H7          0.4970   -0.4110    2.9000 ha        1 4NH      0.164500
     37 H8          2.8750   -0.6500    2.2660 ha        1 4NH      0.155500
     38 H10         2.0860    1.4800   -1.4440 ha        1 4NH      0.155500
     39 H11        -0.3180    1.6880   -0.7950 ha        1 4NH      0.164500
     40 H121        4.8950    0.2390    1.7610 h1        1 4NH      0.065200
     41 H122        4.5520   -1.3740    0.9320 h1        1 4NH      0.065200
     42 H151        8.9630   -1.2310   -0.9740 h1        1 4NH      0.052200
     43 H152        8.3430    0.0310   -2.1350 h1        1 4NH      0.052200
     44 HN21       10.2420    0.8600   -1.0440 hn        1 4NH      0.357800
     45 HN22        9.0510    1.5930   -0.2010 hn        1 4NH      0.357800
     46 HN3        -4.3100    2.0130    0.0980 hn        1 4NH      0.319500
     47 HO5        -4.2160    2.8970   -2.4400 ho        1 4NH      0.424000
     48 H171       -3.0700   -2.4360   -3.2510 hc        1 4NH      0.055867
     49 H172       -4.4430   -1.5490   -2.4620 hc        1 4NH      0.055867
     50 H173       -3.1120   -0.6220   -3.2850 hc        1 4NH      0.055867
@<TRIPOS>BOND
     1    1    2 1   
     2    1   28 1   
     3    1   29 1   
     4    1   30 1   
     5    2    3 1   
     6    2    7 1   
     7    2   27 1   
     8    3    4 1   
     9    3   23 1   
    10    3   31 1   
    11    4    5 1   
    12    4    8 1   
    13    5    6 1   
    14    5   32 1   
    15    5   33 1   
    16    6    7 1   
    17    6   34 1   
    18    6   35 1   
    19    8    9 2   
    20    8   10 2   
    21    8   11 1   
    22   11   12 ar  
    23   11   16 ar  
    24   12   13 ar  
    25   12   36 1   
    26   13   14 ar  
    27   13   37 1   
    28   14   15 ar  
    29   14   17 1   
    30   15   16 ar  
    31   15   38 1   
    32   16   39 1   
    33   17   18 1   
    34   18   19 1   
    35   18   40 1   
    36   18   41 1   
    37   19   20 3   
    38   20   21 1   
    39   21   22 1   
    40   21   42 1   
    41   21   43 1   
    42   22   44 1   
    43   22   45 1   
    44   23   24 2   
    45   23   25 1   
    46   25   26 1   
    47   25   46 1   
    48   26   47 1   
    49   27   48 1   
    50   27   49 1   
    51   27   50 1   
@<TRIPOS>SUBSTRUCTURE
     1 4NH         1 TEMP              0 ****  ****    0 ROOT
