@<TRIPOS>MOLECULE
4NH
   52    53     1     0     0
SMALL
bcc


@<TRIPOS>ATOM
      1 C1          0.4620   -0.4720   -0.5080 c3        1 4NH     -0.106100
      2 C2          1.8990   -0.2750   -0.0910 c3        1 4NH     -0.000900
      3 C3          2.1000   -0.1490    1.4420 c3        1 4NH      0.215500
      4 N1          1.4230    0.9700    2.0600 n3        1 4NH     -0.823500
      5 C4          1.8970    2.2620    1.5910 c3        1 4NH      0.208800
      6 C5          1.7680    2.4740    0.0920 c3        1 4NH     -0.062300
      7 S1          2.5840    1.2130   -0.8190 ss        1 4NH     -0.200200
      8 S2          0.2860    0.9240    3.2630 sy        1 4NH      1.539200
      9 O1          0.5040    1.9860    4.1480 o         1 4NH     -0.666300
     10 O2          0.4520   -0.3940    3.8040 o         1 4NH     -0.666300
     11 C6         -1.1900    1.0710    2.5410 ca        1 4NH     -0.467500
     12 C7         -1.8790    2.2940    2.6090 ca        1 4NH      0.035000
     13 C8         -3.1670    2.4350    2.1070 ca        1 4NH     -0.199000
     14 C9         -3.7940    1.3260    1.5210 ca        1 4NH      0.208100
     15 C10        -3.1220    0.0870    1.4260 ca        1 4NH     -0.199000
     16 C11        -1.8390   -0.0210    1.9320 ca        1 4NH      0.035000
     17 O3         -5.0690    1.3220    1.0050 os        1 4NH     -0.311900
     18 C12        -5.7930    2.5650    1.1040 c3        1 4NH      0.183500
     19 C13        -7.0890    2.3550    0.5100 c1        1 4NH      0.037900
     20 C14        -8.1730    2.2140    0.0200 c1        1 4NH     -0.238100
     21 C15        -9.4210    2.0900   -0.6700 c3        1 4NH      0.223900
     22 N2        -10.5280    1.6170    0.2300 n4        1 4NH     -0.845600
     23 C16         1.7290   -1.4880    2.1070 c         1 4NH      0.538100
     24 O4          0.8490   -2.2770    1.8280 o         1 4NH     -0.382100
     25 N3          2.6250   -1.8900    3.2920 n4        1 4NH     -0.437300
     26 O5          1.9940   -2.7230    4.1510 oh        1 4NH     -0.358300
     27 C17         2.7680   -1.3890   -0.6390 c3        1 4NH     -0.106100
     28 H11A        0.3930   -0.4470   -1.6260 hc        1 4NH      0.064867
     29 H12        -0.1970    0.3310   -0.0980 hc        1 4NH      0.064867
     30 H13         0.0760   -1.4640   -0.1620 hc        1 4NH      0.064867
     31 H3          3.2220    0.0100    1.5860 h1        1 4NH      0.095700
     32 H41         2.9830    2.3800    1.8830 h1        1 4NH      0.082700
     33 H42         1.3140    3.0660    2.1320 h1        1 4NH      0.082700
     34 H51         2.2770    3.4330   -0.1880 h1        1 4NH      0.101200
     35 H52         0.6940    2.5570   -0.2070 h1        1 4NH      0.101200
     36 H7         -1.3920    3.1630    3.0950 ha        1 4NH      0.166000
     37 H8         -3.6730    3.4080    2.1870 ha        1 4NH      0.168000
     38 H10        -3.6280   -0.7720    0.9600 ha        1 4NH      0.168000
     39 H11        -1.3160   -0.9950    1.8710 ha        1 4NH      0.166000
     40 H121       -5.2390    3.3690    0.5390 h1        1 4NH      0.096700
     41 H122       -5.8990    2.8510    2.1890 h1        1 4NH      0.096700
     42 H151       -9.7350    3.0920   -1.1000 hx        1 4NH      0.134200
     43 H152       -9.3270    1.3420   -1.5180 hx        1 4NH      0.134200
     44 HN21      -10.6690    2.2810    1.0000 hn        1 4NH      0.468133
     45 HN22      -10.2950    0.7020    0.6290 hn        1 4NH      0.468133
     46 HN3         2.9350   -1.0390    3.7960 hn        1 4NH      0.477800
     47 HO5         1.1110   -2.3320    4.3780 ho        1 4NH      0.506000
     48 H171        3.8390   -1.2440   -0.3550 hc        1 4NH      0.064867
     49 H172        2.7040   -1.3990   -1.7580 hc        1 4NH      0.064867
     50 H173        2.4170   -2.3820   -0.2660 hc        1 4NH      0.064867
     51 H23       -11.3980    1.5380   -0.3080 hn        1 4NH      0.468133
     52 H32         3.4540   -2.4190    2.9560 hn        1 4NH      0.477800
@<TRIPOS>BOND
     1    1    2 1   
     2    1   28 1   
     3    1   29 1   
     4    1   30 1   
     5    2    3 1   
     6    2    7 1   
     7    2   27 1   
     8    3    4 1   
     9    3   23 1   
    10    3   31 1   
    11    4    5 1   
    12    4    8 1   
    13    5    6 1   
    14    5   32 1   
    15    5   33 1   
    16    6    7 1   
    17    6   34 1   
    18    6   35 1   
    19    8    9 2   
    20    8   10 2   
    21    8   11 1   
    22   11   12 ar  
    23   11   16 ar  
    24   12   13 ar  
    25   12   36 1   
    26   13   14 ar  
    27   13   37 1   
    28   14   15 ar  
    29   14   17 1   
    30   15   16 ar  
    31   15   38 1   
    32   16   39 1   
    33   17   18 1   
    34   18   19 1   
    35   18   40 1   
    36   18   41 1   
    37   19   20 3   
    38   20   21 1   
    39   21   22 1   
    40   21   42 1   
    41   21   43 1   
    42   22   44 1   
    43   22   45 1   
    44   22   51 1   
    45   23   24 2   
    46   23   25 1   
    47   25   26 1   
    48   25   46 1   
    49   25   52 1   
    50   26   47 1   
    51   27   48 1   
    52   27   49 1   
    53   27   50 1   
@<TRIPOS>SUBSTRUCTURE
     1 4NH         1 TEMP              0 ****  ****    0 ROOT
