@<TRIPOS>MOLECULE
4NH
   52    53     1     0     0
SMALL
bcc


@<TRIPOS>ATOM
      1 C1          0.3750   -0.7780   -0.2370 c3        1 4NH     -0.106100
      2 C2          1.8320   -0.6290    0.1250 c3        1 4NH     -0.000900
      3 C3          2.0770   -0.2360    1.6080 c3        1 4NH      0.220500
      4 N1          1.5060    1.0300    2.0060 n3        1 4NH     -0.822500
      5 C4          2.0750    2.1670    1.3010 c3        1 4NH      0.208800
      6 C5          1.9320    2.1070   -0.2100 c3        1 4NH     -0.062300
      7 S1          2.6220    0.6330   -0.8720 ss        1 4NH     -0.200200
      8 S2          0.4020    1.3070    3.2090 sy        1 4NH      1.532200
      9 O1          0.7290    2.4940    3.8750 o         1 4NH     -0.660300
     10 O2          0.4750    0.1020    3.9810 o         1 4NH     -0.660300
     11 C6         -1.0740    1.4450    2.4840 ca        1 4NH     -0.464500
     12 C7         -1.6570    2.7140    2.3300 ca        1 4NH      0.035000
     13 C8         -2.9410    2.8710    1.8200 ca        1 4NH     -0.199500
     14 C9         -3.6710    1.7310    1.4540 ca        1 4NH      0.206100
     15 C10        -3.1070    0.4430    1.5850 ca        1 4NH     -0.199500
     16 C11        -1.8250    0.3200    2.0940 ca        1 4NH      0.035000
     17 O3         -4.9530    1.7420    0.9560 os        1 4NH     -0.312900
     18 C12        -5.5660    3.0400    0.8240 c3        1 4NH      0.183500
     19 C13        -6.8870    2.8380    0.2840 c1        1 4NH      0.038900
     20 C14        -7.9890    2.7060   -0.1670 c1        1 4NH     -0.239100
     21 C15        -9.2560    2.5670   -0.8160 c3        1 4NH      0.223900
     22 N2        -10.3840    2.3860    0.1610 nz        1 4NH     -0.845600
     23 C16         1.6230   -1.4010    2.5080 c         1 4NH      0.553100
     24 O4          0.6950   -2.1770    2.3750 o         1 4NH     -0.409100
     25 N3          2.5030   -1.6730    3.7390 ny        1 4NH     -0.456300
     26 O5          2.4430   -2.9560    4.1570 oh        1 4NH     -0.356300
     27 C17         2.5960   -1.8940   -0.2120 c3        1 4NH     -0.106100
     28 H11A       -0.0850   -1.6480    0.2950 hc        1 4NH      0.065200
     29 H12        -0.2040    0.1430    0.0150 hc        1 4NH      0.065200
     30 H13         0.2830   -0.9600   -1.3390 hc        1 4NH      0.065200
     31 H3          3.2110   -0.1460    1.7100 h1        1 4NH      0.095700
     32 H41         1.5720    3.1040    1.6850 h1        1 4NH      0.082700
     33 H42         3.1740    2.2460    1.5600 h1        1 4NH      0.082700
     34 H51         2.5140    2.9500   -0.6680 h1        1 4NH      0.101200
     35 H52         0.8640    2.2240   -0.5140 h1        1 4NH      0.101200
     36 H7         -1.0890    3.6130    2.6430 ha        1 4NH      0.165500
     37 H8         -3.3620    3.8820    1.7220 ha        1 4NH      0.167000
     38 H10        -3.6940   -0.4410    1.2900 ha        1 4NH      0.167000
     39 H11        -1.3870   -0.6890    2.2110 ha        1 4NH      0.165500
     40 H121       -4.9570    3.6740    0.1170 h1        1 4NH      0.096700
     41 H122       -5.6260    3.5310    1.8370 h1        1 4NH      0.096700
     42 H151       -9.4860    3.4890   -1.4360 hx        1 4NH      0.134200
     43 H152       -9.2480    1.6610   -1.5000 hx        1 4NH      0.134200
     44 HN21      -10.2280    1.5490    0.7330 hn        1 4NH      0.468133
     45 HN22      -10.4480    3.1980    0.7840 hn        1 4NH      0.468133
     46 HN3         2.1840   -1.0330    4.5050 hn        1 4NH      0.495800
     47 HO5         1.4940   -3.2290    4.2070 ho        1 4NH      0.486000
     48 H171        3.6780   -1.7970    0.0500 hc        1 4NH      0.065200
     49 H172        2.5210   -2.0960   -1.3120 hc        1 4NH      0.065200
     50 H173        2.1630   -2.7720    0.3280 hc        1 4NH      0.065200
     51 H23       -11.2680    2.2840   -0.3490 hn        1 4NH      0.468133
     52 H32         3.5040   -1.4980    3.5290 hn        1 4NH      0.495800
@<TRIPOS>BOND
     1    1    2 1   
     2    1   28 1   
     3    1   29 1   
     4    1   30 1   
     5    2    3 1   
     6    2    7 1   
     7    2   27 1   
     8    3    4 1   
     9    3   23 1   
    10    3   31 1   
    11    4    5 1   
    12    4    8 1   
    13    5    6 1   
    14    5   32 1   
    15    5   33 1   
    16    6    7 1   
    17    6   34 1   
    18    6   35 1   
    19    8    9 2   
    20    8   10 2   
    21    8   11 1   
    22   11   12 ar  
    23   11   16 ar  
    24   12   13 ar  
    25   12   36 1   
    26   13   14 ar  
    27   13   37 1   
    28   14   15 ar  
    29   14   17 1   
    30   15   16 ar  
    31   15   38 1   
    32   16   39 1   
    33   17   18 1   
    34   18   19 1   
    35   18   40 1   
    36   18   41 1   
    37   19   20 3   
    38   20   21 1   
    39   21   22 1   
    40   21   42 1   
    41   21   43 1   
    42   22   44 1   
    43   22   45 1   
    44   22   51 1   
    45   23   24 2   
    46   23   25 1   
    47   25   26 1   
    48   25   46 1   
    49   25   52 1   
    50   26   47 1   
    51   27   48 1   
    52   27   49 1   
    53   27   50 1   
@<TRIPOS>SUBSTRUCTURE
     1 4NH         1 TEMP              0 ****  ****    0 ROOT
