@<TRIPOS>MOLECULE
4NI
   15    14     1     0     0
SMALL
bcc


@<TRIPOS>ATOM
      1 C1         -0.0290    0.1320   -0.0620 c         1 4NI      0.915600
      2 C2          1.5020   -0.0690    0.0140 c3        1 4NI     -0.206400
      3 C3          1.9760   -0.0800    1.4470 c3        1 4NI     -0.078400
      4 C4          3.4890    0.0670    1.4730 c3        1 4NI     -0.063700
      5 O11        -0.5690    0.9180    0.7660 o         1 4NI     -0.838300
      6 O12        -0.6450   -0.4910   -0.9700 o         1 4NI     -0.838300
      7 N5          4.0940   -0.0620    2.8570 no        1 4NI      0.224300
      8 O51         4.0420   -1.1150    3.4350 o         1 4NI     -0.239500
      9 O52         4.6500    0.8900    3.3410 o         1 4NI     -0.239500
     10 H21         1.7740   -1.0240   -0.4990 hc        1 4NI      0.025700
     11 H22         1.9750    0.7760   -0.5480 hc        1 4NI      0.025700
     12 H31         1.6700   -1.0360    1.9440 hc        1 4NI      0.075700
     13 H32         1.4820    0.7660    1.9990 hc        1 4NI      0.075700
     14 H41         3.7940    1.0770    1.0880 h1        1 4NI      0.081200
     15 H42         3.9680   -0.7440    0.8600 h1        1 4NI      0.081200
@<TRIPOS>BOND
     1    1    2 1   
     2    1    5 1   
     3    1    6 1   
     4    2    3 1   
     5    2   10 1   
     6    2   11 1   
     7    3    4 1   
     8    3   12 1   
     9    3   13 1   
    10    4    7 1   
    11    4   14 1   
    12    4   15 1   
    13    7    8 1   
    14    7    9 1   
@<TRIPOS>SUBSTRUCTURE
     1 4NI         1 TEMP              0 ****  ****    0 ROOT
