@<TRIPOS>MOLECULE
4NI
   15    13     1     0     0
SMALL
bcc


@<TRIPOS>ATOM
      1 C1         -2.2010    0.0080   -1.1440 c1        1 4NI      0.335000
      2 C2         -0.6880    0.0080   -1.1440 c2        1 4NI     -0.235000
      3 C3         -0.1840    0.0080    0.2820 c3        1 4NI     -0.157000
      4 C4          1.3290    0.0080    0.2820 c3        1 4NI     -0.123000
      5 O11        -2.8310    1.0990   -1.1420 o         1 4NI     -0.573000
      6 O12        -2.8310   -1.0820   -1.1460 o         1 4NI     -0.573000
      7 N5          1.8030    0.0090    1.6230 no        1 4NI      0.505000
      8 O51         1.9860    1.0680    2.2060 o         1 4NI     -0.389500
      9 O52         2.0540   -1.1730    2.2600 o         1 4NI     -0.389500
     10 H21        -0.3630   -0.7890   -1.6040 ha        1 4NI      0.065000
     11 H22        -0.3630    0.8050   -1.6040 ha        1 4NI      0.065000
     12 H31        -0.5100   -0.7890    0.7430 hc        1 4NI      0.115000
     13 H32        -0.5090    0.8060    0.7420 hc        1 4NI      0.115000
     14 H41         1.6550    0.8040   -0.1790 h1        1 4NI      0.120500
     15 H42         1.6540   -0.7900   -0.1770 h1        1 4NI      0.120500
@<TRIPOS>BOND
     1    1    5 1   
     2    1    6 1   
     3    2    3 1   
     4    2   10 1   
     5    2   11 1   
     6    3    4 1   
     7    3   12 1   
     8    3   13 1   
     9    4    7 1   
    10    4   14 1   
    11    4   15 1   
    12    7    8 1   
    13    7    9 1   
@<TRIPOS>SUBSTRUCTURE
     1 4NI         1 TEMP              0 ****  ****    0 ROOT
