@<TRIPOS>MOLECULE
4NI
   15    14     1     0     0
SMALL
bcc


@<TRIPOS>ATOM
      1 C1          2.5150   -0.0080    0.1650 c         1 4NI      0.915600
      2 C2          1.2350   -0.7580   -0.2680 c3        1 4NI     -0.206400
      3 C3          0.0080    0.0970   -0.0560 c3        1 4NI     -0.078400
      4 C4         -1.2320   -0.7760   -0.1620 c3        1 4NI     -0.063700
      5 O11         2.4550    0.7320    1.1860 o         1 4NI     -0.838300
      6 O12         3.5550   -0.2030   -0.5230 o         1 4NI     -0.838300
      7 N5         -2.5340   -0.0020   -0.0970 no        1 4NI      0.224300
      8 O51        -2.8190    0.7610   -0.9820 o         1 4NI     -0.239500
      9 O52        -3.2790   -0.1930    0.8290 o         1 4NI     -0.239500
     10 H21         1.3270   -1.0570   -1.3410 hc        1 4NI      0.025700
     11 H22         1.1730   -1.6900    0.3500 hc        1 4NI      0.025700
     12 H31         0.0740    0.5800    0.9560 hc        1 4NI      0.075700
     13 H32        -0.0250    0.9140   -0.8230 hc        1 4NI      0.075700
     14 H41        -1.2490   -1.3080   -1.1520 h1        1 4NI      0.081200
     15 H42        -1.2640   -1.5200    0.6800 h1        1 4NI      0.081200
@<TRIPOS>BOND
     1    1    2 1   
     2    1    5 1   
     3    1    6 1   
     4    2    3 1   
     5    2   10 1   
     6    2   11 1   
     7    3    4 1   
     8    3   12 1   
     9    3   13 1   
    10    4    7 1   
    11    4   14 1   
    12    4   15 1   
    13    7    8 1   
    14    7    9 1   
@<TRIPOS>SUBSTRUCTURE
     1 4NI         1 TEMP              0 ****  ****    0 ROOT
