@<TRIPOS>MOLECULE
4NK
   58    58     1     0     0
SMALL
bcc


@<TRIPOS>ATOM
      1 OXT         2.1410    0.3330    0.4400 o         1 4NK     -0.769800
      2 C           3.1480    0.6880    1.0990 c         1 4NK      0.935600
      3 O           3.9910    1.5730    0.8570 o         1 4NK     -0.769800
      4 CA          3.3500   -0.0940    2.4890 c3        1 4NK     -0.063500
      5 N           2.5820   -1.3690    2.4600 n4        1 4NK     -0.836600
      6 CB          4.8280   -0.2890    2.7810 c3        1 4NK     -0.084400
      7 CAN         5.1080   -0.2930    4.2780 c3        1 4NK     -0.170400
      8 CAU         6.3210   -1.1290    4.5800 c         1 4NK      0.592100
      9 OAE         7.4560   -0.9330    4.1520 o         1 4NK     -0.497100
     10 NAS         6.1440   -2.2970    5.5050 n4        1 4NK     -0.657800
     11 CBB         5.7190   -3.5370    4.7720 c3        1 4NK      0.037500
     12 CAW         4.3170   -3.3020    4.1170 c         1 4NK      0.901600
     13 OAK         4.1810   -3.6590    2.9210 o         1 4NK     -0.804300
     14 OAG         3.4330   -2.7220    4.8090 o         1 4NK     -0.804300
     15 CAQ         5.6460   -4.7530    5.6790 c3        1 4NK     -0.118100
     16 SBD         6.7370   -6.0270    5.1390 sx        1 4NK      0.308300
     17 OAI         6.4180   -7.1880    5.9950 o         1 4NK     -0.505200
     18 CAZ         8.2020   -5.4120    5.8090 cc        1 4NK      0.369100
     19 NAR         8.8110   -4.2720    5.3830 nd        1 4NK     -0.646000
     20 NAT         8.9140   -5.9730    6.8780 na        1 4NK     -0.236900
     21 CAM         9.9910   -5.1520    7.1410 cc        1 4NK     -0.193600
     22 CAY         9.9150   -4.0850    6.2030 cd        1 4NK      0.289600
     23 CAP        10.8410   -2.9340    6.1250 c3        1 4NK     -0.092700
     24 CBC        10.0620   -1.6310    5.9420 c3        1 4NK     -0.027500
     25 CAX         9.3220   -1.2850    7.2980 c         1 4NK      0.939600
     26 OAL         8.0650   -1.3650    7.2570 o         1 4NK     -0.794300
     27 OAH        10.0260   -0.9430    8.2720 o         1 4NK     -0.794300
     28 NBE        10.9190   -0.4650    5.4840 n4        1 4NK     -0.574800
     29 CAB        12.1670   -0.3680    6.2900 c3        1 4NK      0.085767
     30 CAC        10.1280    0.7930    5.6510 c3        1 4NK      0.085767
     31 CAA        11.2580   -0.6220    4.0410 c3        1 4NK      0.085767
     32 HA          2.8810    0.5670    3.2710 hx        1 4NK      0.080700
     33 H2          3.1410   -2.1130    2.0190 hn        1 4NK      0.463133
     34 H3          1.7430   -1.2000    1.8840 hn        1 4NK      0.463133
     35 HB2         5.3760    0.5690    2.2950 hc        1 4NK      0.096200
     36 HB1         5.2080   -1.2350    2.3100 hc        1 4NK      0.096200
     37 HAO         5.3320    0.7520    4.6290 hc        1 4NK      0.105700
     38 HAN         4.2060   -0.6600    4.8430 hc        1 4NK      0.105700
     39 HAS         5.4090   -2.0680    6.1860 hn        1 4NK      0.483300
     40 HBB         6.4750   -3.7010    3.9470 hx        1 4NK      0.105700
     41 HAQ         5.7990   -4.4960    6.7570 h1        1 4NK      0.121200
     42 HB4         4.6010   -5.1720    5.6330 h1        1 4NK      0.121200
     43 HAT         8.6560   -6.8050    7.3530 hn        1 4NK      0.332700
     44 HAM        10.7090   -5.3440    7.9380 h4        1 4NK      0.193000
     45 HB3        11.4320   -2.8770    7.0800 hc        1 4NK      0.061200
     46 HAP        11.5570   -3.1070    5.2760 hc        1 4NK      0.061200
     47 HBC         9.2750   -1.7520    5.1400 hx        1 4NK      0.110700
     48 HAF        12.6940    0.5900    6.0440 hx        1 4NK      0.095478
     49 HAE        12.8330   -1.2370    6.0520 hx        1 4NK      0.095478
     50 HAD        11.8890   -0.3930    7.3860 hx        1 4NK      0.095478
     51 HAI        10.6870    1.6460    5.1880 hx        1 4NK      0.095478
     52 HAH         9.9700    0.9850    6.7490 hx        1 4NK      0.095478
     53 HAG         9.1310    0.6630    5.1490 hx        1 4NK      0.095478
     54 HAA        11.9000    0.2370    3.7140 hx        1 4NK      0.095478
     55 HAC        11.8120   -1.5830    3.8860 hx        1 4NK      0.095478
     56 HAB        10.3100   -0.6370    3.4390 hx        1 4NK      0.095478
     57 H6          2.3370   -1.6880    3.4050 hn        1 4NK      0.463133
     58 HAS2        7.0370   -2.4590    6.0180 hn        1 4NK      0.483300
@<TRIPOS>BOND
     1    1    2 1   
     2    2    3 1   
     3    2    4 1   
     4    4    5 1   
     5    4    6 1   
     6    4   32 1   
     7    5   33 1   
     8    5   34 1   
     9    5   57 1   
    10    6    7 1   
    11    6   35 1   
    12    6   36 1   
    13    7    8 1   
    14    7   37 1   
    15    7   38 1   
    16    8    9 2   
    17    8   10 1   
    18   10   11 1   
    19   10   39 1   
    20   10   58 1   
    21   11   12 1   
    22   11   15 1   
    23   11   40 1   
    24   12   13 1   
    25   12   14 1   
    26   15   16 1   
    27   15   41 1   
    28   15   42 1   
    29   16   17 2   
    30   16   18 1   
    31   18   19 2   
    32   18   20 1   
    33   19   22 1   
    34   20   21 1   
    35   20   43 1   
    36   21   22 2   
    37   21   44 1   
    38   22   23 1   
    39   23   24 1   
    40   23   45 1   
    41   23   46 1   
    42   24   25 1   
    43   24   28 1   
    44   24   47 1   
    45   25   26 1   
    46   25   27 1   
    47   28   29 1   
    48   28   30 1   
    49   28   31 1   
    50   29   48 1   
    51   29   49 1   
    52   29   50 1   
    53   30   51 1   
    54   30   52 1   
    55   30   53 1   
    56   31   54 1   
    57   31   55 1   
    58   31   56 1   
@<TRIPOS>SUBSTRUCTURE
     1 4NK         1 TEMP              0 ****  ****    0 ROOT
