@<TRIPOS>MOLECULE
4NK
   58    58     1     0     0
SMALL
bcc


@<TRIPOS>ATOM
      1 OXT         2.1310    0.2730    0.4240 o         1 4NK     -0.769800
      2 C           3.1450    0.6350    1.0680 c         1 4NK      0.935600
      3 O           3.9930    1.5080    0.8010 o         1 4NK     -0.769800
      4 CA          3.3490   -0.1170    2.4740 c3        1 4NK     -0.063500
      5 N           2.5700   -1.3850    2.4790 nz        1 4NK     -0.836600
      6 CB          4.8270   -0.3170    2.7620 c3        1 4NK     -0.084400
      7 CAN         5.1160   -0.2900    4.2570 c3        1 4NK     -0.170400
      8 CAU         6.3240   -1.1290    4.5710 c         1 4NK      0.592100
      9 OAE         7.4570   -0.9520    4.1310 o         1 4NK     -0.497100
     10 NAS         6.1430   -2.2730    5.5230 ny        1 4NK     -0.657800
     11 CBB         5.7030   -3.5260    4.8220 c3        1 4NK      0.037500
     12 CAW         4.2990   -3.2950    4.1700 c         1 4NK      0.901600
     13 OAK         4.1530   -3.6780    2.9840 o         1 4NK     -0.804300
     14 OAG         3.4250   -2.6910    4.8530 o         1 4NK     -0.804300
     15 CAQ         5.6250   -4.7210    5.7570 c3        1 4NK     -0.118100
     16 SBD         6.7040   -6.0150    5.2410 sx        1 4NK      0.308300
     17 OAI         6.3800   -7.1530    6.1250 o         1 4NK     -0.505200
     18 CAZ         8.1770   -5.3970    5.8880 cc        1 4NK      0.369100
     19 NAR         8.7930   -4.2720    5.4320 nd        1 4NK     -0.646000
     20 NAT         8.8910   -5.9390    6.9660 na        1 4NK     -0.236900
     21 CAM         9.9760   -5.1210    7.2030 cc        1 4NK     -0.193600
     22 CAY         9.9030   -4.0760    6.2410 cd        1 4NK      0.289600
     23 CAP        10.8380   -2.9340    6.1300 c3        1 4NK     -0.092700
     24 CBC        10.0690   -1.6300    5.9210 c3        1 4NK     -0.027500
     25 CAX         9.3390   -1.2460    7.2740 c         1 4NK      0.939600
     26 OAL         8.0820   -1.3160    7.2420 o         1 4NK     -0.794300
     27 OAH        10.0530   -0.8870    8.2350 o         1 4NK     -0.794300
     28 NBE        10.9320   -0.4820    5.4310 n4        1 4NK     -0.574800
     29 CAB        12.1860   -0.3770    6.2280 c3        1 4NK      0.085767
     30 CAC        10.1520    0.7870    5.5740 c3        1 4NK      0.085767
     31 CAA        11.2620   -0.6750    3.9910 c3        1 4NK      0.085767
     32 HA          2.8890    0.5650    3.2440 hx        1 4NK      0.080700
     33 H2          3.1200   -2.1440    2.0530 hn        1 4NK      0.463133
     34 H3          1.7290   -1.2230    1.9040 hn        1 4NK      0.463133
     35 HB2         5.1960   -1.2770    2.3110 hc        1 4NK      0.096200
     36 HB1         5.3790    0.5250    2.2530 hc        1 4NK      0.096200
     37 HAO         5.3510    0.7610    4.5830 hc        1 4NK      0.105700
     38 HAN         4.2150   -0.6360    4.8350 hc        1 4NK      0.105700
     39 HAS         7.0380   -2.4310    6.0350 hn        1 4NK      0.483300
     40 HBB         6.4520   -3.7150    3.9960 hx        1 4NK      0.105700
     41 HAQ         4.5770   -5.1320    5.7270 h1        1 4NK      0.121200
     42 HB4         5.7870   -4.4400    6.8280 h1        1 4NK      0.121200
     43 HAT         8.6290   -6.7570    7.4610 hn        1 4NK      0.332700
     44 HAM        10.6970   -5.3000    8.0000 h4        1 4NK      0.193000
     45 HB3        11.5480   -3.1340    5.2820 hc        1 4NK      0.061200
     46 HAP        11.4360   -2.8600    7.0810 hc        1 4NK      0.061200
     47 HBC         9.2760   -1.7630    5.1280 hx        1 4NK      0.110700
     48 HAF        12.7190    0.5710    5.9570 hx        1 4NK      0.095478
     49 HAE        12.8430   -1.2560    6.0060 hx        1 4NK      0.095478
     50 HAD        11.9150   -0.3730    7.3250 hx        1 4NK      0.095478
     51 HAI        10.7160    1.6240    5.0880 hx        1 4NK      0.095478
     52 HAH        10.0030    1.0050    6.6680 hx        1 4NK      0.095478
     53 HAG         9.1520    0.6530    5.0800 hx        1 4NK      0.095478
     54 HAA        11.8070   -1.6450    3.8540 hx        1 4NK      0.095478
     55 HAC        10.3100   -0.6960    3.3940 hx        1 4NK      0.095478
     56 HAB        11.9090    0.1710    3.6400 hx        1 4NK      0.095478
     57 H6          2.3280   -1.6810    3.4330 hn        1 4NK      0.463133
     58 HAS2        5.4140   -2.0230    6.2030 hn        1 4NK      0.483300
@<TRIPOS>BOND
     1    1    2 1   
     2    2    3 1   
     3    2    4 1   
     4    4    5 1   
     5    4    6 1   
     6    4   32 1   
     7    5   33 1   
     8    5   34 1   
     9    5   57 1   
    10    6    7 1   
    11    6   35 1   
    12    6   36 1   
    13    7    8 1   
    14    7   37 1   
    15    7   38 1   
    16    8    9 2   
    17    8   10 1   
    18   10   11 1   
    19   10   39 1   
    20   10   58 1   
    21   11   12 1   
    22   11   15 1   
    23   11   40 1   
    24   12   13 1   
    25   12   14 1   
    26   15   16 1   
    27   15   41 1   
    28   15   42 1   
    29   16   17 2   
    30   16   18 1   
    31   18   19 2   
    32   18   20 1   
    33   19   22 1   
    34   20   21 1   
    35   20   43 1   
    36   21   22 2   
    37   21   44 1   
    38   22   23 1   
    39   23   24 1   
    40   23   45 1   
    41   23   46 1   
    42   24   25 1   
    43   24   28 1   
    44   24   47 1   
    45   25   26 1   
    46   25   27 1   
    47   28   29 1   
    48   28   30 1   
    49   28   31 1   
    50   29   48 1   
    51   29   49 1   
    52   29   50 1   
    53   30   51 1   
    54   30   52 1   
    55   30   53 1   
    56   31   54 1   
    57   31   55 1   
    58   31   56 1   
@<TRIPOS>SUBSTRUCTURE
     1 4NK         1 TEMP              0 ****  ****    0 ROOT
