@<TRIPOS>MOLECULE
4NL
   16    16     1     0     0
SMALL
bcc


@<TRIPOS>ATOM
      1 C2         -0.0380   -0.0260   -0.0380 ca        1 4NL     -0.052500
      2 C6          0.0530   -0.0270    2.4110 ca        1 4NL     -0.052500
      3 C3          1.3420   -0.1070   -0.0920 ca        1 4NL     -0.169500
      4 C4          2.0870   -0.1490    1.1090 ca        1 4NL      0.205100
      5 C5          1.4370   -0.1080    2.3560 ca        1 4NL     -0.169500
      6 C1         -0.6860    0.0140    1.2150 ca        1 4NL     -0.138400
      7 N1         -2.1440    0.0910    1.2630 n4        1 4NL     -0.689000
      8 O1          3.4370   -0.2290    0.9710 oh        1 4NL     -0.453100
      9 H2          1.8730   -0.1390   -1.0580 ha        1 4NL      0.183000
     10 H6         -2.4770    0.7720    0.5710 hn        1 4NL      0.461133
     11 H3          2.0230   -0.1400    3.2890 ha        1 4NL      0.183000
     12 H5          3.8510   -0.2520    1.8510 ho        1 4NL      0.452000
     13 H4         -0.4440    0.0060    3.3960 ha        1 4NL      0.159000
     14 H1         -0.6120    0.0080   -0.9800 ha        1 4NL      0.159000
     15 H7         -2.5440   -0.8300    1.0460 hn        1 4NL      0.461133
     16 H13        -2.4510    0.3800    2.1970 hn        1 4NL      0.461133
@<TRIPOS>BOND
     1    1    3 ar  
     2    1    6 ar  
     3    1   14 1   
     4    2    5 ar  
     5    2    6 ar  
     6    2   13 1   
     7    3    4 ar  
     8    3    9 1   
     9    4    5 ar  
    10    4    8 1   
    11    5   11 1   
    12    6    7 1   
    13    7   10 1   
    14    7   15 1   
    15    7   16 1   
    16    8   12 1   
@<TRIPOS>SUBSTRUCTURE
     1 4NL         1 TEMP              0 ****  ****    0 ROOT
