@<TRIPOS>MOLECULE
4NL
   15    12     1     0     0
SMALL
bcc


@<TRIPOS>ATOM
      1 C2         -0.4640    0.0460   -1.2000 c1        1 4NL     -0.154000
      2 C6         -0.4640    0.0460    1.2000 c1        1 4NL     -0.151000
      3 C3          0.9220    0.0460   -1.2000 c1        1 4NL     -0.120000
      4 C4          1.6150    0.0460   -0.0000 c1        1 4NL      0.038000
      5 C5          0.9220    0.0460    1.2000 c2        1 4NL     -0.176000
      6 C1         -1.1570    0.0460    0.0000 c1        1 4NL      0.017000
      7 N1         -2.5760    0.0750    0.0000 n3        1 4NL     -0.317000
      8 O1          3.0220    0.0630   -0.0000 o         1 4NL     -0.254000
      9 H2          1.4100    0.0460   -2.0460 ha        1 4NL      0.149000
     10 H6         -3.0470   -0.7060   -0.0000 hn        1 4NL      0.177000
     11 H3          1.4100    0.0460    2.0460 ha        1 4NL      0.132000
     12 H5          3.3280   -0.7700   -0.0000 ho        1 4NL      0.214000
     13 H4         -0.9520    0.0460    2.0460 ha        1 4NL      0.133000
     14 H1         -0.9520    0.0460   -2.0460 ha        1 4NL      0.135000
     15 H7         -3.0160    0.8730    0.0000 hn        1 4NL      0.177000
@<TRIPOS>BOND
     1    1    6 1   
     2    1   14 1   
     3    2    5 1   
     4    2   13 1   
     5    3    4 1   
     6    3    9 1   
     7    4    5 1   
     8    5   11 1   
     9    6    7 1   
    10    7   10 1   
    11    7   15 1   
    12    8   12 1   
@<TRIPOS>SUBSTRUCTURE
     1 4NL         1 TEMP              0 ****  ****    0 ROOT
