@<TRIPOS>MOLECULE
4NL
   15    15     1     0     0
SMALL
bcc


@<TRIPOS>ATOM
      1 C2         -0.0340   -0.1160   -0.0460 ca        1 4NL     -0.152500
      2 C6          0.0150   -0.0390    2.3830 ca        1 4NL     -0.152500
      3 C3          1.3520   -0.1390   -0.0780 ca        1 4NL     -0.148000
      4 C4          2.0730   -0.1110    1.1250 ca        1 4NL      0.083100
      5 C5          1.4040   -0.0610    2.3540 ca        1 4NL     -0.148000
      6 C1         -0.7320   -0.0730    1.1850 ca        1 4NL      0.098600
      7 N1         -2.1340   -0.1490    1.2150 nv        1 4NL     -0.808200
      8 O1          3.4480   -0.1300    1.0210 oh        1 4NL     -0.500100
      9 H2          1.8950   -0.1770   -1.0340 ha        1 4NL      0.140500
     10 H6         -2.5360    0.2430    2.0390 hn        1 4NL      0.381800
     11 H3          1.9740   -0.0400    3.2940 ha        1 4NL      0.140500
     12 H5          3.8110   -0.1310    1.9180 ho        1 4NL      0.415000
     13 H4         -0.4990   -0.0040    3.3550 ha        1 4NL      0.134000
     14 H1         -0.5920   -0.1430   -0.9950 ha        1 4NL      0.134000
     15 H7         -2.5690    0.1860    0.3840 hn        1 4NL      0.381800
@<TRIPOS>BOND
     1    1    3 ar  
     2    1    6 ar  
     3    1   14 1   
     4    2    5 ar  
     5    2    6 ar  
     6    2   13 1   
     7    3    4 ar  
     8    3    9 1   
     9    4    5 ar  
    10    4    8 1   
    11    5   11 1   
    12    6    7 1   
    13    7   10 1   
    14    7   15 1   
    15    8   12 1   
@<TRIPOS>SUBSTRUCTURE
     1 4NL         1 TEMP              0 ****  ****    0 ROOT
