@<TRIPOS>MOLECULE
4NL
   15    15     1     0     0
SMALL
bcc


@<TRIPOS>ATOM
      1 C2          0.0110   -0.2570    0.0510 ca        1 4NL     -0.152500
      2 C6         -0.0260    0.2510    2.4280 ca        1 4NL     -0.152500
      3 C3          1.3990   -0.3200    0.0880 ca        1 4NL     -0.148000
      4 C4          2.0730   -0.0980    1.2950 ca        1 4NL      0.083100
      5 C5          1.3590    0.1880    2.4680 ca        1 4NL     -0.148000
      6 C1         -0.7290    0.0370    1.2180 ca        1 4NL      0.098600
      7 N1         -2.1220    0.1980    1.1620 nh        1 4NL     -0.808200
      8 O1          3.4470   -0.1510    1.4060 oh        1 4NL     -0.500100
      9 H2          1.9630   -0.5440   -0.8280 ha        1 4NL      0.140500
     10 H6         -2.5760    0.0430    2.0360 hn        1 4NL      0.381800
     11 H3          1.9050    0.3590    3.4070 ha        1 4NL      0.140500
     12 H5          3.8060   -0.3320    0.5260 ho        1 4NL      0.415000
     13 H4         -0.5780    0.4800    3.3530 ha        1 4NL      0.134000
     14 H1         -0.5070   -0.4290   -0.9040 ha        1 4NL      0.134000
     15 H7         -2.5510   -0.3060    0.4160 hn        1 4NL      0.381800
@<TRIPOS>BOND
     1    1    3 ar  
     2    1    6 ar  
     3    1   14 1   
     4    2    5 ar  
     5    2    6 ar  
     6    2   13 1   
     7    3    4 ar  
     8    3    9 1   
     9    4    5 ar  
    10    4    8 1   
    11    5   11 1   
    12    6    7 1   
    13    7   10 1   
    14    7   15 1   
    15    8   12 1   
@<TRIPOS>SUBSTRUCTURE
     1 4NL         1 TEMP              0 ****  ****    0 ROOT
