@<TRIPOS>MOLECULE
4NL
   15    15     1     0     0
SMALL
bcc


@<TRIPOS>ATOM
      1 C2          2.9270   -1.6180    0.6100 ca        1 4NL     -0.152500
      2 C6          0.8200   -0.4080    0.5520 ca        1 4NL     -0.152500
      3 C3          2.8770   -1.6470    1.9960 ca        1 4NL     -0.148000
      4 C4          1.7950   -1.0530    2.6620 ca        1 4NL      0.083100
      5 C5          0.7670   -0.4350    1.9400 ca        1 4NL     -0.148000
      6 C1          1.9030   -0.9920   -0.1410 ca        1 4NL      0.098600
      7 N1          2.0060   -0.8800   -1.5360 nh        1 4NL     -0.808200
      8 O1          1.8050   -1.1230    4.0400 oh        1 4NL     -0.500100
      9 H2          3.6750   -2.1280    2.5790 ha        1 4NL      0.140500
     10 H6          1.1270   -0.7710   -1.9930 hn        1 4NL      0.381800
     11 H3         -0.0790    0.0280    2.4670 ha        1 4NL      0.140500
     12 H5          1.0200   -0.6590    4.3630 ho        1 4NL      0.415000
     13 H4          0.0080    0.0850   -0.0050 ha        1 4NL      0.134000
     14 H1          3.7820   -2.0820    0.0950 ha        1 4NL      0.134000
     15 H7          2.5650   -1.5930   -1.9530 hn        1 4NL      0.381800
@<TRIPOS>BOND
     1    1    3 ar  
     2    1    6 ar  
     3    1   14 1   
     4    2    5 ar  
     5    2    6 ar  
     6    2   13 1   
     7    3    4 ar  
     8    3    9 1   
     9    4    5 ar  
    10    4    8 1   
    11    5   11 1   
    12    6    7 1   
    13    7   10 1   
    14    7   15 1   
    15    8   12 1   
@<TRIPOS>SUBSTRUCTURE
     1 4NL         1 TEMP              0 ****  ****    0 ROOT
