@<TRIPOS>MOLECULE
4NM
   19    19     1     0     0
SMALL
bcc


@<TRIPOS>ATOM
      1 CAA         0.0560    0.1120    0.0050 c3        1 4NM      0.001000
      2 SAH         1.7630   -0.3450    0.1900 sh        1 4NM     -0.329900
      3 CAD        -1.0100   -0.4600    2.1960 ca        1 4NM     -0.131500
      4 CAF        -1.4450   -0.1200    3.4650 ca        1 4NM     -0.014500
      5 CAJ        -1.2900    1.2250    3.9020 ca        1 4NM     -0.063400
      6 NAK        -1.7350    1.5700    5.2230 nh        1 4NM      0.384700
      7 OAC        -1.5650    2.8180    5.5740 oh        1 4NM     -0.343300
      8 OAB        -2.2320    0.8510    6.0140 o         1 4NM     -0.159000
      9 CAG        -0.7040    2.2050    3.0580 ca        1 4NM     -0.014500
     10 C1         -0.4200    0.4990    1.3500 ca        1 4NM      0.083700
     11 CAE        -0.2820    1.8280    1.7950 ca        1 4NM     -0.131500
     12 HAA1       -0.0440    0.9650   -0.7150 h1        1 4NM      0.100200
     13 HAA2       -0.5380   -0.7470   -0.4000 h1        1 4NM      0.100200
     14 HAH         2.0140   -0.7030   -1.0630 hs        1 4NM      0.238800
     15 HAD        -1.1170   -1.5030    1.8490 ha        1 4NM      0.191000
     16 HAF        -1.9000   -0.8830    4.1230 ha        1 4NM      0.189000
     17 HAG        -0.5840    3.2500    3.3960 ha        1 4NM      0.189000
     18 HAE         0.1830    2.5800    1.1310 ha        1 4NM      0.191000
     19 HOA        -1.8940    2.9810    6.5020 ho        1 4NM      0.520000
@<TRIPOS>BOND
     1    1    2 1   
     2    1   10 1   
     3    1   12 1   
     4    1   13 1   
     5    2   14 1   
     6    3    4 ar  
     7    3   10 ar  
     8    3   15 1   
     9    4    5 ar  
    10    4   16 1   
    11    5    6 1   
    12    5    9 ar  
    13    6    7 1   
    14    6    8 1   
    15    7   19 1   
    16    9   11 ar  
    17    9   17 1   
    18   10   11 ar  
    19   11   18 1   
@<TRIPOS>SUBSTRUCTURE
     1 4NM         1 TEMP              0 ****  ****    0 ROOT
