@<TRIPOS>MOLECULE
4NM
   19    19     1     0     0
SMALL
bcc


@<TRIPOS>ATOM
      1 CAA         0.0610    0.1180    0.0050 c3        1 4NM      0.001000
      2 SAH         1.7610   -0.3630    0.1970 sh        1 4NM     -0.329900
      3 CAD        -1.0220   -0.4540    2.1870 ca        1 4NM     -0.131500
      4 CAF        -1.4600   -0.1160    3.4560 ca        1 4NM     -0.014500
      5 CAJ        -1.2930    1.2240    3.9010 ca        1 4NM     -0.063400
      6 NAK        -1.7420    1.5670    5.2210 nh        1 4NM      0.384700
      7 OAC        -1.5600    2.8110    5.5800 oh        1 4NM     -0.343300
      8 OAB        -2.2510    0.8490    6.0050 o         1 4NM     -0.159000
      9 CAG        -0.6920    2.2030    3.0650 ca        1 4NM     -0.014500
     10 C1         -0.4180    0.5030    1.3490 ca        1 4NM      0.083700
     11 CAE        -0.2670    1.8270    1.8020 ca        1 4NM     -0.131500
     12 HAA1       -0.0230    0.9760   -0.7100 h1        1 4NM      0.100200
     13 HAA2       -0.5420   -0.7300   -0.4080 h1        1 4NM      0.100200
     14 HAH         2.0160   -0.7140   -1.0580 hs        1 4NM      0.238800
     15 HAD        -1.1400   -1.4950    1.8330 ha        1 4NM      0.191000
     16 HAF        -1.9280   -0.8780    4.1070 ha        1 4NM      0.189000
     17 HAG        -0.5620    3.2440    3.4100 ha        1 4NM      0.189000
     18 HAE         0.2090    2.5780    1.1450 ha        1 4NM      0.191000
     19 HOA        -1.8910    2.9720    6.5070 ho        1 4NM      0.520000
@<TRIPOS>BOND
     1    1    2 1   
     2    1   10 1   
     3    1   12 1   
     4    1   13 1   
     5    2   14 1   
     6    3    4 ar  
     7    3   10 ar  
     8    3   15 1   
     9    4    5 ar  
    10    4   16 1   
    11    5    6 1   
    12    5    9 ar  
    13    6    7 1   
    14    6    8 1   
    15    7   19 1   
    16    9   11 ar  
    17    9   17 1   
    18   10   11 ar  
    19   11   18 1   
@<TRIPOS>SUBSTRUCTURE
     1 4NM         1 TEMP              0 ****  ****    0 ROOT
