@<TRIPOS>MOLECULE
4NM
   19    19     1     0     0
SMALL
bcc


@<TRIPOS>ATOM
      1 CAA        33.5510  -45.4990  -10.6680 c3        1 4NM      0.001000
      2 SAH        34.6910  -46.8500  -10.8490 sh        1 4NM     -0.329900
      3 CAD        31.4990  -46.5160   -9.6580 ca        1 4NM     -0.131500
      4 CAF        30.7090  -46.8380   -8.5680 ca        1 4NM     -0.014500
      5 CAJ        31.1410  -46.4440   -7.2720 ca        1 4NM     -0.063400
      6 NAK        30.3210  -46.7870   -6.1440 nh        1 4NM      0.384700
      7 OAC        30.7670  -46.4040   -4.9760 oh        1 4NM     -0.343300
      8 OAB        29.2980  -47.3740   -6.1640 o         1 4NM     -0.159000
      9 CAG        32.3550  -45.7310   -7.0910 ca        1 4NM     -0.014500
     10 C1         32.7110  -45.8170   -9.4940 ca        1 4NM      0.083700
     11 CAE        33.1200  -45.4270   -8.2050 ca        1 4NM     -0.131500
     12 HAA1       34.1050  -44.5380  -10.5140 h1        1 4NM      0.100200
     13 HAA2       32.9250  -45.3880  -11.5910 h1        1 4NM      0.100200
     14 HAH        35.3200  -46.4410  -11.9440 hs        1 4NM      0.238800
     15 HAD        31.1780  -46.8250  -10.6690 ha        1 4NM      0.191000
     16 HAF        29.7630  -47.3930   -8.7090 ha        1 4NM      0.189000
     17 HAG        32.6920  -45.4240   -6.0840 ha        1 4NM      0.189000
     18 HAE        34.0710  -44.8790   -8.0760 ha        1 4NM      0.191000
     19 HOA        30.1490  -46.6810   -4.2440 ho        1 4NM      0.520000
@<TRIPOS>BOND
     1    1    2 1   
     2    1   10 1   
     3    1   12 1   
     4    1   13 1   
     5    2   14 1   
     6    3    4 ar  
     7    3   10 ar  
     8    3   15 1   
     9    4    5 ar  
    10    4   16 1   
    11    5    6 1   
    12    5    9 ar  
    13    6    7 1   
    14    6    8 1   
    15    7   19 1   
    16    9   11 ar  
    17    9   17 1   
    18   10   11 ar  
    19   11   18 1   
@<TRIPOS>SUBSTRUCTURE
     1 4NM         1 TEMP              0 ****  ****    0 ROOT
