@<TRIPOS>MOLECULE
4NM
   19    19     1     0     0
SMALL
bcc


@<TRIPOS>ATOM
      1 CAA         0.0570    0.1140    0.0050 c3        1 4NM      0.001000
      2 SAH         1.7610   -0.3530    0.1930 sh        1 4NM     -0.329900
      3 CAD        -1.0200   -0.4560    2.1910 ca        1 4NM     -0.131500
      4 CAF        -1.4560   -0.1160    3.4600 ca        1 4NM     -0.014500
      5 CAJ        -1.2910    1.2260    3.9020 ca        1 4NM     -0.063400
      6 NAK        -1.7370    1.5710    5.2220 nh        1 4NM      0.384700
      7 OAC        -1.5580    2.8160    5.5770 oh        1 4NM     -0.343300
      8 OAB        -2.2430    0.8530    6.0090 o         1 4NM     -0.159000
      9 CAG        -0.6950    2.2040    3.0620 ca        1 4NM     -0.014500
     10 C1         -0.4200    0.5000    1.3490 ca        1 4NM      0.083700
     11 CAE        -0.2710    1.8260    1.7990 ca        1 4NM     -0.131500
     12 HAA1       -0.5410   -0.7410   -0.4030 h1        1 4NM      0.100200
     13 HAA2       -0.0370    0.9680   -0.7130 h1        1 4NM      0.100200
     14 HAH         2.0120   -0.7140   -1.0600 hs        1 4NM      0.238800
     15 HAD        -1.1350   -1.4980    1.8400 ha        1 4NM      0.191000
     16 HAF        -1.9200   -0.8770    4.1140 ha        1 4NM      0.189000
     17 HAG        -0.5660    3.2460    3.4040 ha        1 4NM      0.189000
     18 HAE         0.2010    2.5760    1.1390 ha        1 4NM      0.191000
     19 HOA        -1.8870    2.9790    6.5050 ho        1 4NM      0.520000
@<TRIPOS>BOND
     1    1    2 1   
     2    1   10 1   
     3    1   12 1   
     4    1   13 1   
     5    2   14 1   
     6    3    4 ar  
     7    3   10 ar  
     8    3   15 1   
     9    4    5 ar  
    10    4   16 1   
    11    5    6 1   
    12    5    9 ar  
    13    6    7 1   
    14    6    8 1   
    15    7   19 1   
    16    9   11 ar  
    17    9   17 1   
    18   10   11 ar  
    19   11   18 1   
@<TRIPOS>SUBSTRUCTURE
     1 4NM         1 TEMP              0 ****  ****    0 ROOT
