@<TRIPOS>MOLECULE
4NM
   19    17     1     0     0
SMALL
bcc


@<TRIPOS>ATOM
      1 CAA         0.9010    0.9230   -2.3960 c3        1 4NM     -0.267000
      2 SAH         2.6710    0.8520   -2.3230 sh        1 4NM      0.024000
      3 CAD        -0.0700    1.2730   -0.1070 c1        1 4NM     -0.132000
      4 CAF        -0.5620    0.7860    1.0930 c1        1 4NM     -0.012000
      5 CAJ        -0.6640   -0.5810    1.2980 c1        1 4NM     -0.145000
      6 NAK        -1.1600   -1.0790    2.5300 n2        1 4NM      0.518000
      7 OAC        -2.1360   -0.3950    3.2000 oh        1 4NM     -0.194000
      8 OAB        -0.7060   -2.1130    2.9990 o         1 4NM     -0.159000
      9 CAG        -0.2730   -1.4610    0.3010 c2        1 4NM     -0.017000
     10 C1          0.3210    0.3930   -1.1040 c2        1 4NM      0.091000
     11 CAE         0.2200   -0.9750   -0.8990 c2        1 4NM     -0.131000
     12 HAA1        0.5840    0.3780   -3.1440 h1        1 4NM      0.139500
     13 HAA2        0.6170    1.8500   -2.5250 h1        1 4NM      0.139500
     14 HAH         3.1220    1.2120   -3.3500 hs        1 4NM      0.067000
     15 HAD         0.0010    2.2360   -0.2510 ha        1 4NM      0.191000
     16 HAF        -0.8380    1.4060    1.7950 ha        1 4NM      0.188000
     17 HAG        -0.3440   -2.4240    0.4450 ha        1 4NM      0.190000
     18 HAE         0.4950   -1.5950   -1.6010 ha        1 4NM      0.191000
     19 HOA        -2.1790   -0.6860    4.0390 ho        1 4NM      0.319000
@<TRIPOS>BOND
     1    1    2 1   
     2    1   10 1   
     3    1   12 1   
     4    1   13 1   
     5    2   14 1   
     6    3   10 1   
     7    3   15 1   
     8    4    5 1   
     9    4   16 1   
    10    5    9 1   
    11    6    7 1   
    12    6    8 1   
    13    7   19 1   
    14    9   11 1   
    15    9   17 1   
    16   10   11 1   
    17   11   18 1   
@<TRIPOS>SUBSTRUCTURE
     1 4NM         1 TEMP              0 ****  ****    0 ROOT
