@<TRIPOS>MOLECULE
4NN
   25    25     1     0     0
SMALL
bcc


@<TRIPOS>ATOM
      1 C1         -0.2020   -1.0310    0.5780 c         1 4NN      0.705800
      2 O1          0.2270   -2.0890    1.0430 o         1 4NN     -0.574500
      3 C2          0.6070    0.0710   -0.0250 ce        1 4NN     -0.021600
      4 N2          1.9500   -0.2440   -0.2490 n         1 4NN     -0.479100
      5 C3          0.0110    1.2600   -0.2750 c2        1 4NN     -0.210200
      6 C4         -1.4470    1.4710   -0.0340 c3        1 4NN      0.156300
      7 O4         -1.6820    2.2180    1.1470 oh        1 4NN     -0.575800
      8 C5         -2.2270    0.1520    0.0010 c3        1 4NN      0.058100
      9 O5         -1.5570   -0.8960    0.7160 os        1 4NN     -0.408900
     10 C6         -2.5630   -0.3470   -1.4070 c3        1 4NN      0.113400
     11 O6         -3.4360   -1.4530   -1.3610 oh        1 4NN     -0.588800
     12 C7          2.8880    0.5590   -0.8920 c         1 4NN      0.667100
     13 O7          2.6000    1.6790   -1.3490 o         1 4NN     -0.583100
     14 C8          4.2810   -0.0110   -1.0060 c3        1 4NN     -0.176100
     15 HN2         2.2470   -1.1340    0.0950 hn        1 4NN      0.339500
     16 H3          0.5630    2.1340   -0.6630 ha        1 4NN      0.193000
     17 H4         -1.8760    2.1260   -0.8500 h1        1 4NN      0.103700
     18 HO4        -1.2870    1.7340    1.8830 ho        1 4NN      0.409000
     19 H5         -3.1770    0.2840    0.5990 h1        1 4NN      0.116700
     20 H6         -3.1230    0.4430   -1.9750 h1        1 4NN      0.058700
     21 H6A        -1.6200   -0.6160   -1.9540 h1        1 4NN      0.058700
     22 HO6        -3.0250   -2.1220   -0.7960 ho        1 4NN      0.415000
     23 H8          4.9240    0.7280   -1.5430 hc        1 4NN      0.073700
     24 H8A         4.7120   -0.2000    0.0070 hc        1 4NN      0.073700
     25 H8B         4.2680   -0.9680   -1.5820 hc        1 4NN      0.073700
@<TRIPOS>BOND
     1    1    2 2   
     2    1    3 1   
     3    1    9 1   
     4    3    4 1   
     5    3    5 2   
     6    4   12 1   
     7    4   15 1   
     8    5    6 1   
     9    5   16 1   
    10    6    7 1   
    11    6    8 1   
    12    6   17 1   
    13    7   18 1   
    14    8    9 1   
    15    8   10 1   
    16    8   19 1   
    17   10   11 1   
    18   10   20 1   
    19   10   21 1   
    20   11   22 1   
    21   12   13 2   
    22   12   14 1   
    23   14   23 1   
    24   14   24 1   
    25   14   25 1   
@<TRIPOS>SUBSTRUCTURE
     1 4NN         1 TEMP              0 ****  ****    0 ROOT
