@<TRIPOS>MOLECULE
4NN
   25    23     1     0     0
SMALL
bcc


@<TRIPOS>ATOM
      1 C1         -1.4540   -0.4920   -0.4070 c1        1 4NN      0.329000
      2 O1         -2.0970   -0.8790   -1.3970 o         1 4NN     -0.305000
      3 C2          0.1430   -0.4720   -0.4500 c1        1 4NN      0.013000
      4 N2          0.8300   -0.8890   -1.6310 n         1 4NN     -0.321000
      5 C3          0.8910   -0.4660    0.9400 c1        1 4NN     -0.226000
      6 C4          0.0140   -0.4840    2.1840 c2        1 4NN      0.045000
      7 O4         -0.0530   -1.8580    2.7600 oh        1 4NN     -0.316000
      8 C5         -1.3560    0.0790    1.9220 c3        1 4NN     -0.013000
      9 O5         -2.0750   -0.4610    0.8690 os        1 4NN     -0.236000
     10 C6         -1.1910    1.6640    1.6510 c3        1 4NN     -0.038000
     11 O6         -2.3970    2.1930    1.2770 oh        1 4NN     -0.316000
     12 C7          1.2750    0.0630   -2.5540 c2        1 4NN      0.312000
     13 O7          1.0710    1.2960   -2.3430 o         1 4NN     -0.348000
     14 C8          1.9820   -0.3880   -3.8370 c3        1 4NN     -0.244000
     15 HN2         1.0480   -1.7590   -1.7420 hn        1 4NN      0.254000
     16 H3          1.8150   -0.7590    0.9950 ha        1 4NN      0.184000
     17 H4          0.4300   -0.0090    2.8980 h4        1 4NN      0.102000
     18 HO4         0.4370   -1.8880    3.5440 ho        1 4NN      0.214000
     19 H5         -1.8810   -0.0350    2.7260 h1        1 4NN      0.162000
     20 H6         -0.5390    1.8060    0.9390 h1        1 4NN      0.096000
     21 H6A        -0.8780    2.1120    2.4810 h1        1 4NN      0.096000
     22 HO6        -2.4290    3.0510    1.5110 ho        1 4NN      0.216000
     23 H8          1.4710   -1.0900   -4.2550 hc        1 4NN      0.113333
     24 H8A         2.8830   -0.7250   -3.6130 hc        1 4NN      0.113333
     25 H8B         2.0620    0.3890   -4.4690 hc        1 4NN      0.113333
@<TRIPOS>BOND
     1    1    2 1   
     2    1    9 1   
     3    3    4 1   
     4    3    5 1   
     5    4   12 1   
     6    4   15 1   
     7    5   16 1   
     8    6    7 1   
     9    6    8 1   
    10    6   17 1   
    11    7   18 1   
    12    8    9 1   
    13    8   10 1   
    14    8   19 1   
    15   10   11 1   
    16   10   20 1   
    17   10   21 1   
    18   11   22 1   
    19   12   13 1   
    20   12   14 1   
    21   14   23 1   
    22   14   24 1   
    23   14   25 1   
@<TRIPOS>SUBSTRUCTURE
     1 4NN         1 TEMP              0 ****  ****    0 ROOT
