@<TRIPOS>MOLECULE
4NO
   19    19     1     0     0
SMALL
bcc


@<TRIPOS>ATOM
      1 O16         1.2670   -0.9530   -1.0450 o         1 4NO     -0.913500
      2 P13         2.2160   -0.4660    0.0130 p5        1 4NO      1.209000
      3 O15         1.7560   -0.6390    1.4220 o         1 4NO     -0.913500
      4 O14         3.6570   -0.8000   -0.2470 o         1 4NO     -0.913500
      5 C4          2.2760    1.5580   -0.5540 ca        1 4NO     -0.100500
      6 C3          2.7260    1.3610   -1.8630 ca        1 4NO     -0.016000
      7 C2          2.9500    2.4430   -2.7410 ca        1 4NO     -0.257200
      8 N1          3.4210    2.2480   -4.1110 no        1 4NO      0.318200
      9 O8          3.6410    1.1470   -4.5610 o         1 4NO     -0.316500
     10 O9          3.6040    3.2090   -4.8410 o         1 4NO     -0.316500
     11 C7          2.7160    3.7660   -2.2940 ca        1 4NO     -0.155000
     12 C6          2.2730    3.9500   -1.0020 ca        1 4NO     -0.177000
     13 C5          2.0450    2.8670   -0.1150 ca        1 4NO     -0.002600
     14 C10         1.5600    3.3430    1.2450 c         1 4NO      0.931200
     15 O11         0.3200    3.5510    1.4160 o         1 4NO     -0.873300
     16 O12         2.4160    3.6860    2.1170 o         1 4NO     -0.873300
     17 H3          2.9090    0.3240   -2.2130 ha        1 4NO      0.184000
     18 H4          2.8860    4.6190   -2.9640 ha        1 4NO      0.092000
     19 H5          2.0860    4.9720   -0.6400 ha        1 4NO      0.094000
@<TRIPOS>BOND
     1    1    2 1   
     2    2    3 1   
     3    2    4 1   
     4    2    5 1   
     5    5    6 ar  
     6    5   13 ar  
     7    6    7 ar  
     8    6   17 1   
     9    7    8 1   
    10    7   11 ar  
    11    8    9 1   
    12    8   10 1   
    13   11   12 ar  
    14   11   18 1   
    15   12   13 ar  
    16   12   19 1   
    17   13   14 1   
    18   14   15 1   
    19   14   16 1   
@<TRIPOS>SUBSTRUCTURE
     1 4NO         1 TEMP              0 ****  ****    0 ROOT
