@<TRIPOS>MOLECULE
4NP
   18    17     1     0     0
SMALL
bcc


@<TRIPOS>ATOM
      1 P          -0.4340   -0.5850   -0.9190 p3        1 4NP      2.465000
      2 O1          0.8650    0.2780    0.8820 o         1 4NP     -0.459000
      3 O2         -1.6850   -0.7910   -0.1570 o         1 4NP     -1.160667
      4 O3          0.4210   -1.7560   -1.2120 o         1 4NP     -1.160667
      5 O4         -0.2750    0.6440   -1.7260 o         1 4NP     -1.160667
      6 C1          1.5360    1.2400    1.3400 ca        1 4NP      0.322000
      7 C2          1.7330    2.4770    0.5990 ca        1 4NP     -0.305500
      8 C3          2.4600    3.5070    1.1050 ca        1 4NP     -0.014500
      9 C4          3.0660    3.4170    2.3980 ca        1 4NP     -0.344000
     10 C5          2.8900    2.2180    3.1480 ca        1 4NP     -0.014500
     11 C6          2.1640    1.1790    2.6510 ca        1 4NP     -0.305500
     12 N           3.8310    4.5030    2.9280 no        1 4NP      0.594000
     13 O5          4.3460    4.4220    4.0300 o         1 4NP     -0.485000
     14 O6          3.9840    5.5300    2.2910 o         1 4NP     -0.485000
     15 H21         1.2580    2.5260   -0.3950 ha        1 4NP      0.143000
     16 H31         2.5980    4.4350    0.5270 ha        1 4NP      0.113500
     17 H51         3.3570    2.1480    4.1450 ha        1 4NP      0.113500
     18 H61         2.0270    0.2550    3.2260 ha        1 4NP      0.143000
@<TRIPOS>BOND
     1    1    3 1   
     2    1    4 1   
     3    1    5 1   
     4    2    6 1   
     5    6    7 1   
     6    6   11 1   
     7    7    8 1   
     8    7   15 1   
     9    8    9 1   
    10    8   16 1   
    11    9   10 1   
    12    9   12 1   
    13   10   11 1   
    14   10   17 1   
    15   11   18 1   
    16   12   13 1   
    17   12   14 1   
@<TRIPOS>SUBSTRUCTURE
     1 4NP         1 TEMP              0 ****  ****    0 ROOT
