@<TRIPOS>MOLECULE
4NP
   18    17     1     0     0
SMALL
bcc


@<TRIPOS>ATOM
      1 P          -0.5050   -0.5690   -0.8640 p3        1 4NP      2.465000
      2 O1          0.8110    0.3000    0.9220 o         1 4NP     -0.459000
      3 O2         -1.7670   -0.7110   -0.1050 o         1 4NP     -1.160667
      4 O3          0.3110   -1.7770   -1.1170 o         1 4NP     -1.160667
      5 O4         -0.2990    0.6300   -1.7040 o         1 4NP     -1.160667
      6 C1          1.5110    1.2510    1.3570 ca        1 4NP      0.322000
      7 C2          1.7550    2.4600    0.5840 ca        1 4NP     -0.305500
      8 C3          2.5130    3.4790    1.0670 ca        1 4NP     -0.014500
      9 C4          3.1080    3.4050    2.3660 ca        1 4NP     -0.344000
     10 C5          2.8870    2.2330    3.1480 ca        1 4NP     -0.014500
     11 C6          2.1300    1.2070    2.6740 ca        1 4NP     -0.305500
     12 N           3.9050    4.4790    2.8710 no        1 4NP      0.594000
     13 O5          4.4100    4.4120    3.9790 o         1 4NP     -0.485000
     14 O6          4.0960    5.4820    2.2070 o         1 4NP     -0.485000
     15 H21         1.2880    2.4970   -0.4140 ha        1 4NP      0.143000
     16 H31         2.6850    4.3860    0.4650 ha        1 4NP      0.113500
     17 H51         3.3450    2.1760    4.1490 ha        1 4NP      0.113500
     18 H61         1.9580    0.3030    3.2730 ha        1 4NP      0.143000
@<TRIPOS>BOND
     1    1    3 1   
     2    1    4 1   
     3    1    5 1   
     4    2    6 1   
     5    6    7 1   
     6    6   11 1   
     7    7    8 1   
     8    7   15 1   
     9    8    9 1   
    10    8   16 1   
    11    9   10 1   
    12    9   12 1   
    13   10   11 1   
    14   10   17 1   
    15   11   18 1   
    16   12   13 1   
    17   12   14 1   
@<TRIPOS>SUBSTRUCTURE
     1 4NP         1 TEMP              0 ****  ****    0 ROOT
