@<TRIPOS>MOLECULE
4NP
   18    17     1     0     0
SMALL
bcc


@<TRIPOS>ATOM
      1 P           3.6930   -0.3380    0.0770 p3        1 4NP      2.465000
      2 O1          1.5150    0.6150   -0.0910 o         1 4NP     -0.459000
      3 O2          4.0890    0.3390    1.3310 o         1 4NP     -1.160667
      4 O3          4.2150    0.1790   -1.2060 o         1 4NP     -1.160667
      5 O4          3.1680   -1.7200    0.1390 o         1 4NP     -1.160667
      6 C1          0.2730    0.4180   -0.1400 ca        1 4NP      0.322000
      7 C2         -0.3100   -0.9140   -0.0850 ca        1 4NP     -0.305500
      8 C3         -1.6530   -1.1110   -0.1390 ca        1 4NP     -0.014500
      9 C4         -2.5570   -0.0080   -0.2540 ca        1 4NP     -0.344000
     10 C5         -2.0160    1.3100   -0.3100 ca        1 4NP     -0.014500
     11 C6         -0.6720    1.5190   -0.2570 ca        1 4NP     -0.305500
     12 N          -3.9700   -0.2190   -0.3110 no        1 4NP      0.594000
     13 O5         -4.7370    0.7240   -0.4090 o         1 4NP     -0.485000
     14 O6         -4.4370   -1.3430   -0.2630 o         1 4NP     -0.485000
     15 H21         0.4040   -1.7500    0.0030 ha        1 4NP      0.143000
     16 H31        -2.0740   -2.1290   -0.0960 ha        1 4NP      0.113500
     17 H51        -2.7120    2.1600   -0.3990 ha        1 4NP      0.113500
     18 H61        -0.2520    2.5320   -0.3000 ha        1 4NP      0.143000
@<TRIPOS>BOND
     1    1    3 1   
     2    1    4 1   
     3    1    5 1   
     4    2    6 1   
     5    6    7 1   
     6    6   11 1   
     7    7    8 1   
     8    7   15 1   
     9    8    9 1   
    10    8   16 1   
    11    9   10 1   
    12    9   12 1   
    13   10   11 1   
    14   10   17 1   
    15   11   18 1   
    16   12   13 1   
    17   12   14 1   
@<TRIPOS>SUBSTRUCTURE
     1 4NP         1 TEMP              0 ****  ****    0 ROOT
