@<TRIPOS>MOLECULE
4NP
   18    15     1     0     0
SMALL
bcc


@<TRIPOS>ATOM
      1 P          -2.3070   -1.9840    1.2080 p3        1 4NP      2.465000
      2 O1         -0.7280   -1.9400    1.1540 o         1 4NP     -0.459000
      3 O2         -2.7570   -2.1420    2.6410 o         1 4NP     -1.160667
      4 O3         -2.8050   -3.1530    0.3930 o         1 4NP     -1.160667
      5 O4         -2.8660   -0.7010    0.6430 o         1 4NP     -1.160667
      6 C1         -0.1100   -0.8590    0.5010 c2        1 4NP      0.322000
      7 C2          0.1510    0.3120    1.1950 c2        1 4NP     -0.319000
      8 C3          0.8030    1.3600    0.5640 c1        1 4NP     -0.008000
      9 C4          1.1950    1.2370   -0.7590 c1        1 4NP     -0.344000
     10 C5          0.9340    0.0650   -1.4530 c1        1 4NP     -0.021000
     11 C6          0.2810   -0.9830   -0.8230 c1        1 4NP     -0.292000
     12 N           1.8310    2.3220   -1.4150 no        1 4NP      0.594000
     13 O5          2.0260    3.5000   -0.7520 o         1 4NP     -0.485000
     14 O6          2.1830    2.2110   -2.5800 o         1 4NP     -0.485000
     15 H21        -0.1250    0.3990    2.1270 ha        1 4NP      0.118000
     16 H31         0.9870    2.1850    1.0530 ha        1 4NP      0.110000
     17 H51         1.2090   -0.0210   -2.3850 ha        1 4NP      0.117000
     18 H61         0.0970   -1.8070   -1.3110 ha        1 4NP      0.168000
@<TRIPOS>BOND
     1    1    3 1   
     2    1    4 1   
     3    1    5 1   
     4    2    6 1   
     5    6    7 1   
     6    6   11 1   
     7    7    8 1   
     8    7   15 1   
     9    8   16 1   
    10    9   10 1   
    11    9   12 1   
    12   10   17 1   
    13   11   18 1   
    14   12   13 1   
    15   12   14 1   
@<TRIPOS>SUBSTRUCTURE
     1 4NP         1 TEMP              0 ****  ****    0 ROOT
