@<TRIPOS>MOLECULE
4NR
   28    30     1     0     0
SMALL
bcc


@<TRIPOS>ATOM
      1 CAF         0.0170   -0.0970   -0.0260 ca        1 4NR     -0.115500
      2 CAD         1.4050   -0.1570   -0.0330 ca        1 4NR     -0.165000
      3 CAL         2.1090   -0.0680    1.1820 ca        1 4NR      0.111900
      4 FAC         3.4630   -0.1210    1.1860 f         1 4NR     -0.143900
      5 CAE         1.4090    0.0730    2.3940 ca        1 4NR     -0.165000
      6 CAG         0.0190    0.1300    2.3810 ca        1 4NR     -0.115500
      7 CAO        -0.6950    0.0560    1.1750 ca        1 4NR     -0.014800
      8 CAP        -2.1360    0.0980    1.1590 cc        1 4NR     -0.114400
      9 C5         -3.0030    1.0900    1.7310 cc        1 4NR     -0.325100
     10 C6         -2.8680    2.3240    2.4030 cd        1 4NR      0.795200
     11 NAB        -1.6360    2.8440    2.6970 nh        1 4NR     -0.954500
     12 N1         -3.9960    3.0440    2.7870 nd        1 4NR     -0.836000
     13 C2         -5.2290    2.5280    2.5390 cc        1 4NR      0.788400
     14 NAA        -6.3550    3.2060    3.0630 nh        1 4NR     -0.929500
     15 N3         -5.4650    1.3420    1.8410 na        1 4NR     -0.323900
     16 C4         -4.3600    0.6020    1.4290 cc        1 4NR     -0.004300
     17 NAK        -4.3370   -0.5720    0.7280 nd        1 4NR     -0.326600
     18 CAH        -2.9890   -0.8610    0.5690 cd        1 4NR      0.037600
     19 HAF        -0.5380   -0.1720   -0.9750 ha        1 4NR      0.144500
     20 HAD         1.9590   -0.2760   -0.9750 ha        1 4NR      0.146500
     21 HAE         1.9650    0.1250    3.3410 ha        1 4NR      0.146500
     22 HAG        -0.5300    0.2100    3.3320 ha        1 4NR      0.144500
     23 HAH        -2.6910   -1.7680    0.0380 h4        1 4NR      0.164000
     24 HAB1       -0.8360    2.3840    2.3310 hn        1 4NR      0.450300
     25 HAB2       -1.5420    3.7390    3.1080 hn        1 4NR      0.450300
     26 HAA1       -7.1590    3.2150    2.4760 hn        1 4NR      0.421300
     27 HAA2       -6.1460    4.0910    3.4760 hn        1 4NR      0.421300
     28 H3         -6.3820    0.9760    1.7090 hn        1 4NR      0.312700
@<TRIPOS>BOND
     1    1    2 ar  
     2    1    7 ar  
     3    1   19 1   
     4    2    3 ar  
     5    2   20 1   
     6    3    4 1   
     7    3    5 ar  
     8    5    6 ar  
     9    5   21 1   
    10    6    7 ar  
    11    6   22 1   
    12    7    8 1   
    13    8    9 1   
    14    8   18 2   
    15    9   10 2   
    16    9   16 1   
    17   10   11 1   
    18   10   12 1   
    19   11   24 1   
    20   11   25 1   
    21   12   13 2   
    22   13   14 1   
    23   13   15 1   
    24   14   26 1   
    25   14   27 1   
    26   15   16 1   
    27   15   28 1   
    28   16   17 2   
    29   17   18 1   
    30   18   23 1   
@<TRIPOS>SUBSTRUCTURE
     1 4NR         1 TEMP              0 ****  ****    0 ROOT
