@<TRIPOS>MOLECULE
4NR
   28    30     1     0     0
SMALL
bcc


@<TRIPOS>ATOM
      1 CAF         0.0090   -0.1540    0.0020 ca        1 4NR     -0.115500
      2 CAD         1.3970   -0.2090   -0.0130 ca        1 4NR     -0.165000
      3 CAL         2.1100   -0.0710    1.1930 ca        1 4NR      0.111900
      4 FAC         3.4640   -0.1190    1.1880 f         1 4NR     -0.143900
      5 CAE         1.4180    0.1130    2.4040 ca        1 4NR     -0.165000
      6 CAG         0.0290    0.1650    2.3990 ca        1 4NR     -0.115500
      7 CAO        -0.6940    0.0430    1.2020 ca        1 4NR     -0.014800
      8 CAP        -2.1350    0.0790    1.1950 cc        1 4NR     -0.114400
      9 C5         -3.0030    1.0880    1.7370 cc        1 4NR     -0.325100
     10 C6         -2.8680    2.3470    2.3610 cd        1 4NR      0.795200
     11 NAB        -1.6360    2.8820    2.6260 nv        1 4NR     -0.954500
     12 N1         -3.9950    3.0770    2.7260 nd        1 4NR     -0.836000
     13 C2         -5.2280    2.5460    2.5070 cc        1 4NR      0.788400
     14 NAA        -6.3530    3.2400    3.0140 nv        1 4NR     -0.929500
     15 N3         -5.4650    1.3350    1.8550 na        1 4NR     -0.323900
     16 C4         -4.3590    0.5840    1.4630 cc        1 4NR     -0.004300
     17 NAK        -4.3360   -0.6150    0.8060 nd        1 4NR     -0.326600
     18 CAH        -2.9890   -0.9050    0.6470 cd        1 4NR      0.037600
     19 HAF        -0.5530   -0.2660   -0.9390 ha        1 4NR      0.144500
     20 HAD         1.9450   -0.3610   -0.9540 ha        1 4NR      0.146500
     21 HAE         1.9810    0.2030    3.3440 ha        1 4NR      0.146500
     22 HAG        -0.5140    0.2790    3.3510 ha        1 4NR      0.144500
     23 HAH        -2.6910   -1.8300    0.1490 h4        1 4NR      0.164000
     24 HAB1       -0.8370    2.4120    2.2710 hn        1 4NR      0.450300
     25 HAB2       -1.5420    3.7920    3.0020 hn        1 4NR      0.450300
     26 HAA1       -6.1450    4.1400    3.3920 hn        1 4NR      0.421300
     27 HAA2       -7.1620    3.2230    2.4330 hn        1 4NR      0.421300
     28 H3         -6.3810    0.9610    1.7440 hn        1 4NR      0.312700
@<TRIPOS>BOND
     1    1    2 ar  
     2    1    7 ar  
     3    1   19 1   
     4    2    3 ar  
     5    2   20 1   
     6    3    4 1   
     7    3    5 ar  
     8    5    6 ar  
     9    5   21 1   
    10    6    7 ar  
    11    6   22 1   
    12    7    8 1   
    13    8    9 1   
    14    8   18 2   
    15    9   10 2   
    16    9   16 1   
    17   10   11 1   
    18   10   12 1   
    19   11   24 1   
    20   11   25 1   
    21   12   13 2   
    22   13   14 1   
    23   13   15 1   
    24   14   26 1   
    25   14   27 1   
    26   15   16 1   
    27   15   28 1   
    28   16   17 2   
    29   17   18 1   
    30   18   23 1   
@<TRIPOS>SUBSTRUCTURE
     1 4NR         1 TEMP              0 ****  ****    0 ROOT
