@<TRIPOS>MOLECULE
4NS
   18    18     1     0     0
SMALL
bcc


@<TRIPOS>ATOM
      1 O6          4.3110   -1.2800   -0.0360 o         1 4NS     -0.258500
      2 N           3.8550   -0.1710    0.1140 no        1 4NS      0.327200
      3 O5          4.5900    0.7820    0.2210 o         1 4NS     -0.258500
      4 C4          2.4030    0.0200    0.1680 ca        1 4NS     -0.287200
      5 C5          1.5390   -1.0900    0.0460 ca        1 4NS     -0.024500
      6 C6          0.1720   -0.9120    0.0980 ca        1 4NS     -0.254500
      7 C3          1.8700    1.3150    0.3430 ca        1 4NS     -0.024500
      8 C2          0.5040    1.4960    0.3930 ca        1 4NS     -0.254500
      9 C1         -0.3800    0.3860    0.2700 ca        1 4NS      0.351100
     10 O1         -1.6740    0.6150    0.3410 os        1 4NS     -0.493800
     11 S          -3.1450   -0.3380   -0.0560 s6        1 4NS      1.725300
     12 O2         -4.0280    0.2700    0.8100 o         1 4NS     -0.724533
     13 O3         -3.2630   -0.0450   -1.3980 o         1 4NS     -0.724533
     14 O4         -2.7260   -1.6160    0.2630 o         1 4NS     -0.724533
     15 H5          1.9620   -2.0990   -0.0870 ha        1 4NS      0.146000
     16 H6         -0.5120   -1.7750    0.0180 ha        1 4NS      0.166500
     17 H3          2.5500    2.1770    0.4370 ha        1 4NS      0.146000
     18 H2          0.0700    2.4960    0.5290 ha        1 4NS      0.166500
@<TRIPOS>BOND
     1    1    2 1   
     2    2    3 1   
     3    2    4 1   
     4    4    5 ar  
     5    4    7 ar  
     6    5    6 ar  
     7    5   15 1   
     8    6    9 ar  
     9    6   16 1   
    10    7    8 ar  
    11    7   17 1   
    12    8    9 ar  
    13    8   18 1   
    14    9   10 1   
    15   10   11 1   
    16   11   12 1   
    17   11   13 1   
    18   11   14 1   
@<TRIPOS>SUBSTRUCTURE
     1 4NS         1 TEMP              0 ****  ****    0 ROOT
