@<TRIPOS>MOLECULE
4NS
   18    18     1     0     0
SMALL
bcc


@<TRIPOS>ATOM
      1 O6         -0.1160    0.2110   -0.0520 o         1 4NS     -0.258500
      2 N           1.0810    0.3460    0.0290 no        1 4NS      0.327200
      3 O5          1.5880    0.6930    1.0690 o         1 4NS     -0.258500
      4 C4          1.9250    0.0890   -1.1410 ca        1 4NS     -0.287200
      5 C5          1.3390   -0.3140   -2.3610 ca        1 4NS     -0.024500
      6 C6          2.1320   -0.5560   -3.4640 ca        1 4NS     -0.254500
      7 C3          3.3250    0.2450   -1.0480 ca        1 4NS     -0.024500
      8 C2          4.1200    0.0030   -2.1480 ca        1 4NS     -0.254500
      9 C1          3.5430   -0.4050   -3.3840 ca        1 4NS      0.351100
     10 O1          4.3480   -0.6080   -4.4060 os        1 4NS     -0.493800
     11 S           4.1740   -1.4010   -6.0090 s6        1 4NS      1.725300
     12 O2          5.1470   -0.7060   -6.6930 o         1 4NS     -0.724533
     13 O3          4.4470   -2.7060   -5.6590 o         1 4NS     -0.724533
     14 O4          2.8570   -1.1050   -6.3080 o         1 4NS     -0.724533
     15 H5          0.2450   -0.4320   -2.4290 ha        1 4NS      0.146000
     16 H6          1.6830   -0.8580   -4.4260 ha        1 4NS      0.166500
     17 H3          3.7760    0.5600   -0.0920 ha        1 4NS      0.146000
     18 H2          5.2110    0.1200   -2.0950 ha        1 4NS      0.166500
@<TRIPOS>BOND
     1    1    2 1   
     2    2    3 1   
     3    2    4 1   
     4    4    5 ar  
     5    4    7 ar  
     6    5    6 ar  
     7    5   15 1   
     8    6    9 ar  
     9    6   16 1   
    10    7    8 ar  
    11    7   17 1   
    12    8    9 ar  
    13    8   18 1   
    14    9   10 1   
    15   10   11 1   
    16   11   12 1   
    17   11   13 1   
    18   11   14 1   
@<TRIPOS>SUBSTRUCTURE
     1 4NS         1 TEMP              0 ****  ****    0 ROOT
