@<TRIPOS>MOLECULE
4NS
   18    13     1     0     0
SMALL
bcc


@<TRIPOS>ATOM
      1 O6         -1.3430   -0.7220    3.7050 o         1 4NS     -0.354200
      2 N          -1.3590    0.2500    2.9640 n2        1 4NS      0.473400
      3 O5         -2.0310    1.3800    3.3340 o         1 4NS     -0.354200
      4 C4         -0.6700    0.2090    1.7240 c1        1 4NS     -0.242000
      5 C5         -0.6960    1.3080    0.8800 c2        1 4NS     -0.029000
      6 C6          0.0080    1.2820   -0.3140 c1        1 4NS     -0.242000
      7 C3          0.0610   -0.9160    1.3750 c1        1 4NS     -0.020000
      8 C2          0.7650   -0.9420    0.1820 c1        1 4NS     -0.267000
      9 C1          0.7390    0.1570   -0.6630 c1        1 4NS      0.306000
     10 O1          1.4930    0.1490   -1.8490 o         1 4NS     -0.918333
     11 S           0.8580   -0.5390   -3.0300 s4        1 4NS      2.903000
     12 O2          1.6150   -1.7900   -3.4070 o         1 4NS     -0.918333
     13 O3          1.0060    0.2830   -4.2880 o         1 4NS     -0.918333
     14 O4         -0.5920   -0.8420   -2.7410 os        1 4NS     -1.045000
     15 H5         -1.2000    2.1050    1.1320 ha        1 4NS      0.144000
     16 H6         -0.0160    2.0530   -0.9120 ha        1 4NS      0.147000
     17 H3          0.0900   -1.6850    1.9760 ha        1 4NS      0.148000
     18 H2          1.2730   -1.7370   -0.0680 ha        1 4NS      0.186000
@<TRIPOS>BOND
     1    1    2 2   
     2    2    3 2   
     3    4    5 1   
     4    4    7 1   
     5    5    6 1   
     6    5   15 1   
     7    6   16 1   
     8    7   17 1   
     9    8    9 1   
    10    8   18 1   
    11   10   11 1   
    12   11   12 1   
    13   11   13 1   
@<TRIPOS>SUBSTRUCTURE
     1 4NS         1 TEMP              0 ****  ****    0 ROOT
