@<TRIPOS>MOLECULE
4NS
   18    18     1     0     0
SMALL
bcc


@<TRIPOS>ATOM
      1 O6         -0.1630    0.3190   -0.1280 o         1 4NS     -0.258500
      2 N           1.0370    0.3870   -0.0100 no        1 4NS      0.327200
      3 O5          1.5300    0.6870    1.0520 o         1 4NS     -0.258500
      4 C4          1.9010    0.1060   -1.1590 ca        1 4NS     -0.287200
      5 C5          1.3320   -0.2420   -2.4040 ca        1 4NS     -0.024500
      6 C6          2.1440   -0.5060   -3.4870 ca        1 4NS     -0.254500
      7 C3          3.3040    0.1850   -1.0220 ca        1 4NS     -0.024500
      8 C2          4.1180   -0.0800   -2.1030 ca        1 4NS     -0.254500
      9 C1          3.5580   -0.4340   -3.3630 ca        1 4NS      0.351100
     10 O1          4.3810   -0.6610   -4.3650 os        1 4NS     -0.493800
     11 S           4.2130   -1.4140   -5.9880 s6        1 4NS      1.725300
     12 O2          5.2450   -0.7620   -6.6280 o         1 4NS     -0.724533
     13 O3          4.4020   -2.7390   -5.6550 o         1 4NS     -0.724533
     14 O4          2.9240   -1.0390   -6.3200 o         1 4NS     -0.724533
     15 H5          0.2360   -0.2990   -2.5060 ha        1 4NS      0.146000
     16 H6          1.7080   -0.7650   -4.4680 ha        1 4NS      0.166500
     17 H3          3.7420    0.4570   -0.0480 ha        1 4NS      0.146000
     18 H2          5.2110   -0.0240   -2.0150 ha        1 4NS      0.166500
@<TRIPOS>BOND
     1    1    2 1   
     2    2    3 1   
     3    2    4 1   
     4    4    5 ar  
     5    4    7 ar  
     6    5    6 ar  
     7    5   15 1   
     8    6    9 ar  
     9    6   16 1   
    10    7    8 ar  
    11    7   17 1   
    12    8    9 ar  
    13    8   18 1   
    14    9   10 1   
    15   10   11 1   
    16   11   12 1   
    17   11   13 1   
    18   11   14 1   
@<TRIPOS>SUBSTRUCTURE
     1 4NS         1 TEMP              0 ****  ****    0 ROOT
