@<TRIPOS>MOLECULE
4NY
   46    49     1     0     0
SMALL
bcc


@<TRIPOS>ATOM
      1 C24         0.0000    0.0000    0.0000 c         1 4NY      0.969200
      2 C23        -3.6750   -1.0720   -5.3150 cg        1 4NY      0.224500
      3 C22        -2.7110   -0.9600  -10.9280 ca        1 4NY     -0.079000
      4 C14        -3.1700    4.4180   -7.5500 ca        1 4NY     -0.030000
      5 C15        -3.3900    3.0650   -7.7940 ca        1 4NY     -0.004800
      6 C16        -4.5900    0.4510  -10.0660 c3        1 4NY     -0.006400
      7 C17        -3.5050    0.1630  -11.0710 ca        1 4NY     -0.122300
      8 C18        -3.3020    1.0220  -12.1340 ca        1 4NY     -0.079000
      9 C19        -2.3070    0.7600  -13.0560 ca        1 4NY     -0.115500
     10 C20        -1.5110   -0.3650  -12.9140 ca        1 4NY      0.157900
     11 C21        -1.7110   -1.2220  -11.8450 ca        1 4NY     -0.115500
     12 O           1.2150    0.0000    0.0000 o         1 4NY     -0.876800
     13 O1         -0.6730    0.0000    1.1670 o         1 4NY     -0.876800
     14 C1         -0.7370    0.0080   -1.2770 ca        1 4NY     -0.107600
     15 C2         -2.1360    0.0140   -1.2760 ca        1 4NY     -0.113000
     16 C3         -2.8180    0.0260   -2.4590 ca        1 4NY     -0.096500
     17 C4         -2.1190    0.0320   -3.6690 ca        1 4NY     -0.113800
     18 C5         -0.7220    0.0260   -3.6710 ca        1 4NY     -0.096500
     19 C          -0.0380    0.0140   -2.4880 ca        1 4NY     -0.113000
     20 C6         -2.8590    0.0450   -4.9500 ce        1 4NY      0.138100
     21 N1         -4.3060   -1.9700   -5.6070 n1        1 4NY     -0.446800
     22 C7         -2.7620    1.1330   -5.7900 cf        1 4NY     -0.059000
     23 C8         -3.1610    1.8350   -7.0110 cd        1 4NY     -0.070200
     24 C13        -3.5060    5.3480   -8.5110 ca        1 4NY     -0.161000
     25 C12        -4.0610    4.9400   -9.7160 ca        1 4NY     -0.010600
     26 Cl         -4.4860    6.1240  -10.9120 cl        1 4NY     -0.052400
     27 C11        -4.2840    3.6020   -9.9700 ca        1 4NY     -0.111000
     28 C10        -3.9460    2.6490   -9.0140 ca        1 4NY     -0.217200
     29 N          -4.0460    1.2740   -8.9820 na        1 4NY      0.419600
     30 C9         -3.5870    0.7890   -7.8000 cc        1 4NY     -0.268100
     31 F          -0.7100   -0.7570  -14.1410 f         1 4NY     -0.189900
     32 H2         -2.9750    5.0660   -6.7040 ha        1 4NY      0.121000
     33 H3         -5.1520   -0.4590   -9.8970 h1        1 4NY      0.034200
     34 H4         -5.4420    0.9040  -10.5590 h1        1 4NY      0.034200
     35 H5         -3.9450    1.8660  -12.3560 ha        1 4NY      0.114500
     36 H6         -2.4670    1.5160  -13.8150 ha        1 4NY      0.126000
     37 H7         -1.4580   -2.2760  -11.8560 ha        1 4NY      0.126000
     38 H9         -2.6280    0.2250   -0.3340 ha        1 4NY      0.152000
     39 H10        -3.8790   -0.0040   -2.2440 ha        1 4NY      0.093500
     40 H11        -0.3700    0.1520   -4.6870 ha        1 4NY      0.093500
     41 H12         0.9360    0.3080   -2.1170 ha        1 4NY      0.152000
     42 H13        -2.1700    1.9180   -5.3350 ha        1 4NY      0.075000
     43 H14        -3.5600    6.4130   -8.3190 ha        1 4NY      0.115000
     44 H15        -4.7040    3.1570  -10.8630 ha        1 4NY      0.110000
     45 H16        -3.7160   -0.2820   -7.7060 h4        1 4NY      0.156000
     46 H1         -3.1970   -1.8440  -10.5340 ha        1 4NY      0.114500
@<TRIPOS>BOND
     1    1   12 1   
     2    1   13 1   
     3    1   14 1   
     4    2   20 1   
     5    2   21 3   
     6    3    7 ar  
     7    3   11 ar  
     8    3   46 1   
     9    4    5 ar  
    10    4   24 ar  
    11    4   32 1   
    12    5   23 1   
    13    5   28 ar  
    14    6    7 1   
    15    6   29 1   
    16    6   33 1   
    17    6   34 1   
    18    7    8 ar  
    19    8    9 ar  
    20    8   35 1   
    21    9   10 ar  
    22    9   36 1   
    23   10   11 ar  
    24   10   31 1   
    25   11   37 1   
    26   14   15 ar  
    27   14   19 ar  
    28   15   16 ar  
    29   15   38 1   
    30   16   17 ar  
    31   16   39 1   
    32   17   18 ar  
    33   17   20 1   
    34   18   19 ar  
    35   18   40 1   
    36   19   41 1   
    37   20   22 2   
    38   22   23 1   
    39   22   42 1   
    40   23   30 2   
    41   24   25 ar  
    42   24   43 1   
    43   25   26 1   
    44   25   27 ar  
    45   27   28 ar  
    46   27   44 1   
    47   28   29 1   
    48   29   30 1   
    49   30   45 1   
@<TRIPOS>SUBSTRUCTURE
     1 4NY         1 TEMP              0 ****  ****    0 ROOT
