@<TRIPOS>MOLECULE
4NZ
   19    19     1     0     0
SMALL
bcc


@<TRIPOS>ATOM
      1 S          -2.5360   -0.0460    0.1050 sy        1 4NZ      1.522200
      2 C1          1.9640    0.0290   -0.0100 ca        1 4NZ     -0.119200
      3 N1         -2.9400   -0.0240   -1.4400 n3        1 4NZ     -1.028700
      4 O1         -2.9610    1.1450    0.7220 o         1 4NZ     -0.647800
      5 C2          1.2540    1.2380    0.0350 ca        1 4NZ     -0.096000
      6 O2         -2.9220   -1.2740    0.6770 o         1 4NZ     -0.647800
      7 C3         -0.1380    1.1980    0.0640 ca        1 4NZ     -0.033000
      8 C4         -0.8270   -0.0180    0.0480 ca        1 4NZ     -0.331500
      9 C5         -0.0990   -1.2100    0.0190 ca        1 4NZ     -0.033000
     10 C6          1.2940   -1.2040   -0.0110 ca        1 4NZ     -0.096000
     11 O12         4.0170    1.1160   -0.0500 o         1 4NZ     -0.197000
     12 O13         4.0510   -0.9880   -0.0890 o         1 4NZ     -0.197000
     13 HN1        -3.0830   -0.8390   -1.9820 hn        1 4NZ      0.452800
     14 HN1A       -3.1100    0.8060   -1.9510 hn        1 4NZ      0.452800
     15 H2          1.7900    2.2030    0.0490 ha        1 4NZ      0.179000
     16 H3         -0.7060    2.1460    0.1230 ha        1 4NZ      0.168000
     17 H5         -0.6350   -2.1770    0.0410 ha        1 4NZ      0.168000
     18 H6          1.8610   -2.1510   -0.0330 ha        1 4NZ      0.179000
     19 N7          3.4560    0.0540   -0.0510 no        1 4NZ      0.305200
@<TRIPOS>BOND
     1    1    3 1   
     2    1    4 2   
     3    1    6 2   
     4    1    8 1   
     5    2    5 ar  
     6    2   10 ar  
     7    2   19 1   
     8    3   13 1   
     9    3   14 1   
    10    5    7 ar  
    11    5   15 1   
    12    7    8 ar  
    13    7   16 1   
    14    8    9 ar  
    15    9   10 ar  
    16    9   17 1   
    17   10   18 1   
    18   11   19 1   
    19   12   19 1   
@<TRIPOS>SUBSTRUCTURE
     1 4NZ         1 TEMP              0 ****  ****    0 ROOT
