@<TRIPOS>MOLECULE
4NZ
   19    15     1     0     0
SMALL
bcc


@<TRIPOS>ATOM
      1 S           0.7610    1.9410    1.4050 ss        1 4NZ      2.861000
      2 C1         -0.9480   -1.4650   -1.0740 c1        1 4NZ     -0.074000
      3 N1          2.4040    1.9120    1.4110 n2        1 4NZ     -0.955000
      4 O1          0.2340    1.9090    2.7410 o         1 4NZ     -0.927000
      5 C2         -0.7340   -1.6360    0.2850 c1        1 4NZ     -0.096000
      6 O2          0.2640    3.2050    0.9380 o         1 4NZ     -0.927000
      7 C3         -0.1960   -0.6040    1.0370 c1        1 4NZ     -0.033000
      8 C4          0.1280    0.6000    0.4310 c1        1 4NZ     -0.776000
      9 C5         -0.0860    0.7710   -0.9270 c2        1 4NZ     -0.033000
     10 C6         -0.6240   -0.2610   -1.6800 c1        1 4NZ     -0.096000
     11 N7         -1.5940   -2.5060   -1.7900 no        1 4NZ      0.560000
     12 O12        -2.6270   -2.9960   -1.3580 o         1 4NZ     -0.347000
     13 O13        -1.0640   -2.9560   -2.9660 o         1 4NZ     -0.347000
     14 HN1         2.8480    1.2780    1.8980 hn        1 4NZ      0.248000
     15 HN1A        2.8730    2.5350    0.9350 hn        1 4NZ      0.248000
     16 H2         -0.9620   -2.4840    0.7120 ha        1 4NZ      0.179000
     17 H3         -0.0460   -0.7240    1.9940 ha        1 4NZ      0.168000
     18 H5          0.1420    1.6190   -1.3550 ha        1 4NZ      0.168000
     19 H6         -0.7740   -0.1410   -2.6370 ha        1 4NZ      0.179000
@<TRIPOS>BOND
     1    1    4 1   
     2    1    6 1   
     3    2    5 1   
     4    2   11 1   
     5    3   14 1   
     6    3   15 1   
     7    5   16 1   
     8    7    8 1   
     9    7   17 1   
    10    8    9 1   
    11    9   10 1   
    12    9   18 1   
    13   10   19 1   
    14   11   12 1   
    15   11   13 1   
@<TRIPOS>SUBSTRUCTURE
     1 4NZ         1 TEMP              0 ****  ****    0 ROOT
