@<TRIPOS>MOLECULE
4NZ
   20    20     1     0     0
SMALL
bcc


@<TRIPOS>ATOM
      1 S           0.2200   -0.3400   -0.3250 s6        1 4NZ      1.348900
      2 C1         -1.1630   -3.6920   -1.5720 ce        1 4NZ     -0.190200
      3 N1          1.2960   -1.5070   -1.2770 nz        1 4NZ     -0.810500
      4 O1          0.7320   -0.4440    0.9510 o         1 4NZ     -0.531300
      5 C2         -1.4730   -3.5970   -0.1270 ce        1 4NZ     -0.051000
      6 O2          0.3110    0.8140   -1.0730 o         1 4NZ     -0.531300
      7 C3         -1.4270   -2.3410    0.3750 c2        1 4NZ     -0.172200
      8 C4         -1.3090   -1.0900   -0.4740 c3        1 4NZ     -0.254500
      9 C5         -1.8500   -1.3630   -1.8650 c2        1 4NZ     -0.122300
     10 C6         -1.5530   -2.5980   -2.2210 c1        1 4NZ      0.052200
     11 O12        -0.4940   -5.8010   -2.3030 o         1 4NZ     -0.164500
     12 O13         0.9530   -4.2590   -2.1780 o         1 4NZ     -0.164500
     13 HN1         1.8280   -2.1280   -0.6580 hn        1 4NZ      0.480467
     14 HN1A        1.9820   -0.9860   -1.8320 hn        1 4NZ      0.480467
     15 H2         -1.5130   -2.1570    1.4610 ha        1 4NZ      0.199000
     16 H3         -1.6320   -4.5040    0.4750 ha        1 4NZ      0.210000
     17 H5         -2.0920   -0.3740   -0.0440 h1        1 4NZ      0.206700
     18 H6         -2.4990   -0.6340   -2.3690 ha        1 4NZ      0.220000
     19 H13         0.8030   -2.1190   -1.9370 hn        1 4NZ      0.480467
     20 N7         -0.1750   -4.6860   -2.0670 no        1 4NZ      0.313100
@<TRIPOS>BOND
     1    1    3 1   
     2    1    4 2   
     3    1    6 2   
     4    1    8 1   
     5    2    5 1   
     6    2   10 2   
     7    2   20 1   
     8    3   13 1   
     9    3   14 1   
    10    3   19 1   
    11    5    7 2   
    12    5   16 1   
    13    7    8 1   
    14    7   15 1   
    15    8    9 1   
    16    8   17 1   
    17    9   10 2   
    18    9   18 1   
    19   11   20 1   
    20   12   20 1   
@<TRIPOS>SUBSTRUCTURE
     1 4NZ         1 TEMP              0 ****  ****    0 ROOT
