@<TRIPOS>MOLECULE
4NZ
   19    19     1     0     0
SMALL
bcc


@<TRIPOS>ATOM
      1 S           0.1330   -0.2900   -0.0310 s6        1 4NZ      1.469900
      2 C1         -1.6580   -4.0000   -1.8700 ce        1 4NZ     -0.189200
      3 N1          1.5200    0.1930   -0.6450 n3        1 4NZ     -1.032700
      4 O1          0.2610   -0.5000    1.3520 o         1 4NZ     -0.636800
      5 C2         -1.7660   -3.7230   -0.4180 ce        1 4NZ     -0.088000
      6 O2         -0.9050    0.5290   -0.4970 o         1 4NZ     -0.636800
      7 C3         -0.9460   -2.7740    0.0840 c2        1 4NZ     -0.139200
      8 C4         -0.0570   -1.8930   -0.7630 c3        1 4NZ     -0.211500
      9 C5         -0.6600   -1.7820   -2.1350 c2        1 4NZ     -0.141300
     10 C6         -1.1850   -2.9340   -2.5180 c1        1 4NZ      0.091200
     11 O12        -2.1100   -6.2410   -1.6220 o         1 4NZ     -0.199500
     12 O13        -1.7820   -5.5440   -3.5810 o         1 4NZ     -0.199500
     13 HN1         2.3980    0.0310   -0.2170 hn        1 4NZ      0.458800
     14 HN1A        1.5970    0.7400   -1.4670 hn        1 4NZ      0.458800
     15 H2         -0.8560   -2.6180    1.1740 ha        1 4NZ      0.179000
     16 H3         -2.4230   -4.3570    0.1930 ha        1 4NZ      0.180000
     17 H5          0.9410   -2.4210   -0.7970 h1        1 4NZ      0.138700
     18 H6         -0.7650   -0.8110   -2.6330 ha        1 4NZ      0.185000
     19 N7         -1.8570   -5.3560   -2.3970 no        1 4NZ      0.313100
@<TRIPOS>BOND
     1    1    3 1   
     2    1    4 2   
     3    1    6 2   
     4    1    8 1   
     5    2    5 1   
     6    2   10 2   
     7    2   19 1   
     8    3   13 1   
     9    3   14 1   
    10    5    7 2   
    11    5   16 1   
    12    7    8 1   
    13    7   15 1   
    14    8    9 1   
    15    8   17 1   
    16    9   10 2   
    17    9   18 1   
    18   11   19 1   
    19   12   19 1   
@<TRIPOS>SUBSTRUCTURE
     1 4NZ         1 TEMP              0 ****  ****    0 ROOT
