@<TRIPOS>MOLECULE
4O0
   57    62     1     0     0
SMALL
bcc


@<TRIPOS>ATOM
      1 C1          0.1750    0.0870    0.2720 c3        1 4O0     -0.018700
      2 C2          2.6260   -0.0770    0.8280 ca        1 4O0     -0.057200
      3 C3          3.2410   -0.5010   -0.3730 ca        1 4O0      0.110900
      4 C4          4.6450   -0.5790   -0.3960 ca        1 4O0     -0.009600
      5 N1         -1.1880    1.5450   -1.2730 n         1 4O0     -0.377000
      6 C5          5.4130   -0.2570    0.7360 ca        1 4O0     -0.140000
      7 C6          4.8140    0.1450    1.9210 ca        1 4O0     -0.084000
      8 C7          3.4260    0.2380    1.9850 ca        1 4O0     -0.036800
      9 C8          2.5090    0.6020    3.0550 cc        1 4O0     -0.069600
     10 C9          1.2160    0.5000    2.5280 cd        1 4O0      0.001700
     11 C10        -0.0680    0.7640    3.2050 c3        1 4O0     -0.063900
     12 O1         -0.6730    3.8960    8.7150 o         1 4O0     -0.814800
     13 O2         -1.3640    2.0160    7.7160 o         1 4O0     -0.814800
     14 C11         2.1840    2.2070    5.2390 ca        1 4O0     -0.143100
     15 C12         2.5110    3.5120    4.8490 ca        1 4O0     -0.077000
     16 C13         1.8930    4.6110    5.4280 ca        1 4O0     -0.189000
     17 C14         0.9150    4.4200    6.4080 ca        1 4O0     -0.058000
     18 C15         0.5420    3.1400    6.8110 ca        1 4O0     -0.171600
     19 C16         1.1920    2.0250    6.2350 ca        1 4O0      0.201900
     20 C17        -0.5830    2.9960    7.8350 c         1 4O0      0.916200
     21 C18        -1.3910    2.8160   -1.9910 c3        1 4O0      0.119000
     22 C19        -2.4020    2.5350   -3.1050 cx        1 4O0     -0.081700
     23 C20        -2.7460    1.1070   -2.9570 ca        1 4O0     -0.093300
     24 C21        -1.9980    0.5510   -1.8590 ca        1 4O0      0.078600
     25 C22        -2.1890   -0.7870   -1.5140 ca        1 4O0     -0.172000
     26 F1          2.4920   -0.8200   -1.4560 f         1 4O0     -0.141900
     27 Cl          5.4620   -1.0710   -1.8080 cl        1 4O0     -0.099400
     28 S           3.0960    0.9210    4.5880 ss        1 4O0     -0.107500
     29 F           0.8700    0.7760    6.6360 f         1 4O0     -0.115900
     30 N           1.2740    0.0530    1.1810 na        1 4O0     -0.064400
     31 C          -0.0850    1.4290   -0.4260 c         1 4O0      0.639100
     32 O           0.6190    2.4360   -0.2450 o         1 4O0     -0.561100
     33 C23        -3.0900   -1.5560   -2.2630 ca        1 4O0     -0.098000
     34 C24        -3.7980   -1.0160   -3.3290 ca        1 4O0     -0.162000
     35 C25        -3.6290    0.3310   -3.6790 ca        1 4O0     -0.088000
     36 C27        -2.2850    3.2210   -4.4390 cx        1 4O0     -0.114900
     37 C26        -3.4020    3.5850   -3.5100 cx        1 4O0     -0.114900
     38 H1          0.3630   -0.6820   -0.5350 h1        1 4O0      0.093700
     39 H2         -0.7560   -0.1810    0.8540 h1        1 4O0      0.093700
     40 H3          6.5090   -0.3270    0.6750 ha        1 4O0      0.142000
     41 H4          5.4200    0.3920    2.8070 ha        1 4O0      0.155000
     42 H5         -0.5490    1.6860    2.7900 hc        1 4O0      0.070700
     43 H6         -0.7730   -0.0960    3.0860 hc        1 4O0      0.070700
     44 H7          0.1060    0.9200    4.3020 hc        1 4O0      0.070700
     45 H9          3.2750    3.6570    4.0690 ha        1 4O0      0.126000
     46 H10         2.1700    5.6270    5.1160 ha        1 4O0      0.118000
     47 H11         0.4190    5.2780    6.8910 ha        1 4O0      0.157000
     48 H12        -1.7860    3.5790   -1.2660 h1        1 4O0      0.070700
     49 H13        -0.4130    3.1830   -2.4070 h1        1 4O0      0.070700
     50 H14        -1.6680   -1.2610   -0.6720 ha        1 4O0      0.140000
     51 H15        -3.2350   -2.6120   -1.9890 ha        1 4O0      0.132000
     52 H16        -4.4980   -1.6420   -3.9010 ha        1 4O0      0.130000
     53 H17        -4.1940    0.7640   -4.5170 ha        1 4O0      0.132000
     54 H18        -1.4560    3.9340   -4.5940 hc        1 4O0      0.075450
     55 H19        -2.5120    2.6420   -5.3520 hc        1 4O0      0.075450
     56 H20        -4.4310    3.2670   -3.7540 hc        1 4O0      0.075450
     57 H21        -3.3800    4.5610   -2.9920 hc        1 4O0      0.075450
@<TRIPOS>BOND
     1    1   30 1   
     2    1   31 1   
     3    1   38 1   
     4    1   39 1   
     5    2    3 ar  
     6    2    8 ar  
     7    2   30 1   
     8    3    4 ar  
     9    3   26 1   
    10    4    6 ar  
    11    4   27 1   
    12    5   21 1   
    13    5   24 1   
    14    5   31 1   
    15    6    7 ar  
    16    6   40 1   
    17    7    8 ar  
    18    7   41 1   
    19    8    9 1   
    20    9   10 2   
    21    9   28 1   
    22   10   11 1   
    23   10   30 1   
    24   11   42 1   
    25   11   43 1   
    26   11   44 1   
    27   12   20 1   
    28   13   20 1   
    29   14   15 ar  
    30   14   19 ar  
    31   14   28 1   
    32   15   16 ar  
    33   15   45 1   
    34   16   17 ar  
    35   16   46 1   
    36   17   18 ar  
    37   17   47 1   
    38   18   19 ar  
    39   18   20 1   
    40   19   29 1   
    41   21   22 1   
    42   21   48 1   
    43   21   49 1   
    44   22   23 1   
    45   22   36 1   
    46   22   37 1   
    47   23   24 ar  
    48   23   35 ar  
    49   24   25 ar  
    50   25   33 ar  
    51   25   50 1   
    52   31   32 2   
    53   33   34 ar  
    54   33   51 1   
    55   34   35 ar  
    56   34   52 1   
    57   35   53 1   
    58   36   37 1   
    59   36   54 1   
    60   36   55 1   
    61   37   56 1   
    62   37   57 1   
@<TRIPOS>SUBSTRUCTURE
     1 4O0         1 TEMP              0 ****  ****    0 ROOT
