@<TRIPOS>MOLECULE
4O0
   57    62     1     0     0
SMALL
bcc


@<TRIPOS>ATOM
      1 C1          0.1930    0.0940    0.2460 c3        1 4O0     -0.018700
      2 C2          2.6430   -0.0590    0.8060 ca        1 4O0     -0.057200
      3 C3          3.2650   -0.4600   -0.4000 ca        1 4O0      0.110900
      4 C4          4.6690   -0.5260   -0.4200 ca        1 4O0     -0.009600
      5 N1         -1.1790    1.5650   -1.2770 n         1 4O0     -0.378000
      6 C5          5.4320   -0.2150    0.7180 ca        1 4O0     -0.140000
      7 C6          4.8270    0.1630    1.9080 ca        1 4O0     -0.084000
      8 C7          3.4380    0.2440    1.9700 ca        1 4O0     -0.036800
      9 C8          2.5160    0.5840    3.0430 cc        1 4O0     -0.070600
     10 C9          1.2250    0.4790    2.5120 cd        1 4O0      0.001700
     11 C10        -0.0620    0.7230    3.1900 c3        1 4O0     -0.063900
     12 O1         -0.7050    3.7730    8.7410 o         1 4O0     -0.814800
     13 O2         -1.3810    1.9030    7.7130 o         1 4O0     -0.814800
     14 C11         2.1730    2.1540    5.2490 ca        1 4O0     -0.143100
     15 C12         2.4920    3.4660    4.8780 ca        1 4O0     -0.077000
     16 C13         1.8640    4.5530    5.4710 ca        1 4O0     -0.189000
     17 C14         0.8860    4.3410    6.4450 ca        1 4O0     -0.058000
     18 C15         0.5210    3.0540    6.8300 ca        1 4O0     -0.171600
     19 C16         1.1800    1.9510    6.2390 ca        1 4O0      0.201900
     20 C17        -0.6070    2.8870    7.8480 c         1 4O0      0.916200
     21 C18        -1.3920    2.8470   -1.9730 c3        1 4O0      0.119000
     22 C19        -2.4070    2.5790   -3.0870 cx        1 4O0     -0.081700
     23 C20        -2.7410    1.1450   -2.9620 ca        1 4O0     -0.093300
     24 C21        -1.9860    0.5770   -1.8760 ca        1 4O0      0.078600
     25 C22        -2.1660   -0.7680   -1.5540 ca        1 4O0     -0.172000
     26 F1          2.5210   -0.7680   -1.4890 f         1 4O0     -0.141900
     27 CL          5.4930   -0.9890   -1.8380 cl        1 4O0     -0.099400
     28 S           3.0960    0.8840    4.5820 ss        1 4O0     -0.107500
     29 F           0.8660    0.6950    6.6220 f         1 4O0     -0.115900
     30 N           1.2890    0.0540    1.1570 na        1 4O0     -0.064400
     31 C          -0.0760    1.4440   -0.4310 c         1 4O0      0.639100
     32 O           0.6220    2.4530   -0.2350 o         1 4O0     -0.561100
     33 C23        -3.0650   -1.5300   -2.3110 ca        1 4O0     -0.098000
     34 C24        -3.7810   -0.9780   -3.3650 ca        1 4O0     -0.162000
     35 C25        -3.6220    0.3760   -3.6930 ca        1 4O0     -0.088000
     36 C27        -2.3000    3.2870   -4.4100 cx        1 4O0     -0.114900
     37 C26        -3.4150    3.6280   -3.4690 cx        1 4O0     -0.114900
     38 H1          0.3890   -0.6620   -0.5720 h1        1 4O0      0.093700
     39 H2         -0.7380   -0.1910    0.8220 h1        1 4O0      0.093700
     40 H3          6.5290   -0.2760    0.6580 ha        1 4O0      0.142000
     41 H4          5.4290    0.4020    2.7990 ha        1 4O0      0.155000
     42 H5         -0.7610   -0.1420    3.0550 hc        1 4O0      0.070700
     43 H6          0.1080    0.8620    4.2900 hc        1 4O0      0.070700
     44 H7         -0.5510    1.6460    2.7880 hc        1 4O0      0.070700
     45 H9          3.2570    3.6280    4.1030 ha        1 4O0      0.126000
     46 H10         2.1350    5.5750    5.1740 ha        1 4O0      0.118000
     47 H11         0.3820    5.1890    6.9390 ha        1 4O0      0.157000
     48 H12        -0.4180    3.2250   -2.3880 h1        1 4O0      0.070700
     49 H13        -1.7880    3.5960   -1.2350 h1        1 4O0      0.070700
     50 H14        -1.6380   -1.2530   -0.7220 ha        1 4O0      0.140000
     51 H15        -3.2020   -2.5920   -2.0540 ha        1 4O0      0.132000
     52 H16        -4.4800   -1.5980   -3.9440 ha        1 4O0      0.130000
     53 H17        -4.1940    0.8200   -4.5210 ha        1 4O0      0.132000
     54 H18        -1.4760    4.0080   -4.5570 hc        1 4O0      0.075450
     55 H19        -2.5280    2.7220   -5.3320 hc        1 4O0      0.075450
     56 H20        -4.4440    3.3080   -3.7140 hc        1 4O0      0.075450
     57 H21        -3.3960    4.5960   -2.9360 hc        1 4O0      0.075450
@<TRIPOS>BOND
     1    1   30 1   
     2    1   31 1   
     3    1   38 1   
     4    1   39 1   
     5    2    3 ar  
     6    2    8 ar  
     7    2   30 1   
     8    3    4 ar  
     9    3   26 1   
    10    4    6 ar  
    11    4   27 1   
    12    5   21 1   
    13    5   24 1   
    14    5   31 1   
    15    6    7 ar  
    16    6   40 1   
    17    7    8 ar  
    18    7   41 1   
    19    8    9 1   
    20    9   10 2   
    21    9   28 1   
    22   10   11 1   
    23   10   30 1   
    24   11   42 1   
    25   11   43 1   
    26   11   44 1   
    27   12   20 1   
    28   13   20 1   
    29   14   15 ar  
    30   14   19 ar  
    31   14   28 1   
    32   15   16 ar  
    33   15   45 1   
    34   16   17 ar  
    35   16   46 1   
    36   17   18 ar  
    37   17   47 1   
    38   18   19 ar  
    39   18   20 1   
    40   19   29 1   
    41   21   22 1   
    42   21   48 1   
    43   21   49 1   
    44   22   23 1   
    45   22   36 1   
    46   22   37 1   
    47   23   24 ar  
    48   23   35 ar  
    49   24   25 ar  
    50   25   33 ar  
    51   25   50 1   
    52   31   32 2   
    53   33   34 ar  
    54   33   51 1   
    55   34   35 ar  
    56   34   52 1   
    57   35   53 1   
    58   36   37 1   
    59   36   54 1   
    60   36   55 1   
    61   37   56 1   
    62   37   57 1   
@<TRIPOS>SUBSTRUCTURE
     1 4O0         1 TEMP              0 ****  ****    0 ROOT
