@<TRIPOS>MOLECULE
4O1
   71    73     1     0     0
SMALL
bcc


@<TRIPOS>ATOM
      1 C01         0.3720    1.3190   -0.6730 c3        1 4O1     -0.108100
      2 C02         1.4330    0.3840   -0.1010 c3        1 4O1      0.019700
      3 N01         1.5020   -0.9010   -0.7990 n         1 4O1     -0.398800
      4 C03         2.7060   -1.7050   -0.5390 c3        1 4O1      0.040000
      5 C04         2.3020   -3.1920   -0.5840 c3        1 4O1     -0.099400
      6 C05         0.7770   -3.1790   -0.3330 c3        1 4O1      0.020500
      7 N02         0.0360   -4.2980   -0.9060 n3        1 4O1     -0.847200
      8 C06        -0.7580   -4.0310   -2.1030 c3        1 4O1      0.073800
      9 C07         0.0300   -3.4060   -3.2410 c         1 4O1      0.544100
     10 N03        -0.6000   -2.2050   -3.8950 n4        1 4O1     -0.761400
     11 O01         1.0940   -3.7750   -3.7080 o         1 4O1     -0.386100
     12 S           1.3590   -6.7400   -1.2260 s4        1 4O1      1.686300
     13 O02         0.3670   -6.8540   -2.1490 o         1 4O1     -0.431900
     14 O03         2.4750   -6.0110   -1.4600 o         1 4O1     -0.431900
     15 C08         1.2270   -7.5260    0.0740 ca        1 4O1     -0.674500
     16 C09         2.2600   -7.4270    1.0810 ca        1 4O1     -0.044000
     17 C10         2.2120   -8.1420    2.2370 ca        1 4O1     -0.104000
     18 C11         1.1270   -9.0340    2.5070 ca        1 4O1      0.092000
     19 C12         1.0640   -9.7910    3.6900 ca        1 4O1     -0.164000
     20 C13        -0.0040  -10.6530    3.9100 ca        1 4O1      0.121400
     21 CL         -0.0830  -11.5630    5.3170 cl        1 4O1      0.032600
     22 C14        -1.0440  -10.7770    2.9440 ca        1 4O1     -0.123000
     23 C15        -1.0020  -10.0460    1.7870 ca        1 4O1     -0.054000
     24 C16         0.0850   -9.1510    1.5300 ca        1 4O1     -0.111000
     25 C17         0.1530   -8.4060    0.3550 ca        1 4O1      0.127000
     26 C18         0.3730   -1.7430   -0.7540 c         1 4O1      0.695500
     27 O04        -0.7710   -1.4430   -1.1430 o         1 4O1     -0.670500
     28 C19         1.1140    0.1750    1.4100 c         1 4O1      0.626100
     29 O1          0.4250   -0.8330    1.7150 o         1 4O1     -0.669100
     30 N04         1.6000    1.0250    2.3660 n         1 4O1     -0.424800
     31 C20         2.4530    2.1640    2.1000 c3        1 4O1      0.093000
     32 C21         1.7710    3.5060    1.8510 c3        1 4O1     -0.103400
     33 C22         0.4640    3.7230    2.6120 c3        1 4O1      0.179800
     34 N1          0.5250    3.2930    3.9990 n3        1 4O1     -0.753600
     35 C23        -0.0920    4.2190    4.9230 c3        1 4O1      0.162100
     36 C24         0.1000    1.9190    4.1960 c3        1 4O1      0.158800
     37 C1          1.1480    0.8830    3.7410 c3        1 4O1      0.078000
     38 H1         -0.6420    0.8480   -0.6420 hc        1 4O1      0.067033
     39 H2          0.6180    1.5880   -1.7280 hc        1 4O1      0.067033
     40 H3          0.3460    2.2530   -0.0600 hc        1 4O1      0.067033
     41 H4          2.4510    0.8540   -0.2360 h1        1 4O1      0.097700
     42 H5          3.1570   -1.4570    0.4620 h1        1 4O1      0.083700
     43 H6          3.4570   -1.4670   -1.3400 h1        1 4O1      0.083700
     44 H7          2.8340   -3.7680    0.2090 hc        1 4O1      0.081200
     45 H8          2.5640   -3.6410   -1.5750 hc        1 4O1      0.081200
     46 H9          0.6110   -3.1770    0.7950 h1        1 4O1      0.140700
     47 H10        -1.6670   -3.3990   -1.8630 h1        1 4O1      0.124200
     48 H11        -1.1110   -5.0380   -2.4960 h1        1 4O1      0.124200
     49 H12        -0.0060   -1.8590   -4.6600 hn        1 4O1      0.485467
     50 H13        -0.7210   -1.4540   -3.1880 hn        1 4O1      0.485467
     51 H14         3.1130   -6.7520    0.8810 ha        1 4O1      0.169000
     52 H15         3.0170   -8.0530    2.9890 ha        1 4O1      0.184000
     53 H16         1.8720   -9.6960    4.4370 ha        1 4O1      0.186000
     54 H17        -1.8810  -11.4720    3.1420 ha        1 4O1      0.190000
     55 H18        -1.8030  -10.1420    1.0350 ha        1 4O1      0.165000
     56 H19        -0.6560   -8.5140   -0.3960 ha        1 4O1      0.166000
     57 H20         3.1240    1.9330    1.2250 h1        1 4O1      0.059700
     58 H21         3.1220    2.2810    3.0050 h1        1 4O1      0.059700
     59 H22         2.5060    4.3030    2.1460 hc        1 4O1      0.055700
     60 H23         1.5590    3.6390    0.7590 hc        1 4O1      0.055700
     61 H24        -0.3650    3.1930    2.0540 h1        1 4O1      0.038700
     62 H25         0.2310    4.8270    2.5670 h1        1 4O1      0.038700
     63 H27        -1.2040    4.3100    4.7820 h1        1 4O1      0.042367
     64 H28         0.1100    3.8760    5.9720 h1        1 4O1      0.042367
     65 H29         0.3720    5.2310    4.7860 h1        1 4O1      0.042367
     66 H30        -0.0580    1.7410    5.2980 h1        1 4O1      0.048200
     67 H31        -0.8760    1.6990    3.6720 h1        1 4O1      0.048200
     68 H32         0.6920   -0.1390    3.8770 h1        1 4O1      0.074200
     69 H33         2.0560    0.9600    4.4060 h1        1 4O1      0.074200
     70 H021       -0.6360   -4.5990   -0.2100 hn        1 4O1      0.398800
     71 H033       -1.5230   -2.4490   -4.2700 hn        1 4O1      0.485467
@<TRIPOS>BOND
     1    1    2 1   
     2    1   38 1   
     3    1   39 1   
     4    1   40 1   
     5    2    3 1   
     6    2   28 1   
     7    2   41 1   
     8    3    4 1   
     9    3   26 1   
    10    4    5 1   
    11    4   42 1   
    12    4   43 1   
    13    5    6 1   
    14    5   44 1   
    15    5   45 1   
    16    6    7 1   
    17    6   26 1   
    18    6   46 1   
    19    7    8 1   
    20    7   70 1   
    21    8    9 1   
    22    8   47 1   
    23    8   48 1   
    24    9   10 1   
    25    9   11 2   
    26   10   49 1   
    27   10   50 1   
    28   10   71 1   
    29   12   13 1   
    30   12   14 1   
    31   12   15 1   
    32   15   16 ar  
    33   15   25 ar  
    34   16   17 ar  
    35   16   51 1   
    36   17   18 ar  
    37   17   52 1   
    38   18   19 ar  
    39   18   24 ar  
    40   19   20 ar  
    41   19   53 1   
    42   20   21 1   
    43   20   22 ar  
    44   22   23 ar  
    45   22   54 1   
    46   23   24 ar  
    47   23   55 1   
    48   24   25 ar  
    49   25   56 1   
    50   26   27 2   
    51   28   29 2   
    52   28   30 1   
    53   30   31 1   
    54   30   37 1   
    55   31   32 1   
    56   31   57 1   
    57   31   58 1   
    58   32   33 1   
    59   32   59 1   
    60   32   60 1   
    61   33   34 1   
    62   33   61 1   
    63   33   62 1   
    64   34   35 1   
    65   34   36 1   
    66   35   63 1   
    67   35   64 1   
    68   35   65 1   
    69   36   37 1   
    70   36   66 1   
    71   36   67 1   
    72   37   68 1   
    73   37   69 1   
@<TRIPOS>SUBSTRUCTURE
     1 4O1         1 TEMP              0 ****  ****    0 ROOT
