@<TRIPOS>MOLECULE
4O1
   71    73     1     0     0
SMALL
bcc


@<TRIPOS>ATOM
      1 C01         0.4220    1.3230   -0.6780 c3        1 4O1     -0.108100
      2 C02         1.4670    0.3810   -0.0880 c3        1 4O1      0.019700
      3 N01         1.5400   -0.9050   -0.7860 n         1 4O1     -0.398800
      4 C03         2.7330   -1.7170   -0.5070 c3        1 4O1      0.040000
      5 C04         2.3200   -3.2000   -0.5580 c3        1 4O1     -0.099400
      6 C05         0.7920   -3.1770   -0.3310 c3        1 4O1      0.020500
      7 N02         0.0520   -4.2910   -0.9160 n7        1 4O1     -0.847200
      8 C06        -0.7210   -4.0190   -2.1250 c3        1 4O1      0.073800
      9 C07         0.0890   -3.4000   -3.2500 c         1 4O1      0.544100
     10 N03        -0.5230   -2.1940   -3.9140 nz        1 4O1     -0.761400
     11 O01         1.1570   -3.7750   -3.7010 o         1 4O1     -0.386100
     12 S           1.3650   -6.7430   -1.2160 s4        1 4O1      1.686300
     13 O02         0.3860   -6.8490   -2.1550 o         1 4O1     -0.431900
     14 O03         2.4890   -6.0210   -1.4320 o         1 4O1     -0.431900
     15 C08         1.2070   -7.5280    0.0810 ca        1 4O1     -0.674500
     16 C09         2.2250   -7.4370    1.1040 ca        1 4O1     -0.044000
     17 C10         2.1540   -8.1530    2.2580 ca        1 4O1     -0.104000
     18 C11         1.0590   -9.0370    2.5110 ca        1 4O1      0.092000
     19 C12         0.9730   -9.7950    3.6920 ca        1 4O1     -0.164000
     20 C13        -0.1040  -10.6510    3.8950 ca        1 4O1      0.121400
     21 Cl         -0.2110  -11.5610    5.2990 cl        1 4O1      0.032600
     22 C14        -1.1300  -10.7670    2.9130 ca        1 4O1     -0.123000
     23 C15        -1.0650  -10.0360    1.7570 ca        1 4O1     -0.054000
     24 C16         0.0310   -9.1470    1.5170 ca        1 4O1     -0.111000
     25 C17         0.1230   -8.4020    0.3440 ca        1 4O1      0.127000
     26 C18         0.4040   -1.7390   -0.7580 c         1 4O1      0.695500
     27 O04        -0.7320   -1.4310   -1.1650 o         1 4O1     -0.670500
     28 C19         1.1230    0.1740    1.4170 c         1 4O1      0.626100
     29 O1          0.4230   -0.8290    1.7110 o         1 4O1     -0.669100
     30 N04         1.6000    1.0220    2.3800 n         1 4O1     -0.424800
     31 C20         2.4640    2.1550    2.1270 c3        1 4O1      0.093000
     32 C21         1.7950    3.5010    1.8680 c3        1 4O1     -0.103400
     33 C22         0.4770    3.7270    2.6080 c3        1 4O1      0.179800
     34 N1          0.5130    3.2970    3.9960 n3        1 4O1     -0.753600
     35 C23        -0.1130    4.2270    4.9090 c3        1 4O1      0.162100
     36 C24         0.0770    1.9260    4.1860 c3        1 4O1      0.158800
     37 C1          1.1250    0.8830    3.7480 c3        1 4O1      0.078000
     38 H1         -0.5950    0.8590   -0.6620 hc        1 4O1      0.067033
     39 H2          0.6870    1.5900   -1.7290 hc        1 4O1      0.067033
     40 H3          0.3920    2.2570   -0.0650 hc        1 4O1      0.067033
     41 H4          2.4910    0.8440   -0.2080 h1        1 4O1      0.097700
     42 H5          3.1700   -1.4720    0.5010 h1        1 4O1      0.083700
     43 H6          3.4990   -1.4840   -1.2960 h1        1 4O1      0.083700
     44 H7          2.8360   -3.7800    0.2430 hc        1 4O1      0.081200
     45 H8          2.5950   -3.6520   -1.5450 hc        1 4O1      0.081200
     46 H9          0.6080   -3.1740    0.7940 h1        1 4O1      0.140700
     47 H10        -1.6300   -3.3810   -1.8990 h1        1 4O1      0.124200
     48 H11        -1.0750   -5.0240   -2.5240 h1        1 4O1      0.124200
     49 H12        -1.4420   -2.4320   -4.3030 hn        1 4O1      0.485467
     50 H13        -0.6490   -1.4420   -3.2100 hn        1 4O1      0.485467
     51 H14         3.0850   -6.7670    0.9170 ha        1 4O1      0.169000
     52 H15         2.9480   -8.0700    3.0230 ha        1 4O1      0.184000
     53 H16         1.7700   -9.7070    4.4520 ha        1 4O1      0.186000
     54 H17        -1.9740  -11.4560    3.0970 ha        1 4O1      0.190000
     55 H18        -1.8550  -10.1260    0.9920 ha        1 4O1      0.165000
     56 H19        -0.6750   -8.5030   -0.4190 ha        1 4O1      0.166000
     57 H20         3.1200    2.2680    3.0430 h1        1 4O1      0.059700
     58 H21         3.1470    1.9190    1.2630 h1        1 4O1      0.059700
     59 H22         1.6020    3.6360    0.7720 hc        1 4O1      0.055700
     60 H23         2.5300    4.2940    2.1740 hc        1 4O1      0.055700
     61 H24         0.2520    4.8320    2.5580 h1        1 4O1      0.038700
     62 H25        -0.3460    3.2020    2.0360 h1        1 4O1      0.038700
     63 H27         0.0700    3.8830    5.9610 h1        1 4O1      0.042367
     64 H28         0.3590    5.2360    4.7790 h1        1 4O1      0.042367
     65 H29        -1.2220    4.3250    4.7500 h1        1 4O1      0.042367
     66 H30        -0.1000    1.7480    5.2860 h1        1 4O1      0.048200
     67 H31        -0.8920    1.7110    3.6470 h1        1 4O1      0.048200
     68 H32         0.6610   -0.1360    3.8770 h1        1 4O1      0.074200
     69 H33         2.0230    0.9540    4.4280 h1        1 4O1      0.074200
     70 H021       -0.6330   -4.5880   -0.2300 hn        1 4O1      0.398800
     71 H033        0.0850   -1.8530   -4.6700 hn        1 4O1      0.485467
@<TRIPOS>BOND
     1    1    2 1   
     2    1   38 1   
     3    1   39 1   
     4    1   40 1   
     5    2    3 1   
     6    2   28 1   
     7    2   41 1   
     8    3    4 1   
     9    3   26 1   
    10    4    5 1   
    11    4   42 1   
    12    4   43 1   
    13    5    6 1   
    14    5   44 1   
    15    5   45 1   
    16    6    7 1   
    17    6   26 1   
    18    6   46 1   
    19    7    8 1   
    20    7   70 1   
    21    8    9 1   
    22    8   47 1   
    23    8   48 1   
    24    9   10 1   
    25    9   11 2   
    26   10   49 1   
    27   10   50 1   
    28   10   71 1   
    29   12   13 1   
    30   12   14 1   
    31   12   15 1   
    32   15   16 ar  
    33   15   25 ar  
    34   16   17 ar  
    35   16   51 1   
    36   17   18 ar  
    37   17   52 1   
    38   18   19 ar  
    39   18   24 ar  
    40   19   20 ar  
    41   19   53 1   
    42   20   21 1   
    43   20   22 ar  
    44   22   23 ar  
    45   22   54 1   
    46   23   24 ar  
    47   23   55 1   
    48   24   25 ar  
    49   25   56 1   
    50   26   27 2   
    51   28   29 2   
    52   28   30 1   
    53   30   31 1   
    54   30   37 1   
    55   31   32 1   
    56   31   57 1   
    57   31   58 1   
    58   32   33 1   
    59   32   59 1   
    60   32   60 1   
    61   33   34 1   
    62   33   61 1   
    63   33   62 1   
    64   34   35 1   
    65   34   36 1   
    66   35   63 1   
    67   35   64 1   
    68   35   65 1   
    69   36   37 1   
    70   36   66 1   
    71   36   67 1   
    72   37   68 1   
    73   37   69 1   
@<TRIPOS>SUBSTRUCTURE
     1 4O1         1 TEMP              0 ****  ****    0 ROOT
