@<TRIPOS>MOLECULE
4O2
   50    50     1     0     0
SMALL
bcc


@<TRIPOS>ATOM
      1 C1         -0.0520    0.8980    0.0350 c3        1 4O2     -0.067000
      2 C2          1.2690    0.2840    0.0780 c1        1 4O2     -0.116000
      3 C3          2.0770    0.3880    1.3180 c2        1 4O2      0.308000
      4 C4         -1.4070   -0.4940   -1.5800 c2        1 4O2      0.296000
      5 C5         -1.4710   -0.5460   -3.1250 c3        1 4O2     -0.091000
      6 C6          0.7540   -1.1490   -5.7030 c2        1 4O2     -0.183000
      7 C7         -1.1090    1.2920   -4.7450 c2        1 4O2     -0.068000
      8 C8         -0.7850    0.8720   -5.9970 c2        1 4O2      0.006000
      9 C10         0.0500   -0.2220   -7.9040 c2        1 4O2     -0.186000
     10 C11         2.5450   -3.5400   -9.8470 c1        1 4O2      0.163000
     11 C13        -1.0890    1.6010  -10.7650 c1        1 4O2     -0.196000
     12 C14        -0.9150    1.2760   -9.6260 c1        1 4O2     -0.108000
     13 C17        -0.4610    3.7870   -6.5470 c2        1 4O2     -0.231000
     14 C19         1.7650    4.7800   -6.4840 c2        1 4O2     -0.262000
     15 C21         0.2310    5.0500   -4.5350 c3        1 4O2     -0.228000
     16 C20         1.5290    5.2910   -5.2330 c2        1 4O2      0.130000
     17 C18         0.7580    4.0040   -7.1350 c2        1 4O2      0.026000
     18 C22        -0.7920    4.3530   -5.2880 c1        1 4O2     -0.092000
     19 N2         -1.3120    1.5120   -7.1820 na        1 4O2     -0.176000
     20 N1         -0.7250    0.6350   -3.5670 n         1 4O2     -0.266000
     21 C          -0.3950    1.4180   -2.4000 c2        1 4O2      0.387000
     22 O           0.1300    2.5430   -2.4420 o         1 4O2     -0.351000
     23 C15        -0.6920    0.8640   -8.3020 c2        1 4O2      0.080000
     24 C12         2.1510   -3.0280   -8.7150 c2        1 4O2     -0.558000
     25 C9          0.0590   -0.2730   -6.4320 c2        1 4O2     -0.050000
     26 O3         -1.8850   -1.3420   -0.8250 o         1 4O2     -0.302000
     27 N          -0.7890    0.7260   -1.2120 n         1 4O2     -0.294000
     28 O2          2.9520    1.2970    1.4080 o         1 4O2     -0.563000
     29 O1          1.8410   -0.4800    2.2110 o         1 4O2     -0.563000
     30 H1          2.6890    1.9210   -0.8100 ha        1 4O2      0.007000
     31 H2          2.1830    1.9710   -1.2630 ha        1 4O2      0.007000
     32 H3          0.0160    2.0160    0.1990 h1        1 4O2      0.142500
     33 H4         -0.6960    0.4340    0.8450 h1        1 4O2      0.142500
     34 H5         -0.9650   -1.4780   -3.4920 h1        1 4O2      0.120000
     35 H6          1.3450   -1.9370   -6.1920 ha        1 4O2      0.127000
     36 H7         -2.5380   -0.5390   -3.4690 h1        1 4O2      0.120000
     37 H8         -1.6470    2.2580   -4.5990 h4        1 4O2      0.171000
     38 H9          0.8080   -1.1400   -4.6080 ha        1 4O2      0.127000
     39 H10         0.5560   -0.9490   -8.5370 ha        1 4O2      0.154000
     40 H11        -1.2430    1.8850  -11.7740 ha        1 4O2      0.223000
     41 H12         1.2160   -3.3130   -8.2040 ha        1 4O2      0.198000
     42 H13         1.0000    3.5890   -8.1280 ha        1 4O2      0.133000
     43 H14         0.4200    4.3820   -3.6210 hc        1 4O2      0.201500
     44 H15         2.7260    4.9420   -6.9920 ha        1 4O2      0.147000
     45 H16        -0.1790    6.0130   -4.1210 hc        1 4O2      0.201500
     46 H19         2.7180   -2.2640   -8.1580 ha        1 4O2      0.198000
     47 F           2.4590    6.0170   -4.5850 f         1 4O2     -0.094000
     48 H17        -1.6480    3.2650   -8.2730 h1        1 4O2      0.107500
     49 H18        -2.4940    3.1250   -6.6560 h1        1 4O2      0.107500
     50 C16        -1.5200    2.9440   -7.2000 c3        1 4O2      0.009000
@<TRIPOS>BOND
     1    1    2 1   
     2    1   27 1   
     3    1   32 1   
     4    1   33 1   
     5    2    3 1   
     6    3   28 1   
     7    3   29 1   
     8    4    5 1   
     9    4   26 1   
    10    4   27 1   
    11    5   20 1   
    12    5   34 1   
    13    5   36 1   
    14    6   25 1   
    15    6   35 1   
    16    6   38 1   
    17    7    8 1   
    18    7   20 1   
    19    7   37 1   
    20    8   19 1   
    21    8   25 1   
    22    9   23 1   
    23    9   25 1   
    24    9   39 1   
    25   10   24 1   
    26   11   12 1   
    27   11   40 1   
    28   12   23 1   
    29   13   17 1   
    30   13   18 1   
    31   13   50 1   
    32   14   16 1   
    33   14   17 1   
    34   14   44 1   
    35   15   16 1   
    36   15   18 1   
    37   15   43 1   
    38   15   45 1   
    39   16   47 1   
    40   17   42 1   
    41   19   23 1   
    42   19   50 1   
    43   20   21 1   
    44   21   22 1   
    45   21   27 1   
    46   24   41 1   
    47   24   46 1   
    48   30   31 1   
    49   48   50 1   
    50   49   50 1   
@<TRIPOS>SUBSTRUCTURE
     1 4O2         1 TEMP              0 ****  ****    0 ROOT
