@<TRIPOS>MOLECULE
4O2
   50    54     1     0     0
SMALL
bcc


@<TRIPOS>ATOM
      1 C1          0.1370    0.1410   -0.1230 c3        1 4O2      0.116000
      2 C2          1.6430    0.2750   -0.2540 c3        1 4O2     -0.229400
      3 C3          2.2880    0.3510    1.1490 c         1 4O2      0.919600
      4 C4         -0.7710   -1.1400   -2.1210 c         1 4O2      0.692500
      5 C5         -1.3850   -0.7320   -3.4980 c3        1 4O2     -0.009300
      6 C6         -0.4230   -1.1580   -4.6160 c3        1 4O2     -0.017200
      7 C7         -1.6990    1.5880   -4.4770 c3        1 4O2      0.148200
      8 C8         -1.0600    1.0210   -5.7000 cc        1 4O2     -0.079300
      9 C10        -0.0350   -0.4480   -7.1230 ca        1 4O2     -0.071800
     10 C11         0.5860   -1.4990   -7.7950 ca        1 4O2     -0.081000
     11 C13         0.5900   -0.1620   -9.8280 ca        1 4O2     -0.119000
     12 C14        -0.0320    0.9070   -9.1970 ca        1 4O2     -0.149000
     13 C17        -0.0420    3.9390   -6.8670 ca        1 4O2     -0.142300
     14 C19         2.1170    4.8420   -7.4950 ca        1 4O2     -0.165000
     15 C21         1.0300    5.5730   -5.4350 ca        1 4O2     -0.165000
     16 C20         2.1110    5.6380   -6.3340 ca        1 4O2      0.134900
     17 C18         1.0420    3.9980   -7.7490 ca        1 4O2     -0.085500
     18 C22        -0.0360    4.7220   -5.7090 ca        1 4O2     -0.085500
     19 N2         -1.0220    1.6480   -6.9620 na        1 4O2     -0.063400
     20 N1         -1.6660    0.7010   -3.3430 n         1 4O2     -0.443800
     21 C          -1.0310    1.1540   -2.1270 c         1 4O2      0.781500
     22 O          -0.9850    2.3470   -1.7860 o         1 4O2     -0.613500
     23 C15        -0.3470    0.7740   -7.8370 ca        1 4O2     -0.038200
     24 C12         0.8960   -1.3470   -9.1400 ca        1 4O2     -0.159000
     25 C9         -0.5020   -0.2550   -5.7690 cd        1 4O2     -0.126400
     26 O3         -0.5380   -2.3000   -1.7740 o         1 4O2     -0.583500
     27 N          -0.5910    0.0330   -1.3730 n         1 4O2     -0.478400
     28 O2          3.5430    0.4740    1.1910 o         1 4O2     -0.841300
     29 O1          1.5380    0.2860    2.1630 o         1 4O2     -0.841300
     30 H1         -0.0990   -0.7830    0.4780 h1        1 4O2      0.083200
     31 H2         -0.2640    1.0400    0.4270 h1        1 4O2      0.083200
     32 H3          2.0800   -0.6030   -0.7900 hc        1 4O2      0.035200
     33 H4          1.9180    1.2010   -0.8160 hc        1 4O2      0.035200
     34 H5         -2.3730   -1.2570   -3.6320 h1        1 4O2      0.090700
     35 H6          0.6330   -1.1700   -4.2250 hc        1 4O2      0.071200
     36 H7         -0.6740   -2.2110   -4.9140 hc        1 4O2      0.071200
     37 H8         -1.2110    2.5720   -4.2030 h1        1 4O2      0.070700
     38 H9         -2.7890    1.7950   -4.7010 h1        1 4O2      0.070700
     39 H10         0.8230   -2.4290   -7.2600 ha        1 4O2      0.138000
     40 H11         0.8520   -0.0790  -10.8930 ha        1 4O2      0.123000
     41 H12        -0.2720    1.8250   -9.7480 ha        1 4O2      0.126000
     42 H13         2.9730    4.8870   -8.1830 ha        1 4O2      0.152500
     43 H14         1.0440    6.1810   -4.5190 ha        1 4O2      0.152500
     44 H15         1.0490    3.3590   -8.6470 ha        1 4O2      0.142500
     45 H16        -0.8760    4.6670   -4.9980 ha        1 4O2      0.142500
     46 H19         1.3910   -2.1670   -9.6810 ha        1 4O2      0.126000
     47 F           3.1500    6.4690   -6.0830 f         1 4O2     -0.139900
     48 H17        -2.0960    3.3690   -6.5420 h1        1 4O2      0.063700
     49 H18        -1.4940    3.1920   -8.2630 h1        1 4O2      0.063700
     50 C16        -1.2170    3.0530   -7.1770 c3        1 4O2      0.093600
@<TRIPOS>BOND
     1    1    2 1   
     2    1   27 1   
     3    1   30 1   
     4    1   31 1   
     5    2    3 1   
     6    2   32 1   
     7    2   33 1   
     8    3   28 1   
     9    3   29 1   
    10    4    5 1   
    11    4   26 2   
    12    4   27 1   
    13    5    6 1   
    14    5   20 1   
    15    5   34 1   
    16    6   25 1   
    17    6   35 1   
    18    6   36 1   
    19    7    8 1   
    20    7   20 1   
    21    7   37 1   
    22    7   38 1   
    23    8   19 1   
    24    8   25 2   
    25    9   10 ar  
    26    9   23 ar  
    27    9   25 1   
    28   10   24 ar  
    29   10   39 1   
    30   11   12 ar  
    31   11   24 ar  
    32   11   40 1   
    33   12   23 ar  
    34   12   41 1   
    35   13   17 ar  
    36   13   18 ar  
    37   13   50 1   
    38   14   16 ar  
    39   14   17 ar  
    40   14   42 1   
    41   15   16 ar  
    42   15   18 ar  
    43   15   43 1   
    44   16   47 1   
    45   17   44 1   
    46   18   45 1   
    47   19   23 1   
    48   19   50 1   
    49   20   21 1   
    50   21   22 2   
    51   21   27 1   
    52   24   46 1   
    53   48   50 1   
    54   49   50 1   
@<TRIPOS>SUBSTRUCTURE
     1 4O2         1 TEMP              0 ****  ****    0 ROOT
