@<TRIPOS>MOLECULE
4O3
   42    46     1     0     0
SMALL
bcc


@<TRIPOS>ATOM
      1 C15        -0.0120   -0.1220   -0.1640 c3        1 4O3      0.146200
      2 C17         3.6510    0.4540   -0.5540 c         1 4O3      0.695500
      3 O1          1.6020    0.1330    2.2750 o         1 4O3     -0.608500
      4 C16         2.0860    0.1540    1.1320 c         1 4O3      0.787500
      5 N2          3.4300    0.5050    0.8310 n         1 4O3     -0.607500
      6 O           4.7240    0.6650   -1.1190 o         1 4O3     -0.573500
      7 C18         2.2900    0.0890   -1.2180 c3        1 4O3      0.006700
      8 C19         1.8610    1.2430   -2.1360 c3        1 4O3     -0.013200
      9 C13         0.4080    1.4370   -2.1360 cc        1 4O3     -0.136400
     10 C8         -0.3990    2.2600   -3.0080 ca        1 4O3     -0.076800
     11 C9         -0.1210    3.0800   -4.1010 ca        1 4O3     -0.083000
     12 C10        -1.1680    3.7410   -4.7270 ca        1 4O3     -0.152000
     13 C11        -2.4930    3.5930   -4.2830 ca        1 4O3     -0.111000
     14 C12        -2.8130    2.7820   -3.2030 ca        1 4O3     -0.147000
     15 C7         -1.7660    2.1080   -2.5560 ca        1 4O3     -0.037200
     16 N1          1.4230   -0.2440   -0.0740 n         1 4O3     -0.427800
     17 C14        -0.4540    0.8360   -1.2190 cd        1 4O3     -0.085300
     18 N          -1.7870    1.1910   -1.4870 na        1 4O3     -0.057400
     19 C6         -2.8900    0.9730   -0.5930 c3        1 4O3      0.090600
     20 C5         -2.9860    1.9240    0.5670 ca        1 4O3     -0.144300
     21 C2         -3.3010    3.2690    0.3480 ca        1 4O3     -0.087000
     22 C1         -3.4260    4.1500    1.4150 ca        1 4O3     -0.164500
     23 C4         -2.7830    1.4630    1.8710 ca        1 4O3     -0.087000
     24 C3         -2.9060    2.3280    2.9540 ca        1 4O3     -0.164500
     25 C          -3.2300    3.6780    2.7270 ca        1 4O3      0.136900
     26 F          -3.3520    4.5280    3.7740 f         1 4O3     -0.136900
     27 H1         -0.4280    0.1800    0.8440 h1        1 4O3      0.080700
     28 H2         -0.4110   -1.1510   -0.4140 h1        1 4O3      0.080700
     29 H3          4.1100    0.6850    1.5250 hn        1 4O3      0.359500
     30 H4          2.4160   -0.8520   -1.8250 h1        1 4O3      0.105700
     31 H5          2.2280    1.0180   -3.1740 hc        1 4O3      0.071200
     32 H6          2.3630    2.1970   -1.8110 hc        1 4O3      0.071200
     33 H7          0.9130    3.1950   -4.4550 ha        1 4O3      0.137000
     34 H8         -0.9650    4.3940   -5.5890 ha        1 4O3      0.133000
     35 H9         -3.2960    4.1340   -4.8060 ha        1 4O3      0.132000
     36 H10        -3.8530    2.6700   -2.8690 ha        1 4O3      0.133000
     37 H11        -2.8030   -0.0840   -0.2040 h1        1 4O3      0.068200
     38 H12        -3.8390    1.0510   -1.2010 h1        1 4O3      0.068200
     39 H13        -3.4440    3.6330   -0.6830 ha        1 4O3      0.142500
     40 H14        -3.6730    5.2090    1.2480 ha        1 4O3      0.154000
     41 H15        -2.5230    0.4080    2.0520 ha        1 4O3      0.142500
     42 H16        -2.7460    1.9700    3.9820 ha        1 4O3      0.154000
@<TRIPOS>BOND
     1    1   16 1   
     2    1   17 1   
     3    1   27 1   
     4    1   28 1   
     5    2    5 1   
     6    2    6 2   
     7    2    7 1   
     8    3    4 2   
     9    4    5 1   
    10    4   16 1   
    11    5   29 1   
    12    7    8 1   
    13    7   16 1   
    14    7   30 1   
    15    8    9 1   
    16    8   31 1   
    17    8   32 1   
    18    9   10 1   
    19    9   17 2   
    20   10   11 ar  
    21   10   15 ar  
    22   11   12 ar  
    23   11   33 1   
    24   12   13 ar  
    25   12   34 1   
    26   13   14 ar  
    27   13   35 1   
    28   14   15 ar  
    29   14   36 1   
    30   15   18 1   
    31   17   18 1   
    32   18   19 1   
    33   19   20 1   
    34   19   37 1   
    35   19   38 1   
    36   20   21 ar  
    37   20   23 ar  
    38   21   22 ar  
    39   21   39 1   
    40   22   25 ar  
    41   22   40 1   
    42   23   24 ar  
    43   23   41 1   
    44   24   25 ar  
    45   24   42 1   
    46   25   26 1   
@<TRIPOS>SUBSTRUCTURE
     1 4O3         1 TEMP              0 ****  ****    0 ROOT
