@<TRIPOS>MOLECULE
4O6
   54    55     1     0     0
SMALL
bcc


@<TRIPOS>ATOM
      1 C01        -0.3720    0.1480    0.2030 c3        1 4O6     -0.107100
      2 C05         1.1270   -0.0770    0.0060 c3        1 4O6      0.047700
      3 C07         1.7740   -0.2470    1.4090 c         1 4O6      0.635100
      4 O08         2.0620   -1.3950    1.8230 o         1 4O6     -0.652100
      5 N09         2.0430    0.8560    2.1840 n         1 4O6     -0.452800
      6 C10         2.5880    0.6810    3.5200 c3        1 4O6      0.052000
      7 C13         3.5740    1.7920    3.9070 c3        1 4O6      0.112400
      8 O16         3.0230    3.0830    3.6750 os        1 4O6     -0.396600
      9 C17         2.6380    3.2640    2.3200 c3        1 4O6      0.112400
     10 C20         1.6170    2.2030    1.8730 c3        1 4O6      0.052000
     11 N23         1.4180   -1.1930   -0.8740 n         1 4O6     -0.414800
     12 C24         2.6930   -1.1940   -1.5900 c3        1 4O6      0.065000
     13 C27         2.9950   -2.6500   -1.9990 c3        1 4O6     -0.103400
     14 C30         2.1000   -3.5050   -1.0810 c3        1 4O6      0.028500
     15 N32         1.5100   -4.7110   -1.6500 n8        1 4O6     -0.990800
     16 S34         1.7350   -6.5610   -0.2760 s4        1 4O6      1.682100
     17 O35         2.1910   -7.3240   -1.3130 o         1 4O6     -0.456900
     18 O36         2.6060   -5.9800    0.5950 o         1 4O6     -0.456900
     19 C37         0.2640   -6.7410    0.0980 c2        1 4O6     -0.803300
     20 C39        -0.5510   -6.4490    1.1700 ce        1 4O6      0.304800
     21 C41        -0.3110   -5.6620    2.3310 ca        1 4O6     -0.217800
     22 C42        -1.1360   -5.8920    3.4640 ca        1 4O6     -0.014000
     23 C44        -0.9710   -5.1560    4.6240 ca        1 4O6     -0.147500
     24 C46        -0.0010   -4.1380    4.6750 ca        1 4O6      0.104400
     25 Cl1         0.1870   -3.2330    6.0840 cl        1 4O6     -0.019400
     26 C48         0.7980   -3.8700    3.5560 ca        1 4O6     -0.147500
     27 C50         0.6490   -4.6320    2.4040 ca        1 4O6     -0.014000
     28 C52         1.0370   -2.5000   -0.5530 c         1 4O6      0.696500
     29 O53        -0.0110   -2.8720   -0.0090 o         1 4O6     -0.611500
     30 H1         -0.8700    0.3260   -0.7810 hc        1 4O6      0.066033
     31 H2         -0.8480   -0.7400    0.6880 hc        1 4O6      0.066033
     32 H3         -0.5250    1.0440    0.8510 hc        1 4O6      0.066033
     33 H4          1.5750    0.8290   -0.5050 h1        1 4O6      0.084700
     34 H5          3.1150   -0.3120    3.5820 h1        1 4O6      0.063200
     35 H6          1.7340    0.6790    4.2570 h1        1 4O6      0.063200
     36 H7          4.5380    1.6850    3.3440 h1        1 4O6      0.065950
     37 H8          3.7650    1.7640    5.0120 h1        1 4O6      0.065950
     38 H9          2.1620    4.2800    2.2960 h1        1 4O6      0.065950
     39 H10         3.5450    3.2440    1.6610 h1        1 4O6      0.065950
     40 H11         0.6390    2.4030    2.4020 h1        1 4O6      0.063200
     41 H12         1.4520    2.3270    0.7690 h1        1 4O6      0.063200
     42 H13         3.5220   -0.7900   -0.9460 h1        1 4O6      0.072200
     43 H14         2.5880   -0.5370   -2.4960 h1        1 4O6      0.072200
     44 H15         2.7590   -2.8040   -3.0810 hc        1 4O6      0.078200
     45 H16         4.0740   -2.8870   -1.8370 hc        1 4O6      0.078200
     46 H17         2.7110   -3.8190   -0.1770 h1        1 4O6      0.126700
     47 H18         1.9640   -4.9480   -2.5200 hn        1 4O6      0.411300
     48 H19        -0.3170   -7.3380   -0.6620 h4        1 4O6      0.231000
     49 H20        -1.5590   -6.9280    1.1480 ha        1 4O6      0.156000
     50 H21        -1.9090   -6.6780    3.4260 ha        1 4O6      0.153000
     51 H22        -1.6030   -5.3590    5.5040 ha        1 4O6      0.185000
     52 H23         1.5350   -3.0440    3.5650 ha        1 4O6      0.185000
     53 H24         1.2680   -4.3770    1.5260 ha        1 4O6      0.153000
     54 H322        0.5270   -4.5680   -1.8270 hn        1 4O6      0.411300
@<TRIPOS>BOND
     1    1    2 1   
     2    1   30 1   
     3    1   31 1   
     4    1   32 1   
     5    2    3 1   
     6    2   11 1   
     7    2   33 1   
     8    3    4 2   
     9    3    5 1   
    10    5    6 1   
    11    5   10 1   
    12    6    7 1   
    13    6   34 1   
    14    6   35 1   
    15    7    8 1   
    16    7   36 1   
    17    7   37 1   
    18    8    9 1   
    19    9   10 1   
    20    9   38 1   
    21    9   39 1   
    22   10   40 1   
    23   10   41 1   
    24   11   12 1   
    25   11   28 1   
    26   12   13 1   
    27   12   42 1   
    28   12   43 1   
    29   13   14 1   
    30   13   44 1   
    31   13   45 1   
    32   14   15 1   
    33   14   28 1   
    34   14   46 1   
    35   15   47 1   
    36   15   54 1   
    37   16   17 1   
    38   16   18 1   
    39   16   19 1   
    40   19   20 2   
    41   19   48 1   
    42   20   21 1   
    43   20   49 1   
    44   21   22 ar  
    45   21   27 ar  
    46   22   23 ar  
    47   22   50 1   
    48   23   24 ar  
    49   23   51 1   
    50   24   25 1   
    51   24   26 ar  
    52   26   27 ar  
    53   26   52 1   
    54   27   53 1   
    55   28   29 2   
@<TRIPOS>SUBSTRUCTURE
     1 4O6         1 TEMP              0 ****  ****    0 ROOT
