@<TRIPOS>MOLECULE
4O8
   36    37     1     0     0
SMALL
bcc


@<TRIPOS>ATOM
      1 O21         1.6350    2.2520   -0.4300 o         1 4O8     -0.479000
      2 C19         2.8180    1.9510   -0.5820 c         1 4O8      0.596100
      3 O20         3.6440    3.0050   -0.8280 oh        1 4O8     -0.571100
      4 C18         3.3760    0.5520   -0.5060 c3        1 4O8      0.032400
      5 O17         4.7500    0.5280   -0.8940 os        1 4O8     -0.353900
      6 C11         4.9880    0.1480   -2.2110 ca        1 4O8      0.120100
      7 C13         4.2880    0.7640   -3.2580 ca        1 4O8     -0.183000
      8 C15         4.5960    0.4230   -4.5760 ca        1 4O8      0.058400
      9 CL2         3.7610    1.1670   -5.8490 cl        1 4O8     -0.064400
     10 C14         5.5860   -0.5280   -4.8510 ca        1 4O8     -0.142000
     11 C12         6.2680   -1.1340   -3.8010 ca        1 4O8     -0.055000
     12 C10         5.9850   -0.8070   -2.4670 ca        1 4O8     -0.143600
     13 C9          6.7600   -1.5360   -1.4180 c         1 4O8      0.681700
     14 O16         7.0610   -2.7370   -1.5750 o         1 4O8     -0.601100
     15 N8          7.1530   -0.8360   -0.2980 n         1 4O8     -0.559900
     16 C7          7.9640   -1.4170    0.7330 c3        1 4O8      0.140300
     17 C1          9.2940   -0.7380    0.9160 ca        1 4O8     -0.169300
     18 C2         10.5020   -1.4540    0.7930 ca        1 4O8      0.160900
     19 F25        10.4860   -2.7700    0.4800 f         1 4O8     -0.128400
     20 C3          9.3690    0.6300    1.2470 ca        1 4O8      0.160900
     21 F24         8.2310    1.3550    1.3790 f         1 4O8     -0.128400
     22 C5         10.6060    1.2670    1.4520 ca        1 4O8     -0.157000
     23 C6         11.7840    0.5320    1.3230 ca        1 4O8      0.021100
     24 BR2        13.4340    1.3740    1.5920 br        1 4O8     -0.058100
     25 C4         11.7440   -0.8220    0.9970 ca        1 4O8     -0.157000
     26 H2          3.3840    0.2160    0.5680 h1        1 4O8      0.105200
     27 H3          2.7490   -0.1430   -1.1230 h1        1 4O8      0.105200
     28 H4          3.5110    1.5130   -3.0330 ha        1 4O8      0.165000
     29 H5          5.8230   -0.8000   -5.8910 ha        1 4O8      0.160000
     30 H6          7.0360   -1.9000   -4.0060 ha        1 4O8      0.170000
     31 H7          6.8790    0.1130   -0.1890 hn        1 4O8      0.328500
     32 H8          8.1250   -2.5120    0.5030 h1        1 4O8      0.082200
     33 H9          7.4080   -1.3380    1.7150 h1        1 4O8      0.082200
     34 H10        10.6220    2.3370    1.7110 ha        1 4O8      0.169500
     35 H11        12.6670   -1.4150    0.8920 ha        1 4O8      0.169500
     36 H82         4.5610    2.6970   -0.9100 ho        1 4O8      0.441000
@<TRIPOS>BOND
     1    1    2 2   
     2    2    3 1   
     3    2    4 1   
     4    3   36 1   
     5    4    5 1   
     6    4   26 1   
     7    4   27 1   
     8    5    6 1   
     9    6    7 ar  
    10    6   12 ar  
    11    7    8 ar  
    12    7   28 1   
    13    8    9 1   
    14    8   10 ar  
    15   10   11 ar  
    16   10   29 1   
    17   11   12 ar  
    18   11   30 1   
    19   12   13 1   
    20   13   14 2   
    21   13   15 1   
    22   15   16 1   
    23   15   31 1   
    24   16   17 1   
    25   16   32 1   
    26   16   33 1   
    27   17   18 ar  
    28   17   20 ar  
    29   18   19 1   
    30   18   25 ar  
    31   20   21 1   
    32   20   22 ar  
    33   22   23 ar  
    34   22   34 1   
    35   23   24 1   
    36   23   25 ar  
    37   25   35 1   
@<TRIPOS>SUBSTRUCTURE
     1 4O8         1 TEMP              0 ****  ****    0 ROOT
