@<TRIPOS>MOLECULE
4O8
   36    37     1     0     0
SMALL
bcc


@<TRIPOS>ATOM
      1 O21         1.7970    2.6300   -0.7590 o         1 4O8     -0.479000
      2 C19         2.9600    2.2390   -0.8500 c         1 4O8      0.596100
      3 O20         3.8650    3.2160   -1.1300 oh        1 4O8     -0.571100
      4 C18         3.4140    0.8120   -0.6690 c3        1 4O8      0.032400
      5 O17         4.7950    0.6690   -1.0060 os        1 4O8     -0.353900
      6 C11         5.0460    0.1920   -2.2880 ca        1 4O8      0.120100
      7 C13         4.4240    0.7870   -3.3940 ca        1 4O8     -0.183000
      8 C15         4.7480    0.3420   -4.6770 ca        1 4O8      0.058400
      9 CL2         4.0070    1.0590   -6.0230 cl        1 4O8     -0.064400
     10 C14         5.6780   -0.6880   -4.8590 ca        1 4O8     -0.142000
     11 C12         6.2830   -1.2720   -3.7500 ca        1 4O8     -0.055000
     12 C10         5.9820   -0.8430   -2.4490 ca        1 4O8     -0.143600
     13 C9          6.6720   -1.5540   -1.3310 c         1 4O8      0.681700
     14 O16         6.8930   -2.7810   -1.4040 o         1 4O8     -0.601100
     15 N8          7.0770   -0.8140   -0.2420 n         1 4O8     -0.559900
     16 C7          7.8120   -1.3820    0.8510 c3        1 4O8      0.140300
     17 C1          9.1780   -0.7800    1.0420 ca        1 4O8     -0.169300
     18 C2         10.3380   -1.5780    1.0060 ca        1 4O8      0.160900
     19 F25        10.2460   -2.9070    0.7710 f         1 4O8     -0.128400
     20 C3          9.3330    0.5980    1.2960 ca        1 4O8      0.160900
     21 F24         8.2420    1.4010    1.3420 f         1 4O8     -0.128400
     22 C5         10.6020    1.1650    1.5080 ca        1 4O8     -0.157000
     23 C6         11.7320    0.3490    1.4660 ca        1 4O8      0.021100
     24 BR2        13.4250    1.0970    1.7460 br        1 4O8     -0.058100
     25 C4         11.6130   -1.0170    1.2190 ca        1 4O8     -0.157000
     26 H2          3.3640    0.5450    0.4230 h1        1 4O8      0.105200
     27 H3          2.7600    0.1250   -1.2650 h1        1 4O8      0.105200
     28 H4          3.6940    1.5990   -3.2430 ha        1 4O8      0.165000
     29 H5          5.9270   -1.0410   -5.8720 ha        1 4O8      0.160000
     30 H6          7.0020   -2.0990   -3.8810 ha        1 4O8      0.170000
     31 H7          6.8650    0.1570   -0.2000 hn        1 4O8      0.328500
     32 H8          7.9070   -2.4970    0.6910 h1        1 4O8      0.082200
     33 H9          7.2300   -1.2070    1.8050 h1        1 4O8      0.082200
     34 H10        10.6810    2.2460    1.7040 ha        1 4O8      0.169500
     35 H11        12.4960   -1.6730    1.1840 ha        1 4O8      0.169500
     36 H82         4.7600    2.8420   -1.1610 ho        1 4O8      0.441000
@<TRIPOS>BOND
     1    1    2 2   
     2    2    3 1   
     3    2    4 1   
     4    3   36 1   
     5    4    5 1   
     6    4   26 1   
     7    4   27 1   
     8    5    6 1   
     9    6    7 ar  
    10    6   12 ar  
    11    7    8 ar  
    12    7   28 1   
    13    8    9 1   
    14    8   10 ar  
    15   10   11 ar  
    16   10   29 1   
    17   11   12 ar  
    18   11   30 1   
    19   12   13 1   
    20   13   14 2   
    21   13   15 1   
    22   15   16 1   
    23   15   31 1   
    24   16   17 1   
    25   16   32 1   
    26   16   33 1   
    27   17   18 ar  
    28   17   20 ar  
    29   18   19 1   
    30   18   25 ar  
    31   20   21 1   
    32   20   22 ar  
    33   22   23 ar  
    34   22   34 1   
    35   23   24 1   
    36   23   25 ar  
    37   25   35 1   
@<TRIPOS>SUBSTRUCTURE
     1 4O8         1 TEMP              0 ****  ****    0 ROOT
