@<TRIPOS>MOLECULE
4O8
   36    37     1     0     0
SMALL
bcc


@<TRIPOS>ATOM
      1 O21         1.9140   -1.4730    0.9830 o         1 4O8     -0.484000
      2 C19         2.9210   -0.9790    0.4780 c         1 4O8      0.629100
      3 O20         3.7220   -0.3080    1.3440 oh        1 4O8     -0.566100
      4 C18         3.2680   -1.0770   -0.9880 c3        1 4O8      0.031400
      5 O17         4.6180   -0.6260   -1.1370 os        1 4O8     -0.356900
      6 C11         4.9550   -0.1440   -2.3910 ca        1 4O8      0.154100
      7 C13         4.3290   -0.6170   -3.5530 ca        1 4O8     -0.197000
      8 C15         4.7430   -0.1280   -4.7940 ca        1 4O8      0.065400
      9 Cl2         3.9940   -0.7000   -6.2050 cl        1 4O8     -0.069400
     10 C14         5.7640    0.8240   -4.8840 ca        1 4O8     -0.153000
     11 C12         6.3760    1.2830   -3.7210 ca        1 4O8     -0.046000
     12 C10         5.9910    0.8060   -2.4610 ca        1 4O8     -0.161600
     13 C9          6.7060    1.3760   -1.2810 c         1 4O8      0.677700
     14 O16         7.0200    2.5830   -1.2530 o         1 4O8     -0.592100
     15 N8          7.0030    0.5300   -0.2290 ns        1 4O8     -0.561900
     16 C7          7.8420    0.9310    0.8650 c3        1 4O8      0.135300
     17 C1          9.2210    0.3290    0.8490 ca        1 4O8     -0.176300
     18 C2          9.4030   -1.0690    0.8540 ca        1 4O8      0.161400
     19 F25         8.3230   -1.8890    0.8440 f         1 4O8     -0.127400
     20 C3         10.3710    1.1430    0.8660 ca        1 4O8      0.161400
     21 F24        10.2540    2.4900    0.8690 f         1 4O8     -0.127400
     22 C5         11.6610    0.5770    0.8860 ca        1 4O8     -0.157500
     23 C6         11.8070   -0.8090    0.8880 ca        1 4O8      0.022100
     24 Br2        13.5200   -1.5620    0.9110 br        1 4O8     -0.058100
     25 C4         10.6870   -1.6410    0.8730 ca        1 4O8     -0.157500
     26 H2          3.2050   -2.1480   -1.3190 h1        1 4O8      0.089700
     27 H3          2.5560   -0.4440   -1.5810 h1        1 4O8      0.089700
     28 H4          3.5290   -1.3680   -3.4910 ha        1 4O8      0.159000
     29 H5          6.0810    1.2120   -5.8640 ha        1 4O8      0.160000
     30 H6          7.1700    2.0480   -3.7780 ha        1 4O8      0.169000
     31 H7          4.4910    0.0650    0.8840 ho        1 4O8      0.449000
     32 H8          7.3400    0.6010    1.8230 h1        1 4O8      0.086200
     33 H9          7.9220    2.0580    0.8710 h1        1 4O8      0.086200
     34 H10        12.5360    1.2460    0.8980 ha        1 4O8      0.170000
     35 H11        10.7870   -2.7370    0.8780 ha        1 4O8      0.170000
     36 H82         6.8200   -0.4430   -0.3300 hn        1 4O8      0.324500
@<TRIPOS>BOND
     1    1    2 2   
     2    2    3 1   
     3    2    4 1   
     4    3   31 1   
     5    4    5 1   
     6    4   26 1   
     7    4   27 1   
     8    5    6 1   
     9    6    7 ar  
    10    6   12 ar  
    11    7    8 ar  
    12    7   28 1   
    13    8    9 1   
    14    8   10 ar  
    15   10   11 ar  
    16   10   29 1   
    17   11   12 ar  
    18   11   30 1   
    19   12   13 1   
    20   13   14 2   
    21   13   15 1   
    22   15   16 1   
    23   15   36 1   
    24   16   17 1   
    25   16   32 1   
    26   16   33 1   
    27   17   18 ar  
    28   17   20 ar  
    29   18   19 1   
    30   18   25 ar  
    31   20   21 1   
    32   20   22 ar  
    33   22   23 ar  
    34   22   34 1   
    35   23   24 1   
    36   23   25 ar  
    37   25   35 1   
@<TRIPOS>SUBSTRUCTURE
     1 4O8         1 TEMP              0 ****  ****    0 ROOT
