@<TRIPOS>MOLECULE
4O9
   36    37     1     0     0
SMALL
bcc


@<TRIPOS>ATOM
      1 O21         1.6200    2.1830   -0.3540 o         1 4O9     -0.479000
      2 C19         2.8050    1.8960   -0.5190 c         1 4O9      0.596100
      3 O20         3.6180    2.9620   -0.7550 oh        1 4O9     -0.571100
      4 C18         3.3770    0.5010   -0.4690 c3        1 4O9      0.032400
      5 O17         4.7480    0.4960   -0.8680 os        1 4O9     -0.353900
      6 C11         4.9800    0.1400   -2.1920 ca        1 4O9      0.120100
      7 C13         4.2640    0.7640   -3.2240 ca        1 4O9     -0.183000
      8 C15         4.5660    0.4460   -4.5490 ca        1 4O9      0.058400
      9 CL2         3.7120    1.1990   -5.8050 cl        1 4O9     -0.064400
     10 C14         5.5660   -0.4880   -4.8460 ca        1 4O9     -0.142000
     11 C12         6.2630   -1.1020   -3.8110 ca        1 4O9     -0.055000
     12 C10         5.9860   -0.7990   -2.4700 ca        1 4O9     -0.143600
     13 C9          6.7790   -1.5340   -1.4380 c         1 4O9      0.681700
     14 O16         7.0920   -2.7290   -1.6170 o         1 4O9     -0.601100
     15 N8          7.1720   -0.8470   -0.3110 n         1 4O9     -0.559900
     16 C7          7.9980   -1.4340    0.7050 c3        1 4O9      0.139300
     17 C1          9.3190   -0.7380    0.8910 ca        1 4O9     -0.164300
     18 C2         10.5360   -1.4340    0.7520 ca        1 4O9      0.156900
     19 F25        10.5380   -2.7460    0.4190 f         1 4O9     -0.128900
     20 C3          9.3760    0.6260    1.2430 ca        1 4O9      0.156900
     21 F24         8.2290    1.3330    1.3920 f         1 4O9     -0.128900
     22 C5         10.6070    1.2750    1.4510 ca        1 4O9     -0.149000
     23 C6         11.7920    0.5610    1.3060 ca        1 4O9      0.069900
     24 I23        13.5620    1.4900    1.6010 i         1 4O9     -0.112900
     25 C4         11.7700   -0.7860    0.9600 ca        1 4O9     -0.149000
     26 H2          3.3960    0.1480    0.6000 h1        1 4O9      0.105200
     27 H3          2.7520   -0.1900   -1.0930 h1        1 4O9      0.105200
     28 H4          3.4800    1.4990   -2.9810 ha        1 4O9      0.165000
     29 H5          5.7970   -0.7410   -5.8930 ha        1 4O9      0.160000
     30 H6          7.0380   -1.8560   -4.0340 ha        1 4O9      0.170000
     31 H7          4.5370    2.6640   -0.8480 ho        1 4O9      0.441000
     32 H8          7.4470   -1.3790    1.6910 h1        1 4O9      0.082700
     33 H9          8.1740   -2.5220    0.4540 h1        1 4O9      0.082700
     34 H10        10.6070    2.3420    1.7260 ha        1 4O9      0.167500
     35 H11        12.6990   -1.3650    0.8420 ha        1 4O9      0.167500
     36 H82         6.8870    0.0970   -0.1850 hn        1 4O9      0.329500
@<TRIPOS>BOND
     1    1    2 2   
     2    2    3 1   
     3    2    4 1   
     4    3   31 1   
     5    4    5 1   
     6    4   26 1   
     7    4   27 1   
     8    5    6 1   
     9    6    7 ar  
    10    6   12 ar  
    11    7    8 ar  
    12    7   28 1   
    13    8    9 1   
    14    8   10 ar  
    15   10   11 ar  
    16   10   29 1   
    17   11   12 ar  
    18   11   30 1   
    19   12   13 1   
    20   13   14 2   
    21   13   15 1   
    22   15   16 1   
    23   15   36 1   
    24   16   17 1   
    25   16   32 1   
    26   16   33 1   
    27   17   18 ar  
    28   17   20 ar  
    29   18   19 1   
    30   18   25 ar  
    31   20   21 1   
    32   20   22 ar  
    33   22   23 ar  
    34   22   34 1   
    35   23   24 1   
    36   23   25 ar  
    37   25   35 1   
@<TRIPOS>SUBSTRUCTURE
     1 4O9         1 TEMP              0 ****  ****    0 ROOT
