@<TRIPOS>MOLECULE
4O9
   36    37     1     0     0
SMALL
bcc


@<TRIPOS>ATOM
      1 O21         1.9270    1.5620    0.9340 o         1 4O9     -0.484000
      2 C19         2.9280    1.0520    0.4350 c         1 4O9      0.629100
      3 O20         3.6940    0.3360    1.2970 oh        1 4O9     -0.566100
      4 C18         3.3050    1.1790   -1.0220 c3        1 4O9      0.031400
      5 O17         4.6450    0.6920   -1.1590 os        1 4O9     -0.356900
      6 C11         4.9920    0.2330   -2.4190 ca        1 4O9      0.154100
      7 C13         4.4020    0.7540   -3.5780 ca        1 4O9     -0.197000
      8 C15         4.8240    0.2870   -4.8250 ca        1 4O9      0.065400
      9 CL2         4.1180    0.9160   -6.2320 cl        1 4O9     -0.069400
     10 C14         5.8200   -0.6910   -4.9210 ca        1 4O9     -0.153000
     11 C12         6.3960   -1.1980   -3.7610 ca        1 4O9     -0.046000
     12 C10         6.0020   -0.7440   -2.4950 ca        1 4O9     -0.161600
     13 C9          6.6780   -1.3660   -1.3180 c         1 4O9      0.677700
     14 O16         6.9570   -2.5820   -1.3170 o         1 4O9     -0.592100
     15 N8          6.9790   -0.5560   -0.2390 n         1 4O9     -0.561900
     16 C7          7.7850   -1.0100    0.8590 c3        1 4O9      0.134300
     17 C1          9.1800   -0.4460    0.8860 ca        1 4O9     -0.171300
     18 C2         10.3070   -1.2920    0.9060 ca        1 4O9      0.157400
     19 F25        10.1520   -2.6350    0.8730 f         1 4O9     -0.127900
     20 C3          9.4000    0.9460    0.9300 ca        1 4O9      0.157400
     21 F24         8.3440    1.7960    0.9190 f         1 4O9     -0.127900
     22 C5         10.7010    1.4780    0.9890 ca        1 4O9     -0.149500
     23 C6         11.7940    0.6170    1.0060 ca        1 4O9      0.070900
     24 I23        13.6650    1.3780    1.0880 i         1 4O9     -0.112900
     25 C4         11.6110   -0.7600    0.9660 ca        1 4O9     -0.149500
     26 H2          3.2800    2.2590   -1.3250 h1        1 4O9      0.089700
     27 H3          2.5870    0.5820   -1.6440 h1        1 4O9      0.089700
     28 H4          3.6210    1.5270   -3.5110 ha        1 4O9      0.159000
     29 H5          6.1430   -1.0620   -5.9060 ha        1 4O9      0.160000
     30 H6          7.1690   -1.9850   -3.8230 ha        1 4O9      0.169000
     31 H7          4.4610   -0.0460    0.8410 ho        1 4O9      0.449000
     32 H8          7.8340   -2.1390    0.8350 h1        1 4O9      0.086200
     33 H9          7.2730   -0.6930    1.8170 h1        1 4O9      0.086200
     34 H10        10.8290    2.5720    1.0240 ha        1 4O9      0.167500
     35 H11        12.4650   -1.4560    0.9790 ha        1 4O9      0.167500
     36 H82         6.8250    0.4240   -0.3170 hn        1 4O9      0.324500
@<TRIPOS>BOND
     1    1    2 2   
     2    2    3 1   
     3    2    4 1   
     4    3   31 1   
     5    4    5 1   
     6    4   26 1   
     7    4   27 1   
     8    5    6 1   
     9    6    7 ar  
    10    6   12 ar  
    11    7    8 ar  
    12    7   28 1   
    13    8    9 1   
    14    8   10 ar  
    15   10   11 ar  
    16   10   29 1   
    17   11   12 ar  
    18   11   30 1   
    19   12   13 1   
    20   13   14 2   
    21   13   15 1   
    22   15   16 1   
    23   15   36 1   
    24   16   17 1   
    25   16   32 1   
    26   16   33 1   
    27   17   18 ar  
    28   17   20 ar  
    29   18   19 1   
    30   18   25 ar  
    31   20   21 1   
    32   20   22 ar  
    33   22   23 ar  
    34   22   34 1   
    35   23   24 1   
    36   23   25 ar  
    37   25   35 1   
@<TRIPOS>SUBSTRUCTURE
     1 4O9         1 TEMP              0 ****  ****    0 ROOT
