@<TRIPOS>MOLECULE
4O9
   36    37     1     0     0
SMALL
bcc


@<TRIPOS>ATOM
      1 O21         3.8750    3.1930    0.0840 o         1 4O9     -0.535000
      2 C19         4.2850    2.0680   -0.2100 c         1 4O9      0.604100
      3 O20         5.6250    1.8530   -0.1550 oh        1 4O9     -0.603100
      4 C18         3.4580    0.8720   -0.5980 c3        1 4O9      0.084400
      5 O17         4.2310   -0.2290   -1.0440 os        1 4O9     -0.310900
      6 C11         4.6960   -0.2200   -2.3510 ca        1 4O9      0.150100
      7 C13         4.0090    0.4020   -3.4020 ca        1 4O9     -0.197000
      8 C15         4.4920    0.2680   -4.7060 ca        1 4O9      0.062400
      9 Cl2         3.6680    1.0320   -5.9790 cl        1 4O9     -0.077400
     10 C14         5.6350   -0.4910   -4.9740 ca        1 4O9     -0.154000
     11 C12         6.3030   -1.1110   -3.9220 ca        1 4O9     -0.050000
     12 C10         5.8600   -0.9720   -2.6020 ca        1 4O9     -0.148600
     13 C9          6.6590   -1.6680   -1.5470 c         1 4O9      0.686700
     14 O16         7.1280   -2.8070   -1.7500 o         1 4O9     -0.607100
     15 N8          6.8910   -0.9880   -0.3720 ns        1 4O9     -0.560900
     16 C7          7.7200   -1.5080    0.6750 c3        1 4O9      0.141300
     17 C1          8.9950   -0.7370    0.8930 ca        1 4O9     -0.157300
     18 C2         10.2450   -1.3880    0.8680 ca        1 4O9      0.156400
     19 F25        10.3180   -2.7170    0.6240 f         1 4O9     -0.130400
     20 C3          8.9800    0.6480    1.1600 ca        1 4O9      0.156400
     21 F24         7.8030    1.3200    1.2030 f         1 4O9     -0.130400
     22 C5         10.1720    1.3590    1.3920 ca        1 4O9     -0.150500
     23 C6         11.3910    0.6890    1.3590 ca        1 4O9      0.067900
     24 I23        13.1030    1.7090    1.6890 i         1 4O9     -0.115900
     25 C4         11.4390   -0.6770    1.1010 ca        1 4O9     -0.150500
     26 H2          2.6770    1.1880   -1.3350 h1        1 4O9      0.100200
     27 H3          2.9620    0.4730    0.3360 h1        1 4O9      0.100200
     28 H4          3.0960    0.9870   -3.2220 ha        1 4O9      0.154000
     29 H5          6.0030   -0.6040   -6.0050 ha        1 4O9      0.158000
     30 H6          7.1950   -1.7320   -4.1200 ha        1 4O9      0.167000
     31 H7          6.0830    2.6560    0.1510 ho        1 4O9      0.457000
     32 H8          7.9670   -2.5870    0.4480 h1        1 4O9      0.080700
     33 H9          7.1380   -1.4720    1.6450 h1        1 4O9      0.080700
     34 H10        10.1170    2.4390    1.5980 ha        1 4O9      0.165500
     35 H11        12.3950   -1.2230    1.0710 ha        1 4O9      0.165500
     36 H82         6.4770   -0.0930   -0.2340 hn        1 4O9      0.340500
@<TRIPOS>BOND
     1    1    2 2   
     2    2    3 1   
     3    2    4 1   
     4    3   31 1   
     5    4    5 1   
     6    4   26 1   
     7    4   27 1   
     8    5    6 1   
     9    6    7 ar  
    10    6   12 ar  
    11    7    8 ar  
    12    7   28 1   
    13    8    9 1   
    14    8   10 ar  
    15   10   11 ar  
    16   10   29 1   
    17   11   12 ar  
    18   11   30 1   
    19   12   13 1   
    20   13   14 2   
    21   13   15 1   
    22   15   16 1   
    23   15   36 1   
    24   16   17 1   
    25   16   32 1   
    26   16   33 1   
    27   17   18 ar  
    28   17   20 ar  
    29   18   19 1   
    30   18   25 ar  
    31   20   21 1   
    32   20   22 ar  
    33   22   23 ar  
    34   22   34 1   
    35   23   24 1   
    36   23   25 ar  
    37   25   35 1   
@<TRIPOS>SUBSTRUCTURE
     1 4O9         1 TEMP              0 ****  ****    0 ROOT
