@<TRIPOS>MOLECULE
4OA
   66    69     1     0     0
SMALL
bcc


@<TRIPOS>ATOM
      1 C1          4.3550    1.6450   -0.4840 c3        1 4OA     -0.068400
      2 C10         3.5680    0.4040   -0.9290 c3        1 4OA     -0.035000
      3 C11         1.3290    1.5760   -0.5520 c3        1 4OA     -0.072400
      4 C12        -0.0690    1.5110    0.0440 c3        1 4OA     -0.065400
      5 C13        -0.7930    0.2440   -0.3820 c3        1 4OA     -0.047000
      6 C14         0.0990   -0.9430    0.0650 c3        1 4OA     -0.067700
      7 C15        -0.8120   -2.1550   -0.0520 c3        1 4OA     -0.073400
      8 C16        -2.2040   -1.6180    0.2900 c3        1 4OA     -0.080400
      9 C17        -2.1070   -0.0800    0.3740 c3        1 4OA     -0.047700
     10 C18        -1.0500    0.2550   -1.8790 c3        1 4OA     -0.080100
     11 C19         3.4580    0.4880   -2.4500 c3        1 4OA     -0.087100
     12 O1B         5.9040    0.2850    2.6550 oh        1 4OA     -0.602800
     13 C2          4.7570    1.6280    0.9710 c3        1 4OA     -0.112400
     14 C20        -3.3830    0.5970   -0.1130 c3        1 4OA     -0.061700
     15 C21        -3.2720    2.1080   -0.0520 c3        1 4OA     -0.086100
     16 C22        -4.5770    0.1360    0.7230 c3        1 4OA     -0.068400
     17 C23        -5.9040    0.4320    0.0670 c3        1 4OA     -0.195400
     18 C24        -7.0510   -0.3260    0.7620 c         1 4OA      0.907600
     19 C3          5.5900    0.3870    1.2700 c3        1 4OA      0.141100
     20 C4          4.8160   -0.8720    0.9020 c3        1 4OA     -0.073400
     21 O4         -8.1220    0.3070    0.9870 o         1 4OA     -0.851800
     22 O4A        -6.8790   -1.5450    1.0560 o         1 4OA     -0.851800
     23 C5          4.3830   -0.8520   -0.5560 c3        1 4OA     -0.050700
     24 C6          3.6280   -2.1310   -0.8880 c3        1 4OA     -0.070400
     25 C7          2.2510   -2.1710   -0.2640 c3        1 4OA     -0.074400
     26 C8          1.4350   -0.9490   -0.6490 c3        1 4OA     -0.046700
     27 C9          2.1790    0.3420   -0.2680 c3        1 4OA     -0.046700
     28 H1          5.2860    1.7090   -1.1120 hc        1 4OA      0.039200
     29 H1A         3.7550    2.5670   -0.6960 hc        1 4OA      0.039200
     30 H11         1.2480    1.7300   -1.6590 hc        1 4OA      0.033200
     31 H11A        1.8410    2.4780   -0.1230 hc        1 4OA      0.033200
     32 H12        -0.0040    1.5420    1.1640 hc        1 4OA      0.041700
     33 H12A       -0.6440    2.4150   -0.2830 hc        1 4OA      0.041700
     34 H14         0.3140   -0.8020    1.1660 hc        1 4OA      0.043700
     35 H15        -0.7880   -2.5760   -1.0870 hc        1 4OA      0.033200
     36 H15A       -0.5000   -2.9660    0.6510 hc        1 4OA      0.033200
     37 H16        -2.9420   -1.9200   -0.4950 hc        1 4OA      0.056200
     38 H16A       -2.5600   -2.0320    1.2660 hc        1 4OA      0.056200
     39 H17        -1.9580    0.2130    1.4510 hc        1 4OA      0.041700
     40 H18        -0.1020    0.3340   -2.4610 hc        1 4OA      0.033033
     41 H18A       -1.5770   -0.6820   -2.1850 hc        1 4OA      0.033033
     42 H18B       -1.6930    1.1280   -2.1500 hc        1 4OA      0.033033
     43 H19         4.4710    0.4050   -2.9140 hc        1 4OA      0.033700
     44 H19A        2.8200   -0.3310   -2.8570 hc        1 4OA      0.033700
     45 H19B        3.0150    1.4660   -2.7530 hc        1 4OA      0.033700
     46 HO1B        6.2180    1.1530    2.9330 ho        1 4OA      0.395000
     47 H2          5.3530    2.5470    1.2080 hc        1 4OA      0.046200
     48 H2A         3.8510    1.6360    1.6310 hc        1 4OA      0.046200
     49 H20        -3.5660    0.2920   -1.1820 hc        1 4OA      0.043700
     50 H21        -2.8350    2.4320    0.9230 hc        1 4OA      0.025033
     51 H21A       -2.6300    2.5000   -0.8760 hc        1 4OA      0.025033
     52 H21B       -4.2860    2.5680   -0.1540 hc        1 4OA      0.025033
     53 H22        -4.5250   -0.9730    0.8970 hc        1 4OA      0.047700
     54 H22A       -4.5340    0.6310    1.7280 hc        1 4OA      0.047700
     55 H23        -6.1260    1.5280    0.0910 hc        1 4OA      0.019700
     56 H23A       -5.8860    0.1080   -1.0040 hc        1 4OA      0.019700
     57 H3          6.5550    0.4310    0.6870 h1        1 4OA      0.026700
     58 H4          5.4670   -1.7660    1.0870 hc        1 4OA      0.056200
     59 H4A         3.9270   -0.9630    1.5790 hc        1 4OA      0.056200
     60 H5          5.3210   -0.8330   -1.1840 hc        1 4OA      0.036700
     61 H6          3.5350   -2.2190   -2.0020 hc        1 4OA      0.035700
     62 H6A         4.2240   -3.0120   -0.5320 hc        1 4OA      0.035700
     63 H7          1.7110   -3.0940   -0.6040 hc        1 4OA      0.042700
     64 H7A         2.3380   -2.2320    0.8530 hc        1 4OA      0.042700
     65 H8          1.2640   -0.9760   -1.7590 hc        1 4OA      0.052700
     66 H9          2.3480    0.3070    0.8480 hc        1 4OA      0.047700
@<TRIPOS>BOND
     1    1    2 1   
     2    1   13 1   
     3    1   28 1   
     4    1   29 1   
     5    2   11 1   
     6    2   23 1   
     7    2   27 1   
     8    3    4 1   
     9    3   27 1   
    10    3   30 1   
    11    3   31 1   
    12    4    5 1   
    13    4   32 1   
    14    4   33 1   
    15    5    6 1   
    16    5    9 1   
    17    5   10 1   
    18    6    7 1   
    19    6   26 1   
    20    6   34 1   
    21    7    8 1   
    22    7   35 1   
    23    7   36 1   
    24    8    9 1   
    25    8   37 1   
    26    8   38 1   
    27    9   14 1   
    28    9   39 1   
    29   10   40 1   
    30   10   41 1   
    31   10   42 1   
    32   11   43 1   
    33   11   44 1   
    34   11   45 1   
    35   12   19 1   
    36   12   46 1   
    37   13   19 1   
    38   13   47 1   
    39   13   48 1   
    40   14   15 1   
    41   14   16 1   
    42   14   49 1   
    43   15   50 1   
    44   15   51 1   
    45   15   52 1   
    46   16   17 1   
    47   16   53 1   
    48   16   54 1   
    49   17   18 1   
    50   17   55 1   
    51   17   56 1   
    52   18   21 1   
    53   18   22 1   
    54   19   20 1   
    55   19   57 1   
    56   20   23 1   
    57   20   58 1   
    58   20   59 1   
    59   23   24 1   
    60   23   60 1   
    61   24   25 1   
    62   24   61 1   
    63   24   62 1   
    64   25   26 1   
    65   25   63 1   
    66   25   64 1   
    67   26   27 1   
    68   26   65 1   
    69   27   66 1   
@<TRIPOS>SUBSTRUCTURE
     1 4OA         1 TEMP              0 ****  ****    0 ROOT
