@<TRIPOS>MOLECULE
4OA
   66    69     1     0     0
SMALL
bcc


@<TRIPOS>ATOM
      1 C1         -2.3350   -2.2560   -0.6430 c3        1 4OA     -0.073400
      2 C10        -1.4750   -2.1400   -0.4550 c3        1 4OA     -0.036000
      3 C11        -1.5190    0.1140   -0.9150 c3        1 4OA     -0.066400
      4 C12        -0.5200    1.1440   -0.1550 c3        1 4OA     -0.065400
      5 C13         0.5760    1.2560   -1.3170 c3        1 4OA     -0.039000
      6 C14         1.1640    0.2320   -1.5880 c3        1 4OA     -0.050700
      7 C15         2.4730    0.3100   -0.8780 c3        1 4OA     -0.078400
      8 C16         2.7130    1.1240   -0.9410 c3        1 4OA     -0.081400
      9 C17         1.2840    1.9550   -1.1110 c3        1 4OA     -0.044700
     10 C18        -0.1670    1.7200   -2.6060 c3        1 4OA     -0.085100
     11 C19        -0.7750   -3.4190   -1.0130 c3        1 4OA     -0.088100
     12 O1B        -3.1760   -5.0900    2.0870 oh        1 4OA     -0.608800
     13 C2         -2.9590   -3.5490    0.0650 c3        1 4OA     -0.073400
     14 C20         0.9010    2.7760    0.3770 c3        1 4OA     -0.062700
     15 C21        -0.0110    3.8670    0.1120 c3        1 4OA     -0.088100
     16 C22         2.1070    3.2930    0.9630 c3        1 4OA     -0.067400
     17 C23         1.7660    4.0840    2.2070 c3        1 4OA     -0.195400
     18 C24         3.0380    4.6400    2.8160 c         1 4OA      0.907600
     19 C3         -2.7150   -3.5610    1.4560 c3        1 4OA      0.141100
     20 C4         -1.6750   -3.3950    1.6680 c3        1 4OA     -0.108400
     21 O4          3.7970    3.8850    3.4990 o         1 4OA     -0.851800
     22 O4A         3.3680    5.8320    2.6000 o         1 4OA     -0.851800
     23 C5         -1.1680   -2.1590    0.9660 c3        1 4OA     -0.050700
     24 C6          0.3760   -2.0560    1.0000 c3        1 4OA     -0.071400
     25 C7          0.8660   -1.0110    0.2880 c3        1 4OA     -0.074400
     26 C8          0.4150   -0.9780   -1.1160 c3        1 4OA     -0.040700
     27 C9         -0.9230   -1.0860   -1.2050 c3        1 4OA     -0.044700
     28 H1         -2.8290   -1.4700   -0.3510 hc        1 4OA      0.041700
     29 H1A        -2.4340   -2.3500   -1.6170 hc        1 4OA      0.041700
     30 H11        -2.2920   -0.0480   -0.3500 hc        1 4OA      0.028700
     31 H11A       -1.8220    0.5290   -1.7570 hc        1 4OA      0.028700
     32 H12        -0.9610    2.0180    0.0230 hc        1 4OA      0.045700
     33 H12A       -0.1480    0.7500    0.6520 hc        1 4OA      0.045700
     34 H14         1.3120    0.1780   -2.5510 hc        1 4OA      0.029700
     35 H15         3.1520   -0.2900   -1.3270 hc        1 4OA      0.045200
     36 H15A        2.3680    0.0640    0.0420 hc        1 4OA      0.045200
     37 H16         3.2850    1.2540   -1.7330 hc        1 4OA      0.048700
     38 H16A        3.1860    1.4110   -0.1220 hc        1 4OA      0.048700
     39 H17         1.3510    2.6090   -1.8590 hc        1 4OA      0.038700
     40 H18         0.4540    2.2410   -3.1750 hc        1 4OA      0.027033
     41 H18A       -0.9260    2.2770   -2.3600 hc        1 4OA      0.027033
     42 H18B       -0.4860    0.9330   -3.1040 hc        1 4OA      0.027033
     43 H19        -1.2990   -3.7720   -1.8090 hc        1 4OA      0.033700
     44 H19A       -0.7400   -4.1140   -0.3050 hc        1 4OA      0.033700
     45 H19B        0.1170   -3.1990   -1.2900 hc        1 4OA      0.033700
     46 HO1B       -3.8550   -4.9930    2.6100 ho        1 4OA      0.396000
     47 H2         -3.9140   -3.5580   -0.0870 hc        1 4OA      0.048200
     48 H2A        -2.5570   -4.3690   -0.3430 hc        1 4OA      0.048200
     49 H20         0.4760    2.1360    1.0080 hc        1 4OA      0.041700
     50 H21         0.3260    4.7000    0.5570 hc        1 4OA      0.026033
     51 H21A       -0.9070    3.6420    0.4680 hc        1 4OA      0.026033
     52 H21B       -0.0730    4.0150   -0.8600 hc        1 4OA      0.026033
     53 H22         2.5670    3.8870    0.3080 hc        1 4OA      0.047700
     54 H22A        2.7070    2.5390    1.2040 hc        1 4OA      0.047700
     55 H23         1.3200    3.4940    2.8600 hc        1 4OA      0.020200
     56 H23A        1.1710    4.8170    1.9730 hc        1 4OA      0.020200
     57 H3         -3.2430   -2.8670    1.8780 h1        1 4OA      0.031700
     58 H4         -1.5530   -3.2850    2.6510 hc        1 4OA      0.044700
     59 H4A        -1.1500   -4.1830    1.3610 hc        1 4OA      0.044700
     60 H5         -1.5490   -1.3770    1.3870 hc        1 4OA      0.051700
     61 H6          0.7480   -2.8780    0.6400 hc        1 4OA      0.037700
     62 H6A         0.6640   -1.9620    1.9330 hc        1 4OA      0.037700
     63 H7          0.5900   -0.1900    0.7170 hc        1 4OA      0.056200
     64 H7A         1.8310   -1.0550    0.3000 hc        1 4OA      0.056200
     65 H8          0.8130   -1.7870   -1.5880 hc        1 4OA      0.034700
     66 H9         -1.1250   -1.2780   -2.1440 hc        1 4OA      0.036700
@<TRIPOS>BOND
     1    1    2 1   
     2    1   13 1   
     3    1   28 1   
     4    1   29 1   
     5    2   11 1   
     6    2   23 1   
     7    2   27 1   
     8    3    4 1   
     9    3   27 1   
    10    3   30 1   
    11    3   31 1   
    12    4    5 1   
    13    4   32 1   
    14    4   33 1   
    15    5    6 1   
    16    5    9 1   
    17    5   10 1   
    18    6    7 1   
    19    6   26 1   
    20    6   34 1   
    21    7    8 1   
    22    7   35 1   
    23    7   36 1   
    24    8    9 1   
    25    8   37 1   
    26    8   38 1   
    27    9   14 1   
    28    9   39 1   
    29   10   40 1   
    30   10   41 1   
    31   10   42 1   
    32   11   43 1   
    33   11   44 1   
    34   11   45 1   
    35   12   19 1   
    36   12   46 1   
    37   13   19 1   
    38   13   47 1   
    39   13   48 1   
    40   14   15 1   
    41   14   16 1   
    42   14   49 1   
    43   15   50 1   
    44   15   51 1   
    45   15   52 1   
    46   16   17 1   
    47   16   53 1   
    48   16   54 1   
    49   17   18 1   
    50   17   55 1   
    51   17   56 1   
    52   18   21 1   
    53   18   22 1   
    54   19   20 1   
    55   19   57 1   
    56   20   23 1   
    57   20   58 1   
    58   20   59 1   
    59   23   24 1   
    60   23   60 1   
    61   24   25 1   
    62   24   61 1   
    63   24   62 1   
    64   25   26 1   
    65   25   63 1   
    66   25   64 1   
    67   26   27 1   
    68   26   65 1   
    69   27   66 1   
@<TRIPOS>SUBSTRUCTURE
     1 4OA         1 TEMP              0 ****  ****    0 ROOT
