@<TRIPOS>MOLECULE
4OA
   66    69     1     0     0
SMALL
bcc


@<TRIPOS>ATOM
      1 C1         -0.0550   -0.0840    0.2120 c3        1 4OA     -0.068400
      2 C10         1.4770   -0.0090    0.1500 c3        1 4OA     -0.035000
      3 C11         1.5270   -1.0480   -2.1830 c3        1 4OA     -0.072400
      4 C12         2.1380   -2.0850   -3.1140 c3        1 4OA     -0.065400
      5 C13         3.6560   -2.0070   -3.1060 c3        1 4OA     -0.047000
      6 C14         4.0980   -2.1980   -1.6320 c3        1 4OA     -0.067700
      7 C15         5.5910   -2.4710   -1.7260 c3        1 4OA     -0.073400
      8 C16         5.7560   -3.2300   -3.0450 c3        1 4OA     -0.080400
      9 C17         4.4040   -3.1810   -3.7870 c3        1 4OA     -0.047700
     10 C18         4.1250   -0.6870   -3.6940 c3        1 4OA     -0.080100
     11 C19         1.8180    1.3880   -0.3650 c3        1 4OA     -0.087100
     12 O1B        -0.4260   -2.5910    2.9830 oh        1 4OA     -0.602800
     13 C2         -0.5810   -1.3160    0.9090 c3        1 4OA     -0.112400
     14 C20         4.5890   -3.1130   -5.2990 c3        1 4OA     -0.061700
     15 C21         3.2580   -3.0410   -6.0220 c3        1 4OA     -0.086100
     16 C22         5.3730   -4.3300   -5.7900 c3        1 4OA     -0.068400
     17 C23         5.9400   -4.1440   -7.1770 c3        1 4OA     -0.195400
     18 C24         6.9830   -5.2310   -7.5020 c         1 4OA      0.907600
     19 C3         -0.0300   -1.3910    2.3280 c3        1 4OA      0.141100
     20 C4          1.4930   -1.3850    2.3070 c3        1 4OA     -0.073400
     21 O4          6.9340   -5.7650   -8.6470 o         1 4OA     -0.851800
     22 O4A         7.8460   -5.5230   -6.6250 o         1 4OA     -0.851800
     23 C5          2.0330   -0.1600    1.5830 c3        1 4OA     -0.050700
     24 C6          3.5540   -0.1830    1.5960 c3        1 4OA     -0.070400
     25 C7          4.1280   -1.2370    0.6760 c3        1 4OA     -0.074400
     26 C8          3.6050   -1.0770   -0.7410 c3        1 4OA     -0.046700
     27 C9          2.0660   -1.1030   -0.7580 c3        1 4OA     -0.046700
     28 H1         -0.4760   -0.0310   -0.8250 hc        1 4OA      0.039200
     29 H1A        -0.4250    0.8240    0.7620 hc        1 4OA      0.039200
     30 H11         1.6970   -0.0260   -2.6110 hc        1 4OA      0.033200
     31 H11A        0.4180   -1.2220   -2.1600 hc        1 4OA      0.033200
     32 H12         1.8170   -3.1120   -2.7970 hc        1 4OA      0.041700
     33 H12A        1.7460   -1.9170   -4.1500 hc        1 4OA      0.041700
     34 H14         3.6160   -3.1510   -1.2610 hc        1 4OA      0.043700
     35 H15         5.9480   -3.0750   -0.8570 hc        1 4OA      0.033200
     36 H15A        6.1730   -1.5160   -1.7370 hc        1 4OA      0.033200
     37 H16         6.0510   -4.2920   -2.8570 hc        1 4OA      0.056200
     38 H16A        6.5600   -2.7610   -3.6660 hc        1 4OA      0.056200
     39 H17         3.8340   -4.1240   -3.5580 hc        1 4OA      0.041700
     40 H18         3.7800   -0.5960   -4.7530 hc        1 4OA      0.033033
     41 H18A        3.7230    0.1850   -3.1260 hc        1 4OA      0.033033
     42 H18B        5.2410   -0.6350   -3.6790 hc        1 4OA      0.033033
     43 H19         2.9150    1.5030   -0.5300 hc        1 4OA      0.033700
     44 H19A        1.2930    1.5830   -1.3310 hc        1 4OA      0.033700
     45 H19B        1.4920    2.1610    0.3720 hc        1 4OA      0.033700
     46 HO1B       -1.3720   -2.6930    2.8300 ho        1 4OA      0.395000
     47 H2         -1.7020   -1.2800    0.9420 hc        1 4OA      0.046200
     48 H2A        -0.2910   -2.2420    0.3470 hc        1 4OA      0.046200
     49 H20         5.1840   -2.1890   -5.5480 hc        1 4OA      0.043700
     50 H21         2.8030   -2.0250   -5.9310 hc        1 4OA      0.025033
     51 H21A        3.4020   -3.2590   -7.1090 hc        1 4OA      0.025033
     52 H21B        2.5420   -3.7890   -5.6050 hc        1 4OA      0.025033
     53 H22         4.7040   -5.2290   -5.7730 hc        1 4OA      0.047700
     54 H22A        6.2330   -4.5440   -5.0980 hc        1 4OA      0.047700
     55 H23         5.1300   -4.1750   -7.9470 hc        1 4OA      0.019700
     56 H23A        6.4520   -3.1520   -7.2540 hc        1 4OA      0.019700
     57 H3         -0.4110   -0.5140    2.9270 h1        1 4OA      0.026700
     58 H4          1.8530   -2.3270    1.8160 hc        1 4OA      0.056200
     59 H4A         1.8720   -1.3930    3.3610 hc        1 4OA      0.056200
     60 H5          1.6970    0.7480    2.1630 hc        1 4OA      0.036700
     61 H6          3.9100   -0.3700    2.6430 hc        1 4OA      0.035700
     62 H6A         3.9360    0.8270    1.2890 hc        1 4OA      0.035700
     63 H7          3.8740   -2.2600    1.0590 hc        1 4OA      0.042700
     64 H7A         5.2470   -1.1570    0.6630 hc        1 4OA      0.042700
     65 H8          3.9720   -0.0930   -1.1430 hc        1 4OA      0.052700
     66 H9          1.7500   -2.0960   -0.3230 hc        1 4OA      0.047700
@<TRIPOS>BOND
     1    1    2 1   
     2    1   13 1   
     3    1   28 1   
     4    1   29 1   
     5    2   11 1   
     6    2   23 1   
     7    2   27 1   
     8    3    4 1   
     9    3   27 1   
    10    3   30 1   
    11    3   31 1   
    12    4    5 1   
    13    4   32 1   
    14    4   33 1   
    15    5    6 1   
    16    5    9 1   
    17    5   10 1   
    18    6    7 1   
    19    6   26 1   
    20    6   34 1   
    21    7    8 1   
    22    7   35 1   
    23    7   36 1   
    24    8    9 1   
    25    8   37 1   
    26    8   38 1   
    27    9   14 1   
    28    9   39 1   
    29   10   40 1   
    30   10   41 1   
    31   10   42 1   
    32   11   43 1   
    33   11   44 1   
    34   11   45 1   
    35   12   19 1   
    36   12   46 1   
    37   13   19 1   
    38   13   47 1   
    39   13   48 1   
    40   14   15 1   
    41   14   16 1   
    42   14   49 1   
    43   15   50 1   
    44   15   51 1   
    45   15   52 1   
    46   16   17 1   
    47   16   53 1   
    48   16   54 1   
    49   17   18 1   
    50   17   55 1   
    51   17   56 1   
    52   18   21 1   
    53   18   22 1   
    54   19   20 1   
    55   19   57 1   
    56   20   23 1   
    57   20   58 1   
    58   20   59 1   
    59   23   24 1   
    60   23   60 1   
    61   24   25 1   
    62   24   61 1   
    63   24   62 1   
    64   25   26 1   
    65   25   63 1   
    66   25   64 1   
    67   26   27 1   
    68   26   65 1   
    69   27   66 1   
@<TRIPOS>SUBSTRUCTURE
     1 4OA         1 TEMP              0 ****  ****    0 ROOT
