@<TRIPOS>MOLECULE
4OA
   66    69     1     0     0
SMALL
bcc


@<TRIPOS>ATOM
      1 C1         -0.0530   -0.0850    0.2160 c3        1 4OA     -0.068400
      2 C10         1.4790   -0.0100    0.1520 c3        1 4OA     -0.035000
      3 C11         1.5260   -1.0490   -2.1810 c3        1 4OA     -0.072400
      4 C12         2.1360   -2.0860   -3.1120 c3        1 4OA     -0.065400
      5 C13         3.6550   -2.0070   -3.1070 c3        1 4OA     -0.047000
      6 C14         4.0980   -2.1970   -1.6330 c3        1 4OA     -0.067700
      7 C15         5.5920   -2.4700   -1.7290 c3        1 4OA     -0.073400
      8 C16         5.7560   -3.2280   -3.0480 c3        1 4OA     -0.080400
      9 C17         4.4020   -3.1810   -3.7890 c3        1 4OA     -0.047700
     10 C18         4.1220   -0.6870   -3.6960 c3        1 4OA     -0.080100
     11 C19         1.8190    1.3870   -0.3640 c3        1 4OA     -0.087100
     12 O1B        -0.4190   -2.5930    2.9870 oh        1 4OA     -0.602800
     13 C2         -0.5780   -1.3180    0.9140 c3        1 4OA     -0.112400
     14 C20         4.5850   -3.1120   -5.3010 c3        1 4OA     -0.061700
     15 C21         3.2530   -3.0410   -6.0220 c3        1 4OA     -0.086100
     16 C22         5.3690   -4.3290   -5.7920 c3        1 4OA     -0.068400
     17 C23         5.9340   -4.1440   -7.1800 c3        1 4OA     -0.195400
     18 C24         6.9760   -5.2300   -7.5070 c         1 4OA      0.907600
     19 C3         -0.0250   -1.3920    2.3320 c3        1 4OA      0.141100
     20 C4          1.4980   -1.3860    2.3080 c3        1 4OA     -0.073400
     21 O4          6.9270   -5.7640   -8.6520 o         1 4OA     -0.851800
     22 O4A         7.8410   -5.5220   -6.6300 o         1 4OA     -0.851800
     23 C5          2.0360   -0.1610    1.5840 c3        1 4OA     -0.050700
     24 C6          3.5580   -0.1830    1.5950 c3        1 4OA     -0.070400
     25 C7          4.1310   -1.2360    0.6740 c3        1 4OA     -0.074400
     26 C8          3.6060   -1.0760   -0.7420 c3        1 4OA     -0.046700
     27 C9          2.0670   -1.1030   -0.7570 c3        1 4OA     -0.046700
     28 H1         -0.4230    0.8220    0.7670 hc        1 4OA      0.039200
     29 H1A        -0.4750   -0.0330   -0.8200 hc        1 4OA      0.039200
     30 H11         1.6950   -0.0270   -2.6090 hc        1 4OA      0.033200
     31 H11A        0.4170   -1.2240   -2.1560 hc        1 4OA      0.033200
     32 H12         1.7430   -1.9180   -4.1480 hc        1 4OA      0.041700
     33 H12A        1.8170   -3.1130   -2.7950 hc        1 4OA      0.041700
     34 H14         3.6170   -3.1500   -1.2610 hc        1 4OA      0.043700
     35 H15         5.9500   -3.0740   -0.8610 hc        1 4OA      0.033200
     36 H15A        6.1730   -1.5140   -1.7410 hc        1 4OA      0.033200
     37 H16         6.5580   -2.7590   -3.6710 hc        1 4OA      0.056200
     38 H16A        6.0510   -4.2900   -2.8610 hc        1 4OA      0.056200
     39 H17         3.8330   -4.1240   -3.5590 hc        1 4OA      0.041700
     40 H18         3.7760   -0.5960   -4.7540 hc        1 4OA      0.033033
     41 H18A        5.2380   -0.6340   -3.6820 hc        1 4OA      0.033033
     42 H18B        3.7200    0.1850   -3.1270 hc        1 4OA      0.033033
     43 H19         1.4920    2.1610    0.3730 hc        1 4OA      0.033700
     44 H19A        2.9150    1.5030   -0.5300 hc        1 4OA      0.033700
     45 H19B        1.2920    1.5820   -1.3290 hc        1 4OA      0.033700
     46 HO1B       -1.3650   -2.6950    2.8350 ho        1 4OA      0.395000
     47 H2         -0.2880   -2.2430    0.3510 hc        1 4OA      0.046200
     48 H2A        -1.6980   -1.2830    0.9480 hc        1 4OA      0.046200
     49 H20         5.1790   -2.1890   -5.5510 hc        1 4OA      0.043700
     50 H21         3.3960   -3.2590   -7.1090 hc        1 4OA      0.025033
     51 H21A        2.7980   -2.0260   -5.9310 hc        1 4OA      0.025033
     52 H21B        2.5380   -3.7890   -5.6040 hc        1 4OA      0.025033
     53 H22         4.7000   -5.2280   -5.7750 hc        1 4OA      0.047700
     54 H22A        6.2300   -4.5430   -5.1020 hc        1 4OA      0.047700
     55 H23         5.1230   -4.1750   -7.9500 hc        1 4OA      0.019700
     56 H23A        6.4460   -3.1510   -7.2590 hc        1 4OA      0.019700
     57 H3         -0.4060   -0.5160    2.9320 h1        1 4OA      0.026700
     58 H4          1.8790   -1.3930    3.3630 hc        1 4OA      0.056200
     59 H4A         1.8580   -2.3270    1.8180 hc        1 4OA      0.056200
     60 H5          1.7010    0.7470    2.1650 hc        1 4OA      0.036700
     61 H6          3.9150   -0.3690    2.6420 hc        1 4OA      0.035700
     62 H6A         3.9380    0.8270    1.2880 hc        1 4OA      0.035700
     63 H7          3.8780   -2.2600    1.0580 hc        1 4OA      0.042700
     64 H7A         5.2500   -1.1560    0.6600 hc        1 4OA      0.042700
     65 H8          3.9720   -0.0920   -1.1440 hc        1 4OA      0.052700
     66 H9          1.7530   -2.0970   -0.3210 hc        1 4OA      0.047700
@<TRIPOS>BOND
     1    1    2 1   
     2    1   13 1   
     3    1   28 1   
     4    1   29 1   
     5    2   11 1   
     6    2   23 1   
     7    2   27 1   
     8    3    4 1   
     9    3   27 1   
    10    3   30 1   
    11    3   31 1   
    12    4    5 1   
    13    4   32 1   
    14    4   33 1   
    15    5    6 1   
    16    5    9 1   
    17    5   10 1   
    18    6    7 1   
    19    6   26 1   
    20    6   34 1   
    21    7    8 1   
    22    7   35 1   
    23    7   36 1   
    24    8    9 1   
    25    8   37 1   
    26    8   38 1   
    27    9   14 1   
    28    9   39 1   
    29   10   40 1   
    30   10   41 1   
    31   10   42 1   
    32   11   43 1   
    33   11   44 1   
    34   11   45 1   
    35   12   19 1   
    36   12   46 1   
    37   13   19 1   
    38   13   47 1   
    39   13   48 1   
    40   14   15 1   
    41   14   16 1   
    42   14   49 1   
    43   15   50 1   
    44   15   51 1   
    45   15   52 1   
    46   16   17 1   
    47   16   53 1   
    48   16   54 1   
    49   17   18 1   
    50   17   55 1   
    51   17   56 1   
    52   18   21 1   
    53   18   22 1   
    54   19   20 1   
    55   19   57 1   
    56   20   23 1   
    57   20   58 1   
    58   20   59 1   
    59   23   24 1   
    60   23   60 1   
    61   24   25 1   
    62   24   61 1   
    63   24   62 1   
    64   25   26 1   
    65   25   63 1   
    66   25   64 1   
    67   26   27 1   
    68   26   65 1   
    69   27   66 1   
@<TRIPOS>SUBSTRUCTURE
     1 4OA         1 TEMP              0 ****  ****    0 ROOT
