@<TRIPOS>MOLECULE
4OB
   32    33     1     0     0
SMALL
bcc


@<TRIPOS>ATOM
      1 FAB         0.2270   -0.8420   -0.8680 f         1 4OB     -0.219967
      2 CAT         1.5670   -0.5620   -0.8210 c3        1 4OB      0.690200
      3 FAC         2.0390   -1.2620    0.2610 f         1 4OB     -0.219967
      4 FAD         2.1010   -1.2060   -1.9100 f         1 4OB     -0.219967
      5 CAS         1.8970    0.9310   -0.7680 ca        1 4OB     -0.167300
      6 CAM         3.1600    1.3600   -1.1800 ca        1 4OB     -0.049000
      7 CAL         0.9500    1.8450   -0.2980 ca        1 4OB     -0.031000
      8 CAH         1.2700    3.2030   -0.2390 ca        1 4OB     -0.124000
      9 CAK         2.5280    3.6470   -0.6410 ca        1 4OB     -0.069000
     10 CAR         3.4710    2.7230   -1.1140 ca        1 4OB     -0.242900
     11 CAP         4.7950    3.1880   -1.5610 ce        1 4OB      0.523800
     12 NAN         5.7300    3.3500   -0.3580 ny        1 4OB     -0.515500
     13 OAA         6.2590    4.5850   -0.2050 oh        1 4OB     -0.366300
     14 NAO         5.3270    3.4690   -2.6930 nf        1 4OB     -0.525100
     15 CAQ         4.7730    3.4170   -3.9700 ca        1 4OB      0.081400
     16 CAI         3.4300    3.0750   -4.2580 ca        1 4OB     -0.072500
     17 CAF         2.9770    3.0600   -5.5720 ca        1 4OB     -0.132500
     18 CAE         3.8410    3.3800   -6.6210 ca        1 4OB     -0.055000
     19 CAG         5.1680    3.7190   -6.3520 ca        1 4OB     -0.132500
     20 CAJ         5.6430    3.7420   -5.0450 ca        1 4OB     -0.072500
     21 H1          3.8880    0.6260   -1.5650 ha        1 4OB      0.168000
     22 H2         -0.0480    1.4910    0.0180 ha        1 4OB      0.183000
     23 H3          0.5220    3.9270    0.1270 ha        1 4OB      0.174000
     24 H4          2.7720    4.7210   -0.6000 ha        1 4OB      0.160000
     25 H5          6.4890    2.6450   -0.4070 hn        1 4OB      0.479300
     26 H6          6.6750    4.8730   -1.0500 ho        1 4OB      0.484000
     27 H7          2.7320    2.8190   -3.4440 ha        1 4OB      0.151500
     28 H8          1.9290    2.7920   -5.7850 ha        1 4OB      0.162500
     29 H9          3.4750    3.3650   -7.6610 ha        1 4OB      0.164000
     30 H10         5.8500    3.9710   -7.1810 ha        1 4OB      0.162500
     31 H11         6.6940    4.0120   -4.8540 ha        1 4OB      0.151500
     32 HAN2        5.1650    3.1890    0.5030 hn        1 4OB      0.479300
@<TRIPOS>BOND
     1    1    2 1   
     2    2    3 1   
     3    2    4 1   
     4    2    5 1   
     5    5    6 ar  
     6    5    7 ar  
     7    6   10 ar  
     8    6   21 1   
     9    7    8 ar  
    10    7   22 1   
    11    8    9 ar  
    12    8   23 1   
    13    9   10 ar  
    14    9   24 1   
    15   10   11 1   
    16   11   12 1   
    17   11   14 2   
    18   12   13 1   
    19   12   25 1   
    20   12   32 1   
    21   13   26 1   
    22   14   15 1   
    23   15   16 ar  
    24   15   20 ar  
    25   16   17 ar  
    26   16   27 1   
    27   17   18 ar  
    28   17   28 1   
    29   18   19 ar  
    30   18   29 1   
    31   19   20 ar  
    32   19   30 1   
    33   20   31 1   
@<TRIPOS>SUBSTRUCTURE
     1 4OB         1 TEMP              0 ****  ****    0 ROOT
