@<TRIPOS>MOLECULE
4OB
   32    33     1     0     0
SMALL
bcc


@<TRIPOS>ATOM
      1 FAB         0.2410   -0.8650   -0.8780 f         1 4OB     -0.219967
      2 CAT         1.5820   -0.5830   -0.8390 c3        1 4OB      0.690200
      3 FAC         2.0620   -1.2920    0.2340 f         1 4OB     -0.219967
      4 FAD         2.1100   -1.2140   -1.9360 f         1 4OB     -0.219967
      5 CAS         1.9080    0.9110   -0.7720 ca        1 4OB     -0.167300
      6 CAM         3.1670    1.3470   -1.1880 ca        1 4OB     -0.049000
      7 CAL         0.9620    1.8180   -0.2890 ca        1 4OB     -0.031000
      8 CAH         1.2790    3.1770   -0.2180 ca        1 4OB     -0.124000
      9 CAK         2.5330    3.6270   -0.6240 ca        1 4OB     -0.069000
     10 CAR         3.4760    2.7100   -1.1110 ca        1 4OB     -0.242900
     11 CAP         4.7960    3.1830   -1.5610 ce        1 4OB      0.523800
     12 NAN         5.7380    3.3370   -0.3630 n4        1 4OB     -0.515500
     13 OAA         6.2640    4.5720   -0.2010 oh        1 4OB     -0.366300
     14 NAO         5.3210    3.4750   -2.6940 nf        1 4OB     -0.525100
     15 CAQ         4.7590    3.4330   -3.9680 ca        1 4OB      0.081400
     16 CAI         3.4150    3.0910   -4.2520 ca        1 4OB     -0.072500
     17 CAF         2.9550    3.0870   -5.5620 ca        1 4OB     -0.132500
     18 CAE         3.8120    3.4180   -6.6140 ca        1 4OB     -0.055000
     19 CAG         5.1400    3.7570   -6.3490 ca        1 4OB     -0.132500
     20 CAJ         5.6220    3.7700   -5.0460 ca        1 4OB     -0.072500
     21 H1          3.8950    0.6190   -1.5850 ha        1 4OB      0.168000
     22 H2         -0.0330    1.4590    0.0310 ha        1 4OB      0.183000
     23 H3          0.5320    3.8950    0.1600 ha        1 4OB      0.174000
     24 H4          2.7750    4.7020   -0.5730 ha        1 4OB      0.160000
     25 H5          6.4990    2.6340   -0.4220 hn        1 4OB      0.479300
     26 H6          6.6740    4.8680   -1.0460 ho        1 4OB      0.484000
     27 H7          2.7230    2.8280   -3.4360 ha        1 4OB      0.151500
     28 H8          1.9060    2.8200   -5.7710 ha        1 4OB      0.162500
     29 H9          3.4400    3.4110   -7.6520 ha        1 4OB      0.164000
     30 H10         5.8160    4.0180   -7.1800 ha        1 4OB      0.162500
     31 H11         6.6740    4.0390   -4.8570 ha        1 4OB      0.151500
     32 HAN2        5.1780    3.1670    0.5000 hn        1 4OB      0.479300
@<TRIPOS>BOND
     1    1    2 1   
     2    2    3 1   
     3    2    4 1   
     4    2    5 1   
     5    5    6 ar  
     6    5    7 ar  
     7    6   10 ar  
     8    6   21 1   
     9    7    8 ar  
    10    7   22 1   
    11    8    9 ar  
    12    8   23 1   
    13    9   10 ar  
    14    9   24 1   
    15   10   11 1   
    16   11   12 1   
    17   11   14 2   
    18   12   13 1   
    19   12   25 1   
    20   12   32 1   
    21   13   26 1   
    22   14   15 1   
    23   15   16 ar  
    24   15   20 ar  
    25   16   17 ar  
    26   16   27 1   
    27   17   18 ar  
    28   17   28 1   
    29   18   19 ar  
    30   18   29 1   
    31   19   20 ar  
    32   19   30 1   
    33   20   31 1   
@<TRIPOS>SUBSTRUCTURE
     1 4OB         1 TEMP              0 ****  ****    0 ROOT
