@<TRIPOS>MOLECULE
4OC
   39    40     1     0     0
SMALL
bcc


@<TRIPOS>ATOM
      1 P           3.8570   -0.7150   -3.7800 p5        1 4OC      1.428800
      2 OP1         5.2500   -1.0520   -4.1480 o         1 4OC     -0.844000
      3 OP2         2.8320   -1.6390   -3.2530 o         1 4OC     -0.844000
      4 O5'         3.9110    0.6120   -2.8050 os        1 4OC     -0.586200
      5 CM2         0.0560   -1.7050    1.6930 c3        1 4OC      0.122700
      6 C5'         2.7160    1.0300   -2.2150 c3        1 4OC      0.181400
      7 C4'         2.8090    0.8930   -0.6870 c3        1 4OC      0.092100
      8 O4'         2.2290    2.0430   -0.0570 os        1 4OC     -0.430600
      9 C3'         2.0960   -0.3600   -0.1500 c3        1 4OC      0.079100
     10 C2'         0.7890    0.1800    0.4650 c3        1 4OC      0.066100
     11 O2'         0.5580   -0.3820    1.7590 os        1 4OC     -0.425600
     12 C1'         1.0410    1.7010    0.6950 c3        1 4OC      0.321500
     13 N1         -0.0820    2.5480    0.3440 n         1 4OC     -0.329400
     14 C2         -0.2800    3.7690    1.0850 c         1 4OC      0.755500
     15 O2          0.4950    4.0460    2.0430 o         1 4OC     -0.700100
     16 N3         -1.3470    4.6140    0.7700 ne        1 4OC     -0.799100
     17 C4         -2.1650    4.2490   -0.2510 cf        1 4OC      0.679500
     18 N4         -3.2140    5.1310   -0.6570 nh        1 4OC     -0.798200
     19 C5         -2.0060    3.0260   -0.9610 cf        1 4OC     -0.588700
     20 C6         -0.9320    2.1760   -0.6510 c1        1 4OC     -0.098900
     21 CM4        -3.6390    6.1650    0.2400 c3        1 4OC      0.186100
     22 O3'         2.8810   -1.0340    0.8190 oh        1 4OC     -0.602800
     23 OP3         3.2970    0.0210   -5.1310 oh        1 4OC     -0.781400
     24 HM41       -4.0550    5.7800    1.2120 h1        1 4OC      0.017367
     25 HM42       -4.4380    6.7710   -0.2680 h1        1 4OC      0.017367
     26 HM43       -2.7710    6.8350    0.4760 h1        1 4OC      0.017367
     27 HN4        -3.9840    4.6010   -1.0140 hn        1 4OC      0.366800
     28 H5         -2.6800    2.7370   -1.7710 ha        1 4OC      0.111000
     29 H6          4.0090    0.3590   -5.6600 ho        1 4OC      0.417000
     30 H1'         1.3080    1.9020    1.7770 h2        1 4OC      0.084700
     31 H4'         3.8920    0.8960   -0.3790 h1        1 4OC      0.068700
     32 H5'         2.5670    2.1200   -2.4580 h1        1 4OC      0.046700
     33 H5''        1.8520    0.4330   -2.6170 h1        1 4OC      0.046700
     34 H3'         1.9250   -1.1230   -0.9610 h1        1 4OC      0.138700
     35 HO3'        2.9190   -0.4600    1.5940 ho        1 4OC      0.392000
     36 H2'        -0.0870    0.0030   -0.2160 h1        1 4OC      0.118700
     37 HM21        0.7850   -2.3710    1.1680 h1        1 4OC      0.024700
     38 HM22       -0.9310   -1.7250    1.1670 h1        1 4OC      0.024700
     39 HM23       -0.0660   -2.0140    2.7600 h1        1 4OC      0.024700
@<TRIPOS>BOND
     1    1    2 1   
     2    1    3 1   
     3    1    4 1   
     4    1   23 1   
     5    4    6 1   
     6    5   11 1   
     7    5   37 1   
     8    5   38 1   
     9    5   39 1   
    10    6    7 1   
    11    6   32 1   
    12    6   33 1   
    13    7    8 1   
    14    7    9 1   
    15    7   31 1   
    16    8   12 1   
    17    9   10 1   
    18    9   22 1   
    19    9   34 1   
    20   10   11 1   
    21   10   12 1   
    22   10   36 1   
    23   12   13 1   
    24   12   30 1   
    25   13   14 1   
    26   13   20 2   
    27   14   15 2   
    28   14   16 1   
    29   16   17 2   
    30   17   18 1   
    31   17   19 1   
    32   18   21 1   
    33   18   27 1   
    34   19   20 2   
    35   19   28 1   
    36   21   24 1   
    37   21   25 1   
    38   21   26 1   
    39   22   35 1   
    40   23   29 1   
@<TRIPOS>SUBSTRUCTURE
     1 4OC         1 TEMP              0 ****  ****    0 ROOT
