@<TRIPOS>MOLECULE
4OC
   39    38     1     0     0
SMALL
bcc


@<TRIPOS>ATOM
      1 P           2.8620    2.6620    4.4130 p3        1 4OC      2.532000
      2 OP1         4.3490    2.4180    4.4420 o         1 4OC     -1.244667
      3 OP2         2.3330    2.7150    5.8260 o         1 4OC     -1.244667
      4 O5'         2.1480    1.4840    3.6250 o         1 4OC     -0.732000
      5 CM2         2.1430   -1.7550   -2.5500 c3        1 4OC     -0.066000
      6 C5'         2.3090    1.4170    2.2220 c3        1 4OC      0.071000
      7 C4'         1.8590    0.0330    1.7190 c3        1 4OC     -0.045000
      8 O4'         0.5720    0.0120    1.5550 os        1 4OC     -0.289000
      9 C3'         2.4460   -0.2450    0.3230 c3        1 4OC     -0.024000
     10 C2'         1.2520   -0.7180   -0.5420 c3        1 4OC     -0.008000
     11 O2'         1.6050   -1.9710   -1.2660 os        1 4OC     -0.276000
     12 C1'         0.2980   -0.9420    0.3000 c3        1 4OC      0.142000
     13 N1         -0.9690   -0.6250   -0.2940 n         1 4OC     -0.265000
     14 C2         -1.8830   -1.7010   -0.6830 c2        1 4OC      0.340000
     15 O2         -1.5830   -2.8630   -0.4610 o         1 4OC     -0.406000
     16 N3         -3.1710   -1.3830   -1.3040 n2        1 4OC     -0.328000
     17 C4         -3.5910   -0.0210   -1.4240 c1        1 4OC      0.182000
     18 N4         -4.9070    0.2850   -1.9300 n2        1 4OC     -0.289000
     19 C5         -2.7010    1.0660   -0.9670 c2        1 4OC     -0.369000
     20 C6         -1.3730    0.7430   -0.4290 c2        1 4OC      0.079000
     21 CM4        -5.6780   -0.7380   -2.6040 c3        1 4OC     -0.087000
     22 O3'         3.3870   -1.2160    0.3930 oh        1 4OC     -0.376000
     23 OP3         2.5800    3.9770    3.7200 o         1 4OC     -1.244667
     24 HM41       -5.2070   -1.0170   -3.4270 h1        1 4OC      0.067667
     25 HM42       -5.7830   -1.5120   -2.0100 h1        1 4OC      0.067667
     26 HM43       -6.5600   -0.3830   -2.8360 h1        1 4OC      0.067667
     27 HN4        -5.2700    1.1210   -1.7940 hn        1 4OC      0.195000
     28 H5         -2.9750    2.0050   -1.0720 ha        1 4OC      0.170000
     29 H6         -0.7770    1.4650   -0.1230 h4        1 4OC      0.302000
     30 H1'         0.3120   -1.8880    0.5830 h2        1 4OC      0.153000
     31 H4'         2.1330   -0.6650    2.3480 h1        1 4OC      0.091000
     32 H5'         1.7580    2.1190    1.7920 h1        1 4OC      0.036500
     33 H5''        3.2460    1.5550    1.9970 h1        1 4OC      0.036500
     34 H3'         2.8290    0.5710   -0.0500 h1        1 4OC      0.189000
     35 HO3'        4.1990   -0.8620    0.2180 ho        1 4OC      0.282000
     36 H2'         0.9930   -0.0250   -1.1700 h1        1 4OC      0.090000
     37 HM21        2.0900   -0.8030   -2.7700 h1        1 4OC      0.066000
     38 HM22        1.6350   -2.2690   -3.2060 h1        1 4OC      0.066000
     39 HM23        3.0920   -2.0470   -2.5640 h1        1 4OC      0.066000
@<TRIPOS>BOND
     1    1    2 1   
     2    1    3 1   
     3    1   23 1   
     4    4    6 1   
     5    5   11 1   
     6    5   37 1   
     7    5   38 1   
     8    5   39 1   
     9    6    7 1   
    10    6   32 1   
    11    6   33 1   
    12    7    8 1   
    13    7    9 1   
    14    7   31 1   
    15    8   12 1   
    16    9   10 1   
    17    9   22 1   
    18    9   34 1   
    19   10   11 1   
    20   10   12 1   
    21   10   36 1   
    22   12   13 1   
    23   12   30 1   
    24   13   14 1   
    25   13   20 1   
    26   14   15 1   
    27   14   16 1   
    28   16   17 1   
    29   17   19 1   
    30   18   21 1   
    31   18   27 1   
    32   19   20 1   
    33   19   28 1   
    34   20   29 1   
    35   21   24 1   
    36   21   25 1   
    37   21   26 1   
    38   22   35 1   
@<TRIPOS>SUBSTRUCTURE
     1 4OC         1 TEMP              0 ****  ****    0 ROOT
