@<TRIPOS>MOLECULE
4OD
   32    33     1     0     0
SMALL
bcc


@<TRIPOS>ATOM
      1 FAC        -0.0490    1.1580    1.2690 f         1 4OD     -0.214967
      2 CAV         1.1230    0.5810    0.8480 c3        1 4OD      0.699200
      3 FAD         1.9750    0.7000    1.9150 f         1 4OD     -0.214967
      4 FAE         0.8410   -0.7560    0.7550 f         1 4OD     -0.214967
      5 CAU         1.6770    1.1850   -0.4460 ca        1 4OD     -0.218300
      6 CAM         1.1090    2.3470   -0.9650 ca        1 4OD     -0.021000
      7 CAR         2.7660    0.5780   -1.1120 ca        1 4OD      0.243900
      8 FAB         3.3300   -0.5410   -0.6280 f         1 4OD     -0.078900
      9 CAJ         3.2680    1.1530   -2.3030 ca        1 4OD     -0.170000
     10 CAK         2.6920    2.3070   -2.8110 ca        1 4OD     -0.041000
     11 CAT         1.6120    2.9070   -2.1430 ca        1 4OD     -0.269900
     12 CAP         1.0180    4.1450   -2.6720 ce        1 4OD      0.532800
     13 NAO        -0.0080    3.8180   -3.7630 n4        1 4OD     -0.516500
     14 OAA         0.2530    4.3670   -4.9710 oh        1 4OD     -0.364300
     15 NAN         1.1550    5.3960   -2.4270 nf        1 4OD     -0.524100
     16 CAS         1.9790    6.0330   -1.5020 ca        1 4OD      0.084400
     17 CAL         1.8480    7.4450   -1.4210 ca        1 4OD     -0.027000
     18 CAQ         2.6360    8.1680   -0.5270 ca        1 4OD     -0.045900
     19 BRF         2.4530   10.0250   -0.4280 br        1 4OD     -0.020100
     20 CAH         3.5610    7.5100    0.2920 ca        1 4OD     -0.034000
     21 CAG         3.6960    6.1230    0.2150 ca        1 4OD     -0.127000
     22 CAI         2.9190    5.3830   -0.6670 ca        1 4OD     -0.092000
     23 H1          0.2660    2.8200   -0.4290 ha        1 4OD      0.174000
     24 H2          4.1190    0.6720   -2.8140 ha        1 4OD      0.190000
     25 H3          3.0940    2.7550   -3.7360 ha        1 4OD      0.166000
     26 H4          0.0200    2.7880   -3.9220 hn        1 4OD      0.480300
     27 H5          0.3750    5.3400   -4.8710 ho        1 4OD      0.485000
     28 H6          1.1200    7.9710   -2.0640 ha        1 4OD      0.169000
     29 H7          4.1860    8.0810    1.0010 ha        1 4OD      0.176000
     30 H8          4.4260    5.6100    0.8630 ha        1 4OD      0.167000
     31 H9          3.0430    4.2890   -0.7120 ha        1 4OD      0.147000
     32 HAO2       -0.9570    4.0920   -3.4470 hn        1 4OD      0.480300
@<TRIPOS>BOND
     1    1    2 1   
     2    2    3 1   
     3    2    4 1   
     4    2    5 1   
     5    5    6 ar  
     6    5    7 ar  
     7    6   11 ar  
     8    6   23 1   
     9    7    8 1   
    10    7    9 ar  
    11    9   10 ar  
    12    9   24 1   
    13   10   11 ar  
    14   10   25 1   
    15   11   12 1   
    16   12   13 1   
    17   12   15 2   
    18   13   14 1   
    19   13   26 1   
    20   13   32 1   
    21   14   27 1   
    22   15   16 1   
    23   16   17 ar  
    24   16   22 ar  
    25   17   18 ar  
    26   17   28 1   
    27   18   19 1   
    28   18   20 ar  
    29   20   21 ar  
    30   20   29 1   
    31   21   22 ar  
    32   21   30 1   
    33   22   31 1   
@<TRIPOS>SUBSTRUCTURE
     1 4OD         1 TEMP              0 ****  ****    0 ROOT
