@<TRIPOS>MOLECULE
4OD
   32    33     1     0     0
SMALL
bcc


@<TRIPOS>ATOM
      1 FAC        -0.0080    1.1530    1.2940 f         1 4OD     -0.214967
      2 CAV         1.1690    0.5870    0.8710 c3        1 4OD      0.699200
      3 FAD         2.0250    0.7230    1.9330 f         1 4OD     -0.214967
      4 FAE         0.9020   -0.7550    0.7880 f         1 4OD     -0.214967
      5 CAU         1.7100    1.1880   -0.4300 ca        1 4OD     -0.218300
      6 CAM         1.1270    2.3410   -0.9520 ca        1 4OD     -0.021000
      7 CAR         2.8010    0.5880   -1.0980 ca        1 4OD      0.243900
      8 FAB         3.3800   -0.5220   -0.6100 f         1 4OD     -0.078900
      9 CAJ         3.2910    1.1610   -2.2950 ca        1 4OD     -0.170000
     10 CAK         2.7000    2.3050   -2.8070 ca        1 4OD     -0.041000
     11 CAT         1.6180    2.8990   -2.1370 ca        1 4OD     -0.269900
     12 CAP         1.0080    4.1270   -2.6710 ce        1 4OD      0.532800
     13 NAO        -0.0210    3.7830   -3.7530 ny        1 4OD     -0.516500
     14 OAA         0.2280    4.3270   -4.9660 oh        1 4OD     -0.364300
     15 NAN         1.1340    5.3810   -2.4350 nf        1 4OD     -0.524100
     16 CAS         1.9580    6.0330   -1.5180 ca        1 4OD      0.084400
     17 CAL         1.8140    7.4440   -1.4480 ca        1 4OD     -0.027000
     18 CAQ         2.6000    8.1810   -0.5640 ca        1 4OD     -0.045900
     19 BrF         2.4000   10.0370   -0.4770 br        1 4OD     -0.020100
     20 CAH         3.5350    7.5370    0.2560 ca        1 4OD     -0.034000
     21 CAG         3.6820    6.1510    0.1880 ca        1 4OD     -0.127000
     22 CAI         2.9070    5.3980   -0.6840 ca        1 4OD     -0.092000
     23 H1          0.2820    2.8090   -0.4150 ha        1 4OD      0.174000
     24 H2          4.1450    0.6850   -2.8080 ha        1 4OD      0.190000
     25 H3          3.0920    2.7520   -3.7370 ha        1 4OD      0.166000
     26 H4         -0.9710    4.0500   -3.4330 hn        1 4OD      0.480300
     27 H5          0.3400    5.3010   -4.8740 ho        1 4OD      0.485000
     28 H6          1.0780    7.9590   -2.0900 ha        1 4OD      0.169000
     29 H7          4.1590    8.1190    0.9570 ha        1 4OD      0.176000
     30 H8          4.4210    5.6490    0.8360 ha        1 4OD      0.167000
     31 H9          3.0420    4.3040   -0.7220 ha        1 4OD      0.147000
     32 HAO2        0.0160    2.7530   -3.9060 hn        1 4OD      0.480300
@<TRIPOS>BOND
     1    1    2 1   
     2    2    3 1   
     3    2    4 1   
     4    2    5 1   
     5    5    6 ar  
     6    5    7 ar  
     7    6   11 ar  
     8    6   23 1   
     9    7    8 1   
    10    7    9 ar  
    11    9   10 ar  
    12    9   24 1   
    13   10   11 ar  
    14   10   25 1   
    15   11   12 1   
    16   12   13 1   
    17   12   15 2   
    18   13   14 1   
    19   13   26 1   
    20   13   32 1   
    21   14   27 1   
    22   15   16 1   
    23   16   17 ar  
    24   16   22 ar  
    25   17   18 ar  
    26   17   28 1   
    27   18   19 1   
    28   18   20 ar  
    29   20   21 ar  
    30   20   29 1   
    31   21   22 ar  
    32   21   30 1   
    33   22   31 1   
@<TRIPOS>SUBSTRUCTURE
     1 4OD         1 TEMP              0 ****  ****    0 ROOT
