@<TRIPOS>MOLECULE
4OE
   32    34     1     0     0
SMALL
bcc


@<TRIPOS>ATOM
      1 FAC         0.0060    0.4500    1.0200 f         1 4OE     -0.232300
      2 CAW         1.3350    0.2890    0.7100 c3        1 4OE      0.696200
      3 FAD         1.9740    0.3880    1.9210 f         1 4OE     -0.232300
      4 FAE         1.4400   -1.0400    0.3760 f         1 4OE     -0.232300
      5 CAU         1.8580    1.2440   -0.3570 ca        1 4OE     -0.205300
      6 CAM         0.9890    2.1420   -0.9740 ca        1 4OE     -0.059000
      7 CAQ         3.2200    1.2210   -0.7240 ca        1 4OE      0.172900
      8 FAB         4.0800    0.3590   -0.1390 f         1 4OE     -0.119900
      9 CAH         3.6870    2.1080   -1.7130 ca        1 4OE     -0.169000
     10 CAK         2.8080    2.9950   -2.3190 ca        1 4OE     -0.077000
     11 CAS         1.4500    3.0260   -1.9600 ca        1 4OE     -0.008000
     12 CAT         0.5390    3.9600   -2.5640 cc        1 4OE     -0.203300
     13 CAL        -0.6180    4.5480   -1.9120 cc        1 4OE      0.309200
     14 NAN        -1.2440    5.4080   -2.7520 nd        1 4OE     -0.497800
     15 NAO        -0.5580    5.4050   -3.8910 na        1 4OE     -0.010600
     16 CAV         0.5460    4.5360   -3.8580 cd        1 4OE     -0.031300
     17 CAR         1.4250    4.3480   -4.9970 ca        1 4OE     -0.056000
     18 CAI         1.7960    3.0540   -5.3910 ca        1 4OE     -0.087000
     19 CAF         2.6240    2.8600   -6.4900 ca        1 4OE     -0.167000
     20 CAP         3.0930    3.9740   -7.2120 ca        1 4OE      0.139900
     21 FAA         3.8990    3.7940   -8.2840 f         1 4OE     -0.132900
     22 CAG         2.7270    5.2760   -6.8210 ca        1 4OE     -0.167000
     23 CAJ         1.8960    5.4530   -5.7200 ca        1 4OE     -0.087000
     24 H1         -0.0750    2.1540   -0.6830 ha        1 4OE      0.161000
     25 H2          4.7500    2.0880   -1.9940 ha        1 4OE      0.159000
     26 H3          3.1770    3.6870   -3.0940 ha        1 4OE      0.152000
     27 H4         -0.9670    4.3670   -0.8940 h4        1 4OE      0.050100
     28 H6          1.4260    2.1850   -4.8230 ha        1 4OE      0.148000
     29 H7          2.9140    1.8460   -6.8040 ha        1 4OE      0.156500
     30 H8          3.1010    6.1410   -7.3880 ha        1 4OE      0.156500
     31 H9          1.6200    6.4730   -5.4120 ha        1 4OE      0.148000
     32 H5         -0.8570    5.9440   -4.6700 hn        1 4OE      0.326700
@<TRIPOS>BOND
     1    1    2 1   
     2    2    3 1   
     3    2    4 1   
     4    2    5 1   
     5    5    6 ar  
     6    5    7 ar  
     7    6   11 ar  
     8    6   24 1   
     9    7    8 1   
    10    7    9 ar  
    11    9   10 ar  
    12    9   25 1   
    13   10   11 ar  
    14   10   26 1   
    15   11   12 1   
    16   12   13 1   
    17   12   16 2   
    18   13   14 2   
    19   13   27 1   
    20   14   15 1   
    21   15   16 1   
    22   15   32 1   
    23   16   17 1   
    24   17   18 ar  
    25   17   23 ar  
    26   18   19 ar  
    27   18   28 1   
    28   19   20 ar  
    29   19   29 1   
    30   20   21 1   
    31   20   22 ar  
    32   22   23 ar  
    33   22   30 1   
    34   23   31 1   
@<TRIPOS>SUBSTRUCTURE
     1 4OE         1 TEMP              0 ****  ****    0 ROOT
