@<TRIPOS>MOLECULE
4OH
   46    49     1     0     0
SMALL
bcc


@<TRIPOS>ATOM
      1 CAA        -0.0890   -0.5540   -0.1960 c3        1 4OH     -0.044700
      2 CAB        -1.5430   -0.3760    0.1800 c3        1 4OH     -0.064700
      3 CAC         0.7400    0.4490    0.6260 c3        1 4OH     -0.009400
      4 CAD         0.4090   -1.9570    0.0980 c3        1 4OH     -0.074400
      5 CAE        -2.0370    1.0410   -0.1940 c3        1 4OH     -0.044000
      6 CAF        -2.5980   -1.3120   -0.4190 c3        1 4OH      0.115100
      7 CAG         2.1950    0.2950    0.3060 ca        1 4OH     -0.101300
      8 CAH         0.2360    1.8790    0.4570 c3        1 4OH     -0.073400
      9 CAI         1.8260   -2.1210   -0.4050 c3        1 4OH     -0.038100
     10 CAJ        -3.5450    0.9260    0.1310 c3        1 4OH      0.118100
     11 CAK        -1.2640    2.0310    0.6600 c3        1 4OH     -0.063400
     12 CAL        -1.8770    1.3750   -1.6680 c3        1 4OH     -0.081100
     13 CAM        -3.9270   -0.5070   -0.3370 c3        1 4OH      0.063100
     14 OAN        -2.6740   -2.4780    0.3820 oh        1 4OH     -0.599800
     15 CAO         2.6990   -0.9410   -0.1440 ca        1 4OH     -0.036300
     16 CAP         3.0860    1.3570    0.5030 ca        1 4OH     -0.091000
     17 OAQ        -4.2740    1.9160   -0.5640 oh        1 4OH     -0.587800
     18 OAR        -4.8510   -1.1200    0.5340 oh        1 4OH     -0.598800
     19 CAS         4.0670   -1.0960   -0.3890 ca        1 4OH     -0.162000
     20 CAT         4.4480    1.2170    0.2610 ca        1 4OH     -0.216000
     21 CAU         4.9370   -0.0170   -0.1860 ca        1 4OH      0.123100
     22 OAV         6.2700   -0.2410   -0.4490 oh        1 4OH     -0.499100
     23 HAA         0.0510   -0.3450   -1.2920 hc        1 4OH      0.060700
     24 HAB        -1.6170   -0.4930    1.3020 hc        1 4OH      0.064700
     25 HAC         0.6150    0.1760    1.7170 hc        1 4OH      0.056700
     26 HAD         0.3650   -2.1500    1.2020 hc        1 4OH      0.053200
     27 HADA       -0.2650   -2.7070   -0.3920 hc        1 4OH      0.053200
     28 HAF        -2.3600   -1.5880   -1.4790 h1        1 4OH      0.053700
     29 HAH         0.7450    2.5370    1.2110 hc        1 4OH      0.044700
     30 HAHA        0.5200    2.2540   -0.5610 hc        1 4OH      0.044700
     31 HAI         2.2830   -3.0330    0.0650 hc        1 4OH      0.053200
     32 HAIA        1.8070   -2.2990   -1.5160 hc        1 4OH      0.053200
     33 HAJ        -3.7210    1.0300    1.2360 h1        1 4OH      0.043700
     34 HAK        -1.5700    3.0760    0.3940 hc        1 4OH      0.047200
     35 HAKA       -1.5150    1.8680    1.7410 hc        1 4OH      0.047200
     36 HAL        -2.3830    0.6030   -2.2970 hc        1 4OH      0.043033
     37 HALA       -2.3540    2.3650   -1.8760 hc        1 4OH      0.043033
     38 HALB       -0.8030    1.4300   -1.9620 hc        1 4OH      0.043033
     39 HAM        -4.4480   -0.4700   -1.3310 h1        1 4OH      0.090700
     40 HOAN       -3.4240   -2.9910    0.0510 ho        1 4OH      0.413000
     41 HAP         2.7160    2.3310    0.8590 ha        1 4OH      0.133000
     42 HOAQ       -5.2050    1.7590   -0.3590 ho        1 4OH      0.408000
     43 HOAR       -4.3960   -1.2820    1.3730 ho        1 4OH      0.414000
     44 HAS         4.4690   -2.0570   -0.7390 ha        1 4OH      0.149000
     45 HAT         5.1320    2.0630    0.4190 ha        1 4OH      0.132000
     46 HOAV        6.7500    0.5790   -0.2650 ho        1 4OH      0.418000
@<TRIPOS>BOND
     1    1    2 1   
     2    1    3 1   
     3    1    4 1   
     4    1   23 1   
     5    2    5 1   
     6    2    6 1   
     7    2   24 1   
     8    3    7 1   
     9    3    8 1   
    10    3   25 1   
    11    4    9 1   
    12    4   26 1   
    13    4   27 1   
    14    5   10 1   
    15    5   11 1   
    16    5   12 1   
    17    6   13 1   
    18    6   14 1   
    19    6   28 1   
    20    7   15 ar  
    21    7   16 ar  
    22    8   11 1   
    23    8   29 1   
    24    8   30 1   
    25    9   15 1   
    26    9   31 1   
    27    9   32 1   
    28   10   13 1   
    29   10   17 1   
    30   10   33 1   
    31   11   34 1   
    32   11   35 1   
    33   12   36 1   
    34   12   37 1   
    35   12   38 1   
    36   13   18 1   
    37   13   39 1   
    38   14   40 1   
    39   15   19 ar  
    40   16   20 ar  
    41   16   41 1   
    42   17   42 1   
    43   18   43 1   
    44   19   21 ar  
    45   19   44 1   
    46   20   21 ar  
    47   20   45 1   
    48   21   22 1   
    49   22   46 1   
@<TRIPOS>SUBSTRUCTURE
     1 4OH         1 TEMP              0 ****  ****    0 ROOT
