@<TRIPOS>MOLECULE
4OH
   46    49     1     0     0
SMALL
bcc


@<TRIPOS>ATOM
      1 CAA        -0.0660   -0.0390    0.0090 c3        1 4OH     -0.042700
      2 CAB         1.4450   -0.0920    0.0540 c3        1 4OH     -0.070700
      3 CAC        -0.5130    1.2990    0.6230 c3        1 4OH     -0.010400
      4 CAD        -0.5980   -0.1270   -1.4100 c3        1 4OH     -0.075400
      5 CAE         1.9460   -0.0710    1.5160 c3        1 4OH     -0.042000
      6 CAF         2.1790   -1.2770   -0.5880 c3        1 4OH      0.165100
      7 CAG        -2.0060    1.4120    0.5790 ca        1 4OH     -0.100300
      8 CAH         0.0630    1.5060    2.0210 c3        1 4OH     -0.072400
      9 CAI        -2.1090   -0.1900   -1.3970 c3        1 4OH     -0.038100
     10 CAJ         3.4630   -0.2920    1.3080 c3        1 4OH      0.109100
     11 CAK         1.5640    1.2740    2.1090 c3        1 4OH     -0.063400
     12 CAL         1.3990   -1.2020    2.3710 c3        1 4OH     -0.081100
     13 CAM         3.5350   -1.3480    0.1690 c3        1 4OH      0.063100
     14 OAN         2.2990   -1.0360   -1.9760 oh        1 4OH     -0.594800
     15 CAO        -2.7430    0.7300   -0.4100 ca        1 4OH     -0.035300
     16 CAP        -2.6870    2.2390    1.4800 ca        1 4OH     -0.092000
     17 OAQ         4.0550   -0.7760    2.4980 oh        1 4OH     -0.585800
     18 OAR         4.5700   -1.0540   -0.7500 oh        1 4OH     -0.598800
     19 CAS        -4.1310    0.8820   -0.4810 ca        1 4OH     -0.162000
     20 CAT        -4.0680    2.3960    1.4210 ca        1 4OH     -0.216000
     21 CAU        -4.7890    1.7130    0.4340 ca        1 4OH      0.123100
     22 OAV        -6.1570    1.8130    0.3040 oh        1 4OH     -0.499100
     23 HAA        -0.4970   -0.8880    0.6070 hc        1 4OH      0.058700
     24 HAB         1.8310    0.8340   -0.4680 hc        1 4OH      0.071700
     25 HAC        -0.1040    2.1250   -0.0330 hc        1 4OH      0.057700
     26 HAD        -0.1770   -1.0370   -1.9150 hc        1 4OH      0.056700
     27 HADA       -0.2510    0.7620   -1.9990 hc        1 4OH      0.056700
     28 HAF         1.6180   -2.2400   -0.4420 h1        1 4OH      0.047700
     29 HAH        -0.1320    2.5630    2.3440 hc        1 4OH      0.043700
     30 HAHA       -0.4670    0.8320    2.7430 hc        1 4OH      0.043700
     31 HAI        -2.4980    0.0430   -2.4250 hc        1 4OH      0.052200
     32 HAIA       -2.4350   -1.2380   -1.1520 hc        1 4OH      0.052200
     33 HAJ         3.9600    0.6610    0.9800 h1        1 4OH      0.054700
     34 HAK         1.8830    1.3170    3.1820 hc        1 4OH      0.046200
     35 HAKA        2.1020    2.0910    1.5600 hc        1 4OH      0.046200
     36 HAL         1.6070   -2.1880    1.8900 hc        1 4OH      0.042700
     37 HALA        1.8980   -1.1850    3.3710 hc        1 4OH      0.042700
     38 HALB        0.2980   -1.1030    2.5220 hc        1 4OH      0.042700
     39 HAM         3.6860   -2.3710    0.6090 h1        1 4OH      0.054700
     40 HOAN        3.1260   -1.4340   -2.2780 ho        1 4OH      0.421000
     41 HAP        -2.1320    2.7850    2.2580 ha        1 4OH      0.132000
     42 HOAQ        5.0100   -0.7370    2.3620 ho        1 4OH      0.396000
     43 HOAR        5.4020   -1.2050   -0.2870 ho        1 4OH      0.406000
     44 HAS        -4.7140    0.3540   -1.2500 ha        1 4OH      0.148000
     45 HAT        -4.5850    3.0470    2.1390 ha        1 4OH      0.132000
     46 HOAV       -6.4750    2.4170    0.9910 ho        1 4OH      0.417000
@<TRIPOS>BOND
     1    1    2 1   
     2    1    3 1   
     3    1    4 1   
     4    1   23 1   
     5    2    5 1   
     6    2    6 1   
     7    2   24 1   
     8    3    7 1   
     9    3    8 1   
    10    3   25 1   
    11    4    9 1   
    12    4   26 1   
    13    4   27 1   
    14    5   10 1   
    15    5   11 1   
    16    5   12 1   
    17    6   13 1   
    18    6   14 1   
    19    6   28 1   
    20    7   15 ar  
    21    7   16 ar  
    22    8   11 1   
    23    8   29 1   
    24    8   30 1   
    25    9   15 1   
    26    9   31 1   
    27    9   32 1   
    28   10   13 1   
    29   10   17 1   
    30   10   33 1   
    31   11   34 1   
    32   11   35 1   
    33   12   36 1   
    34   12   37 1   
    35   12   38 1   
    36   13   18 1   
    37   13   39 1   
    38   14   40 1   
    39   15   19 ar  
    40   16   20 ar  
    41   16   41 1   
    42   17   42 1   
    43   18   43 1   
    44   19   21 ar  
    45   19   44 1   
    46   20   21 ar  
    47   20   45 1   
    48   21   22 1   
    49   22   46 1   
@<TRIPOS>SUBSTRUCTURE
     1 4OH         1 TEMP              0 ****  ****    0 ROOT
