@<TRIPOS>MOLECULE
4OH
   46    49     1     0     0
SMALL
bcc


@<TRIPOS>ATOM
      1 CAA        -0.0660   -0.0200   -0.0120 c3        1 4OH     -0.042700
      2 CAB         1.4420   -0.1100    0.0490 c3        1 4OH     -0.070700
      3 CAC        -0.4840    1.3430    0.5690 c3        1 4OH     -0.010400
      4 CAD        -0.5880   -0.1260   -1.4330 c3        1 4OH     -0.075400
      5 CAE         1.9320   -0.0690    1.5140 c3        1 4OH     -0.042000
      6 CAF         2.1510   -1.3270   -0.5610 c3        1 4OH      0.165100
      7 CAG        -1.9740    1.4920    0.5080 ca        1 4OH     -0.100300
      8 CAH         0.0850    1.5660    1.9660 c3        1 4OH     -0.072400
      9 CAI        -2.1000   -0.1500   -1.4330 c3        1 4OH     -0.038100
     10 CAJ         3.4440   -0.3330    1.3250 c3        1 4OH      0.109100
     11 CAK         1.5790    1.2980    2.0730 c3        1 4OH     -0.063400
     12 CAL         1.3480   -1.1660    2.3880 c3        1 4OH     -0.081100
     13 CAM         3.4990   -1.4150    0.2100 c3        1 4OH      0.063100
     14 OAN         2.2900   -1.1200   -1.9530 oh        1 4OH     -0.594800
     15 CAO        -2.7190    0.8070   -0.4720 ca        1 4OH     -0.035300
     16 CAP        -2.6410    2.3550    1.3850 ca        1 4OH     -0.092000
     17 OAQ         4.0140   -0.8040    2.5300 oh        1 4OH     -0.585800
     18 OAR         4.5490   -1.1680   -0.7060 oh        1 4OH     -0.598800
     19 CAS        -4.1020    0.9920   -0.5590 ca        1 4OH     -0.162000
     20 CAT        -4.0170    2.5460    1.3100 ca        1 4OH     -0.216000
     21 CAU        -4.7470    1.8600    0.3320 ca        1 4OH      0.123100
     22 OAV        -6.1100    1.9920    0.1870 oh        1 4OH     -0.499100
     23 HAA        -0.5240   -0.8440    0.6010 hc        1 4OH      0.058700
     24 HAB         1.8560    0.7940   -0.4900 hc        1 4OH      0.071700
     25 HAC        -0.0490    2.1430   -0.1020 hc        1 4OH      0.057700
     26 HAD        -0.1860   -1.0570   -1.9150 hc        1 4OH      0.056700
     27 HADA       -0.2130    0.7420   -2.0380 hc        1 4OH      0.056700
     28 HAF         1.5650   -2.2720   -0.3990 h1        1 4OH      0.047700
     29 HAH        -0.0860    2.6350    2.2640 hc        1 4OH      0.043700
     30 HAHA       -0.4680    0.9220    2.6990 hc        1 4OH      0.043700
     31 HAI        -2.4740    0.0700   -2.4690 hc        1 4OH      0.052200
     32 HAIA       -2.4550   -1.1850   -1.1670 hc        1 4OH      0.052200
     33 HAJ         3.9670    0.6000    0.9800 h1        1 4OH      0.054700
     34 HAK         2.1420    2.0890    1.5120 hc        1 4OH      0.046200
     35 HAKA        1.8890    1.3570    3.1480 hc        1 4OH      0.046200
     36 HAL         1.8390   -1.1400    3.3930 hc        1 4OH      0.042700
     37 HALA        0.2490   -1.0370    2.5270 hc        1 4OH      0.042700
     38 HALB        1.5350   -2.1670    1.9310 hc        1 4OH      0.042700
     39 HAM         3.6190   -2.4310    0.6730 h1        1 4OH      0.054700
     40 HOAN        3.1090   -1.5450   -2.2390 ho        1 4OH      0.421000
     41 HAP        -2.0790    2.9050    2.1550 ha        1 4OH      0.132000
     42 HOAQ        4.9700   -0.7930    2.4020 ho        1 4OH      0.396000
     43 HOAR        5.3730   -1.3300   -0.2330 ho        1 4OH      0.406000
     44 HAS        -4.6910    0.4630   -1.3210 ha        1 4OH      0.148000
     45 HAT        -4.5240    3.2260    2.0080 ha        1 4OH      0.132000
     46 HOAV       -6.4190    2.6180    0.8580 ho        1 4OH      0.417000
@<TRIPOS>BOND
     1    1    2 1   
     2    1    3 1   
     3    1    4 1   
     4    1   23 1   
     5    2    5 1   
     6    2    6 1   
     7    2   24 1   
     8    3    7 1   
     9    3    8 1   
    10    3   25 1   
    11    4    9 1   
    12    4   26 1   
    13    4   27 1   
    14    5   10 1   
    15    5   11 1   
    16    5   12 1   
    17    6   13 1   
    18    6   14 1   
    19    6   28 1   
    20    7   15 ar  
    21    7   16 ar  
    22    8   11 1   
    23    8   29 1   
    24    8   30 1   
    25    9   15 1   
    26    9   31 1   
    27    9   32 1   
    28   10   13 1   
    29   10   17 1   
    30   10   33 1   
    31   11   34 1   
    32   11   35 1   
    33   12   36 1   
    34   12   37 1   
    35   12   38 1   
    36   13   18 1   
    37   13   39 1   
    38   14   40 1   
    39   15   19 ar  
    40   16   20 ar  
    41   16   41 1   
    42   17   42 1   
    43   18   43 1   
    44   19   21 ar  
    45   19   44 1   
    46   20   21 ar  
    47   20   45 1   
    48   21   22 1   
    49   22   46 1   
@<TRIPOS>SUBSTRUCTURE
     1 4OH         1 TEMP              0 ****  ****    0 ROOT
