@<TRIPOS>MOLECULE
4OH
   46    48     1     0     0
SMALL
bcc


@<TRIPOS>ATOM
      1 CAA         0.0810   -0.0960   -0.5620 c3        1 4OH     -0.097000
      2 CAB         1.7630   -0.0960   -0.5620 c3        1 4OH     -0.088000
      3 CAC        -0.3610    0.7180    0.1090 c3        1 4OH     -0.051000
      4 CAD        -0.4390   -0.1200   -2.0990 c3        1 4OH     -0.155000
      5 CAE         2.1140   -0.0960    1.0180 c3        1 4OH     -0.069000
      6 CAF         2.1790   -1.1440   -1.0120 c3        1 4OH      0.042000
      7 CAG        -2.2010    0.8190    0.1370 c2        1 4OH     -0.091000
      8 CAH         0.1100    0.6270    1.4210 c3        1 4OH     -0.156000
      9 CAI        -1.9730   -0.1680   -2.3020 c3        1 4OH     -0.124000
     10 CAJ         1.9440   -0.9880    1.3480 c3        1 4OH      0.003000
     11 CAK         1.7060    0.5600    1.5360 c3        1 4OH     -0.148000
     12 CAL         3.6180    0.1360    1.1310 c3        1 4OH     -0.213000
     13 CAM         2.1590   -1.9730    0.0310 c3        1 4OH     -0.007000
     14 OAN         3.7090   -0.9590   -1.5570 oh        1 4OH     -0.326000
     15 CAO        -2.8960    0.3720   -1.0420 c2        1 4OH     -0.029000
     16 CAP        -2.8800    1.5260    1.1110 c2        1 4OH     -0.091000
     17 OAQ         0.4020   -1.1040    1.8920 oh        1 4OH     -0.330000
     18 OAR         3.3820   -2.6670    0.1310 oh        1 4OH     -0.334000
     19 CAS        -4.2490    0.6520   -1.1980 c2        1 4OH     -0.160000
     20 CAT        -4.2510    1.8080    0.9500 c1        1 4OH     -0.215000
     21 CAU        -4.9340    1.3680   -0.2100 c1        1 4OH      0.078000
     22 OAV        -6.3070    1.6620   -0.3750 oh        1 4OH     -0.253000
     23 HAA        -0.1930   -0.9470   -0.1700 hc        1 4OH      0.102000
     24 HAB         2.1340    0.6810   -1.0220 hc        1 4OH      0.118000
     25 HAC        -0.0420    1.5700   -0.2440 hc        1 4OH      0.097000
     26 HAD        -0.1010    0.6800   -2.5450 hc        1 4OH      0.087500
     27 HADA       -0.0510   -0.9010   -2.5380 hc        1 4OH      0.087500
     28 HAF         1.5950   -1.4700   -1.7230 h1        1 4OH      0.086000
     29 HAH        -0.1930    1.4180    1.9050 hc        1 4OH      0.089500
     30 HAHA       -0.2550   -0.1880    1.8170 hc        1 4OH      0.089500
     31 HAI        -2.2240   -1.0940   -2.4850 hc        1 4OH      0.093000
     32 HAIA       -2.1910    0.3680   -3.0880 hc        1 4OH      0.093000
     33 HAJ         2.5760   -1.2180    2.0550 h1        1 4OH      0.086000
     34 HAK         2.0690    1.4270    1.2740 hc        1 4OH      0.079000
     35 HAKA        1.9390    0.3990    2.4710 hc        1 4OH      0.079000
     36 HAL         4.0770   -0.7240    1.1890 hc        1 4OH      0.084000
     37 HALA        3.8070    0.6600    1.9320 hc        1 4OH      0.084000
     38 HALB        3.9330    0.6200    0.3440 hc        1 4OH      0.084000
     39 HAM         1.4160   -2.6010   -0.0480 h1        1 4OH      0.106000
     40 HOAN        3.7350   -1.1220   -2.4290 ho        1 4OH      0.221000
     41 HAP        -2.4100    1.8300    1.9110 ha        1 4OH      0.131000
     42 HOAQ        0.3230   -1.8230    2.4060 ho        1 4OH      0.206000
     43 HOAR        3.2250   -3.5400    0.1640 ho        1 4OH      0.215000
     44 HAS        -4.7210    0.3490   -1.9970 ha        1 4OH      0.149000
     45 HAT        -4.7310    2.3070    1.6380 ha        1 4OH      0.132000
     46 HOAV       -6.3970    2.4780   -0.7140 ho        1 4OH      0.217000
@<TRIPOS>BOND
     1    1    2 1   
     2    1    3 1   
     3    1    4 1   
     4    1   23 1   
     5    2    5 1   
     6    2    6 1   
     7    2   24 1   
     8    3    7 1   
     9    3    8 1   
    10    3   25 1   
    11    4    9 1   
    12    4   26 1   
    13    4   27 1   
    14    5   10 1   
    15    5   11 1   
    16    5   12 1   
    17    6   13 1   
    18    6   14 1   
    19    6   28 1   
    20    7   15 1   
    21    7   16 1   
    22    8   11 1   
    23    8   29 1   
    24    8   30 1   
    25    9   15 1   
    26    9   31 1   
    27    9   32 1   
    28   10   13 1   
    29   10   17 1   
    30   10   33 1   
    31   11   34 1   
    32   11   35 1   
    33   12   36 1   
    34   12   37 1   
    35   12   38 1   
    36   13   18 1   
    37   13   39 1   
    38   14   40 1   
    39   15   19 1   
    40   16   20 1   
    41   16   41 1   
    42   17   42 1   
    43   18   43 1   
    44   19   21 1   
    45   19   44 1   
    46   20   45 1   
    47   21   22 1   
    48   22   46 1   
@<TRIPOS>SUBSTRUCTURE
     1 4OH         1 TEMP              0 ****  ****    0 ROOT
