@<TRIPOS>MOLECULE
4OJ
   19    18     1     0     0
SMALL
bcc


@<TRIPOS>ATOM
      1 C1         -3.1120    0.7220    0.0150 ca        1 4OJ     -0.065000
      2 C2         -3.5390   -0.6050    0.0060 ca        1 4OJ     -0.341000
      3 C3         -2.5710   -1.6210   -0.0010 ca        1 4OJ     -0.082000
      4 C4         -1.2290   -1.3290    0.0000 ca        1 4OJ     -0.301000
      5 C5         -0.7530    0.0330    0.0090 ca        1 4OJ      0.317000
      6 C6         -1.7690    1.0630    0.0160 ca        1 4OJ     -0.288000
      7 O12         0.4920    0.3090    0.0100 o         1 4OJ     -0.562000
      8 P13         2.6650   -0.3130    0.0050 p3        1 4OJ      2.503000
      9 O1P         3.0540    0.3500   -1.2620 o         1 4OJ     -1.177333
     10 O2P         3.0550    0.3330    1.2800 o         1 4OJ     -1.177333
     11 C7         -1.3570    2.4810    0.0250 c3        1 4OJ     -0.129000
     12 O3P         2.4430   -1.7780   -0.0040 o         1 4OJ     -1.177333
     13 H1         -3.8670    1.5250    0.0200 ha        1 4OJ      0.061000
     14 H2         -4.6050   -0.8510    0.0050 ha        1 4OJ      0.069000
     15 H3         -2.9040   -2.6710   -0.0080 ha        1 4OJ      0.065000
     16 H4         -0.4630   -2.1180   -0.0050 ha        1 4OJ      0.143000
     17 H71C       -1.7500    3.0090    0.9310 hc        1 4OJ      0.048000
     18 H72C       -0.2390    2.5560    0.0250 hc        1 4OJ      0.048000
     19 H73C       -1.7500    3.0210   -0.8740 hc        1 4OJ      0.048000
@<TRIPOS>BOND
     1    1    2 1   
     2    1    6 1   
     3    1   13 1   
     4    2    3 1   
     5    2   14 1   
     6    3    4 1   
     7    3   15 1   
     8    4    5 1   
     9    4   16 1   
    10    5    6 1   
    11    5    7 1   
    12    6   11 1   
    13    8    9 1   
    14    8   10 1   
    15    8   12 1   
    16   11   17 1   
    17   11   18 1   
    18   11   19 1   
@<TRIPOS>SUBSTRUCTURE
     1 4OJ         1 TEMP              0 ****  ****    0 ROOT
