@<TRIPOS>MOLECULE
4OJ
   19    18     1     0     0
SMALL
bcc


@<TRIPOS>ATOM
      1 C1          0.0370   -0.5140   -0.1100 ca        1 4OJ     -0.065000
      2 C2          1.4310   -0.5370   -0.1050 ca        1 4OJ     -0.341000
      3 C3          2.1060   -0.0600    1.0290 ca        1 4OJ     -0.082000
      4 C4          1.4210    0.4240    2.1170 ca        1 4OJ     -0.301000
      5 C5         -0.0210    0.4630    2.1440 ca        1 4OJ      0.317000
      6 C6         -0.6950   -0.0350    0.9650 ca        1 4OJ     -0.288000
      7 O12        -0.6610    0.9110    3.1520 o         1 4OJ     -0.562000
      8 P13        -0.7270    1.8100    5.2260 p3        1 4OJ      2.503000
      9 O1P        -1.4460    3.0560    4.8740 o         1 4OJ     -1.177333
     10 O2P        -1.4900    0.7230    5.8840 o         1 4OJ     -1.177333
     11 C7         -2.1710   -0.0260    0.9220 c3        1 4OJ     -0.129000
     12 O3P         0.7370    1.8790    5.4490 o         1 4OJ     -1.177333
     13 H1         -0.5000   -0.8870   -0.9970 ha        1 4OJ      0.061000
     14 H2          1.9880   -0.9200   -0.9650 ha        1 4OJ      0.069000
     15 H3          3.2070   -0.0770    1.0370 ha        1 4OJ      0.065000
     16 H4          1.9410    0.8010    3.0100 ha        1 4OJ      0.143000
     17 H71C       -2.5810    0.3940    1.8750 hc        1 4OJ      0.048000
     18 H72C       -2.5450    0.5960    0.0680 hc        1 4OJ      0.048000
     19 H73C       -2.5760   -1.0610    0.7840 hc        1 4OJ      0.048000
@<TRIPOS>BOND
     1    1    2 1   
     2    1    6 1   
     3    1   13 1   
     4    2    3 1   
     5    2   14 1   
     6    3    4 1   
     7    3   15 1   
     8    4    5 1   
     9    4   16 1   
    10    5    6 1   
    11    5    7 1   
    12    6   11 1   
    13    8    9 1   
    14    8   10 1   
    15    8   12 1   
    16   11   17 1   
    17   11   18 1   
    18   11   19 1   
@<TRIPOS>SUBSTRUCTURE
     1 4OJ         1 TEMP              0 ****  ****    0 ROOT
