@<TRIPOS>MOLECULE
4OJ
   19    18     1     0     0
SMALL
bcc


@<TRIPOS>ATOM
      1 C1          0.0320   -0.4640   -0.1320 ca        1 4OJ     -0.065000
      2 C2          1.4250   -0.5160   -0.1190 ca        1 4OJ     -0.341000
      3 C3          2.1020   -0.0830    1.0310 ca        1 4OJ     -0.082000
      4 C4          1.4210    0.3860    2.1280 ca        1 4OJ     -0.301000
      5 C5         -0.0210    0.4550    2.1480 ca        1 4OJ      0.317000
      6 C6         -0.6970    0.0020    0.9520 ca        1 4OJ     -0.288000
      7 O12        -0.6580    0.8890    3.1630 o         1 4OJ     -0.562000
      8 P13        -0.7180    1.7340    5.2590 p3        1 4OJ      2.503000
      9 O1P        -1.4110    3.0040    4.9360 o         1 4OJ     -1.177333
     10 O2P        -1.5070    0.6460    5.8840 o         1 4OJ     -1.177333
     11 C7         -2.1720    0.0430    0.9000 c3        1 4OJ     -0.129000
     12 O3P         0.7450    1.7680    5.4920 o         1 4OJ     -1.177333
     13 H1         -0.5070   -0.8020   -1.0310 ha        1 4OJ      0.061000
     14 H2          1.9800   -0.8880   -0.9860 ha        1 4OJ      0.069000
     15 H3          3.2020   -0.1230    1.0460 ha        1 4OJ      0.065000
     16 H4          1.9420    0.7280    3.0340 ha        1 4OJ      0.143000
     17 H71C       -2.5790    0.4500    1.8600 hc        1 4OJ      0.048000
     18 H72C       -2.5280    0.6910    0.0580 hc        1 4OJ      0.048000
     19 H73C       -2.5980   -0.9800    0.7370 hc        1 4OJ      0.048000
@<TRIPOS>BOND
     1    1    2 1   
     2    1    6 1   
     3    1   13 1   
     4    2    3 1   
     5    2   14 1   
     6    3    4 1   
     7    3   15 1   
     8    4    5 1   
     9    4   16 1   
    10    5    6 1   
    11    5    7 1   
    12    6   11 1   
    13    8    9 1   
    14    8   10 1   
    15    8   12 1   
    16   11   17 1   
    17   11   18 1   
    18   11   19 1   
@<TRIPOS>SUBSTRUCTURE
     1 4OJ         1 TEMP              0 ****  ****    0 ROOT
