@<TRIPOS>MOLECULE
4OJ
   19    16     1     0     0
SMALL
bcc


@<TRIPOS>ATOM
      1 C1          0.1050   -0.2440   -1.9980 c1        1 4OJ     -0.007500
      2 C2          1.4910   -0.2860   -1.9990 c1        1 4OJ     -0.154000
      3 C3          2.1840   -0.3390   -0.8000 c1        1 4OJ     -0.154000
      4 C4          1.4910   -0.3510    0.4010 c1        1 4OJ     -0.243500
      5 C5          0.1060   -0.3090    0.4020 c1        1 4OJ      0.345600
      6 C6         -0.5870   -0.2560   -0.7970 c1        1 4OJ     -0.261100
      7 O12        -0.5980   -0.3780    1.6170 os        1 4OJ     -0.357000
      8 P13        -0.4270    0.8030    2.6540 p5        1 4OJ      1.310900
      9 O1P        -1.7830    1.2110    3.1780 o         1 4OJ     -0.857833
     10 O2P         0.4390    0.3430    3.8020 o         1 4OJ     -0.857833
     11 C7         -2.1000   -0.2400   -0.7970 c3        1 4OJ     -0.038000
     12 O3P         0.2250    1.9810    1.9720 o         1 4OJ     -0.857833
     13 H1         -0.3830   -0.2060   -2.8430 ha        1 4OJ      0.003500
     14 H2          1.9780   -0.2780   -2.8450 ha        1 4OJ      0.009500
     15 H3          3.1590   -0.3690   -0.8010 ha        1 4OJ      0.009500
     16 H4          1.9800   -0.3720    1.2460 ha        1 4OJ      0.085500
     17 H71C       -2.4330   -0.8790   -0.1330 hc        1 4OJ      0.008700
     18 H72C       -2.4170    0.6600   -0.5720 hc        1 4OJ      0.008700
     19 H73C       -2.4300   -0.4900   -1.6850 hc        1 4OJ      0.008700
@<TRIPOS>BOND
     1    1    6 3   
     2    1   13 1   
     3    2    3 3   
     4    2   14 1   
     5    3   15 1   
     6    4    5 3   
     7    4   16 1   
     8    5    7 1   
     9    6   11 1   
    10    7    8 1   
    11    8    9 1   
    12    8   10 1   
    13    8   12 1   
    14   11   17 1   
    15   11   18 1   
    16   11   19 1   
@<TRIPOS>SUBSTRUCTURE
     1 4OJ         1 TEMP              0 ****  ****    0 ROOT
