@<TRIPOS>MOLECULE
4OK
   52    57     1     0     0
SMALL
bcc


@<TRIPOS>ATOM
      1 C13         0.9630    0.5660    0.0600 ca        1 4OK     -0.089000
      2 C18        -5.2810   -1.0630    5.6750 ca        1 4OK      0.016400
      3 C17        -5.6370   -0.4060    6.8650 ca        1 4OK      0.034400
      4 C16         1.0790   -0.2290    4.6400 ca        1 4OK     -0.018200
      5 C15         2.0260    0.1200    2.6000 ca        1 4OK     -0.047000
      6 C19         0.4380    1.0710   -1.2120 cu        1 4OK      0.043100
      7 C21        -1.1940    0.8740   -3.1390 c3        1 4OK      0.113800
      8 C22        -0.3380   -1.2600   -2.2370 c3        1 4OK      0.113800
      9 C23        -1.3240    0.1820   -4.4980 c3        1 4OK      0.103900
     10 C24        -0.5030   -1.8580   -3.6380 c3        1 4OK      0.103900
     11 C11        -2.9780   -0.3580    5.9700 cp        1 4OK     -0.067000
     12 C12        -1.5930   -0.3320    5.5010 cp        1 4OK     -0.030000
     13 C1         -3.3380    0.2940    7.1580 ca        1 4OK     -0.105000
     14 C2          2.3520    0.5220    0.2700 ca        1 4OK     -0.097000
     15 C3          2.9020    0.3060    1.5350 ca        1 4OK     -0.109000
     16 C4         -4.6560    0.2720    7.5990 ca        1 4OK     -0.111000
     17 C5         -1.3210   -0.1130    4.1330 ca        1 4OK     -0.016000
     18 C6          0.0770    0.3760    1.1380 ca        1 4OK     -0.066000
     19 C7         -0.5490   -0.5310    6.4030 ca        1 4OK     -0.043000
     20 C8         -3.9550   -1.0350    5.2310 ca        1 4OK     -0.103000
     21 C9         -0.0080   -0.0610    3.7040 cp        1 4OK     -0.044000
     22 C10         0.6020    0.1540    2.3980 cp        1 4OK     -0.073000
     23 C14         0.7990   -0.5200    5.9800 ca        1 4OK     -0.219600
     24 N25         2.3410   -0.1560    3.9790 na        1 4OK     -0.220500
     25 N26        -0.2070    0.2150   -2.2480 n4        1 4OK     -0.391100
     26 N27         3.0130   -1.6250    6.4440 nz        1 4OK     -0.761400
     27 O28         1.0910    0.6420   -2.4260 os        1 4OK     -0.226400
     28 O29         1.8330   -0.6570    8.1770 o         1 4OK     -0.418100
     29 O30        -1.5540   -1.2150   -4.3470 os        1 4OK     -0.397600
     30 H1         -0.8840    1.9470   -3.2800 hx        1 4OK      0.096450
     31 H2         -2.1720    0.8360   -2.5850 hx        1 4OK      0.096450
     32 H3          0.5700   -1.7020   -1.7430 hx        1 4OK      0.096450
     33 H4         -1.2510   -1.4810   -1.6180 hx        1 4OK      0.096450
     34 H5         -0.4080    0.3540   -5.1230 h1        1 4OK      0.079450
     35 H6         -2.2360    0.5600   -5.0320 h1        1 4OK      0.079450
     36 H7         -0.8270   -2.9290   -3.5600 h1        1 4OK      0.079450
     37 H8          0.4560   -1.7810   -4.2160 h1        1 4OK      0.079450
     38 H9         -2.5790    0.8400    7.7390 ha        1 4OK      0.143000
     39 H10         3.0220    0.6790   -0.5920 ha        1 4OK      0.161000
     40 H11         3.9920    0.2870    1.6730 ha        1 4OK      0.146000
     41 H12        -4.9330    0.7930    8.5310 ha        1 4OK      0.165000
     42 H13        -2.1510    0.0280    3.4200 ha        1 4OK      0.172000
     43 H14        -1.0090    0.4250    0.9760 ha        1 4OK      0.150000
     44 H15        -0.7720   -0.7130    7.4690 ha        1 4OK      0.168000
     45 H16        -3.6820   -1.5560    4.3000 ha        1 4OK      0.151000
     46 H17         2.9810    0.5080    4.3750 hn        1 4OK      0.250700
     47 H18         3.7440   -0.9780    6.1370 hn        1 4OK      0.467467
     48 H19         3.3970   -2.2160    7.1900 hn        1 4OK      0.467467
     49 C20         1.8100   -0.8450    6.9710 c         1 4OK      0.586700
     50 Cl1        -7.2300   -0.4180    7.4280 cl        1 4OK     -0.033400
     51 H273        2.7330   -2.2080    5.6490 hn        1 4OK      0.467467
     52 Cl2        -6.4330   -1.8970    4.7570 cl        1 4OK     -0.043400
@<TRIPOS>BOND
     1    1    6 2   
     2    1   14 ar  
     3    1   18 ar  
     4    2    3 ar  
     5    2   20 ar  
     6    2   52 1   
     7    3   16 ar  
     8    3   50 1   
     9    4   21 ar  
    10    4   23 ar  
    11    4   24 1   
    12    5   15 ar  
    13    5   22 ar  
    14    5   24 2   
    15    6   25 1   
    16    6   27 1   
    17    7    9 1   
    18    7   25 1   
    19    7   30 1   
    20    7   31 1   
    21    8   10 1   
    22    8   25 1   
    23    8   32 1   
    24    8   33 1   
    25    9   29 1   
    26    9   34 1   
    27    9   35 1   
    28   10   29 1   
    29   10   36 1   
    30   10   37 1   
    31   11   12 1   
    32   11   13 ar  
    33   11   20 ar  
    34   12   17 ar  
    35   12   19 ar  
    36   13   16 ar  
    37   13   38 1   
    38   14   15 ar  
    39   14   39 1   
    40   15   40 1   
    41   16   41 1   
    42   17   21 ar  
    43   17   42 1   
    44   18   22 ar  
    45   18   43 1   
    46   19   23 ar  
    47   19   44 1   
    48   20   45 1   
    49   21   22 1   
    50   23   49 1   
    51   24   46 1   
    52   25   27 1   
    53   26   47 1   
    54   26   48 1   
    55   26   49 1   
    56   26   51 1   
    57   28   49 2   
@<TRIPOS>SUBSTRUCTURE
     1 4OK         1 TEMP              0 ****  ****    0 ROOT
