@<TRIPOS>MOLECULE
4OK
   52    53     1     0     0
SMALL
bcc


@<TRIPOS>ATOM
      1 C13        -0.3130    0.4110    0.7380 ca        1 4OK     -0.081000
      2 C18         2.2090   -0.9710   11.2560 c2        1 4OK     -0.125000
      3 C17         2.0050   -0.0040   12.1730 c2        1 4OK     -0.092000
      4 C16         0.6570    0.0600    5.2700 c2        1 4OK      0.316000
      5 C15         1.0120   -0.2920    3.0540 ca        1 4OK     -0.024000
      6 C19        -1.0460    0.6830   -0.5410 c2        1 4OK      0.327000
      7 C21        -2.0550    2.2750   -2.1140 c3        1 4OK     -0.073000
      8 C22        -0.6380    3.1250   -0.3330 c3        1 4OK     -0.073000
      9 C23        -1.1930    3.0430   -3.1250 c3        1 4OK     -0.049000
     10 C24         0.1950    3.8640   -1.3940 c3        1 4OK     -0.049000
     11 C11         1.0420   -0.0060    9.2510 c2        1 4OK      0.002000
     12 C12        -2.4420    2.0250    5.6430 c2        1 4OK     -0.128000
     13 C1          0.1280    0.8850    9.9530 c2        1 4OK     -0.490000
     14 C2          0.8540   -0.3580    0.6810 ca        1 4OK     -0.073000
     15 C3          1.5440   -0.7200    1.8430 ca        1 4OK     -0.079000
     16 C4         -1.0870    0.6170   10.3890 c1        1 4OK      0.284000
     17 C5         -1.4520    1.3870    5.1090 c1        1 4OK      0.004000
     18 C6         -0.8520    0.8450    1.9610 ca        1 4OK     -0.058000
     19 C7          0.9300    0.0100    7.8480 c1        1 4OK      0.107000
     20 C8          1.9580   -0.8180    9.8390 c2        1 4OK      0.003000
     21 C9         -0.4570    0.7380    4.5490 c2        1 4OK     -0.075000
     22 C10        -0.1930    0.4920    3.1250 ca        1 4OK     -0.058000
     23 C14         0.8140    0.0310    6.6480 c1        1 4OK     -0.248000
     24 N25         1.4880   -0.5230    4.3770 na        1 4OK     -0.099000
     25 N26        -1.3690    1.9950   -0.8640 n         1 4OK     -0.308000
     26 N27         5.5450   -3.6060    4.2920 n4        1 4OK     -0.173000
     27 O28        -1.4200   -0.2750   -1.2450 o         1 4OK     -0.329000
     28 O29         3.7930   -2.1640    3.7330 o         1 4OK     -0.426000
     29 O30        -0.5880    4.1890   -2.5340 os        1 4OK     -0.257000
     30 H1         -2.9580    2.9000   -1.8570 h1        1 4OK      0.110250
     31 H2         -2.4040    1.3130   -2.5860 h1        1 4OK      0.110250
     32 H3          0.0430    2.8040    0.5010 h1        1 4OK      0.110250
     33 H4         -1.4000    3.8450    0.0850 h1        1 4OK      0.110250
     34 H5         -1.8380    3.4600   -3.9420 h1        1 4OK      0.102500
     35 H6         -0.3990    2.3810   -3.5610 h1        1 4OK      0.102500
     36 H7          0.5330    4.8560   -0.9940 h1        1 4OK      0.102500
     37 H8          1.0810    3.2500   -1.7040 h1        1 4OK      0.102500
     38 H9          0.5090    1.9210   10.1060 ha        1 4OK      0.208000
     39 H10         1.2260   -0.7030   -0.2990 ha        1 4OK      0.174000
     40 H11         2.4650   -1.3270    1.8050 ha        1 4OK      0.186000
     41 H12         1.6120    0.9870   11.8950 h4        1 4OK      0.165000
     42 H13        -3.3860    1.5230    5.9220 ha        1 4OK      0.189000
     43 H14        -1.7780    1.4400    1.9840 ha        1 4OK      0.168000
     44 H15        -2.4050    3.1100    5.8510 ha        1 4OK      0.189000
     45 H16         2.5850   -1.4640    9.1890 ha        1 4OK      0.161000
     46 H17         2.3190   -1.0600    4.5740 hn        1 4OK      0.325000
     47 H18         6.3830   -3.2400    4.7370 hn        1 4OK      0.197333
     48 H19         5.7250   -3.7180    3.2960 hn        1 4OK      0.197333
     49 C20         4.3730   -2.6660    4.6870 c1        1 4OK      0.023000
     50 CL1         2.3270   -0.1550   13.8070 cl        1 4OK      0.063000
     51 H273        5.3430   -4.5180    4.6940 hn        1 4OK      0.197333
     52 CL2         2.8370   -2.4920   11.6930 cl        1 4OK      0.030000
@<TRIPOS>BOND
     1    1    6 1   
     2    1   14 1   
     3    1   18 1   
     4    2    3 1   
     5    2   20 1   
     6    2   52 1   
     7    3   41 1   
     8    3   50 1   
     9    4   21 1   
    10    4   23 1   
    11    4   24 1   
    12    5   15 1   
    13    5   22 1   
    14    5   24 1   
    15    6   25 1   
    16    6   27 1   
    17    7    9 1   
    18    7   25 1   
    19    7   30 1   
    20    7   31 1   
    21    8   10 1   
    22    8   25 1   
    23    8   32 1   
    24    8   33 1   
    25    9   29 1   
    26    9   34 1   
    27    9   35 1   
    28   10   29 1   
    29   10   36 1   
    30   10   37 1   
    31   11   13 1   
    32   11   19 1   
    33   11   20 1   
    34   12   17 1   
    35   12   42 1   
    36   12   44 1   
    37   13   16 1   
    38   13   38 1   
    39   14   15 1   
    40   14   39 1   
    41   15   40 1   
    42   17   21 1   
    43   18   22 1   
    44   18   43 1   
    45   19   23 1   
    46   20   45 1   
    47   21   22 1   
    48   24   46 1   
    49   26   47 1   
    50   26   48 1   
    51   26   49 1   
    52   26   51 1   
    53   28   49 1   
@<TRIPOS>SUBSTRUCTURE
     1 4OK         1 TEMP              0 ****  ****    0 ROOT
