@<TRIPOS>MOLECULE
4OL
   96    99     1     0     0
SMALL
bcc


@<TRIPOS>ATOM
      1 C1          1.4750   -2.3370    1.5860 c         1 4OL      0.581300
      2 C2          2.4590   -1.3710    1.0830 cc        1 4OL     -0.145600
      3 C6          4.1970   -0.9090   -0.5790 cd        1 4OL     -0.101000
      4 C5          4.3570    0.3470   -0.1070 cc        1 4OL     -0.114200
      5 C4          3.5990    0.8130    1.0620 c         1 4OL      0.643200
      6 C7          3.2320   -1.7900    0.0190 cd        1 4OL      0.004000
      7 C12        -0.6570   -1.0600    1.8560 c3        1 4OL      0.120300
      8 C13        -1.8890   -0.7790    2.7240 c3        1 4OL     -0.119400
      9 C14        -2.8680    0.0500    1.8940 c3        1 4OL      0.119300
     10 C16        -4.9340   -1.1360    2.6360 c         1 4OL      0.577800
     11 C17        -4.2840    1.0190    3.7210 c3        1 4OL      0.106800
     12 C18        -5.7090    1.4320    4.0980 c3        1 4OL     -0.099400
     13 C23        -6.0460   -2.9930    1.5410 cc        1 4OL     -0.009500
     14 C24        -6.9170   -3.5720    0.5570 cc        1 4OL     -0.090500
     15 C25        -7.5600   -2.7840   -0.3320 cd        1 4OL     -0.123700
     16 C26        -7.4190   -1.3210   -0.2780 c         1 4OL      0.655700
     17 O55        -9.6620    3.6300    5.9810 o         1 4OL     -0.406100
     18 C28        -8.8320    4.3650    6.4780 c         1 4OL      0.577800
     19 C34        -9.0010    5.7640    6.9370 cc        1 4OL     -0.151100
     20 C39        -9.2690    6.7710    6.0500 cd        1 4OL     -0.009500
     21 C38        -9.4550    8.1180    6.5320 cd        1 4OL     -0.090500
     22 C37        -9.3140    8.4070    7.8450 cc        1 4OL     -0.123700
     23 C36        -9.0190    7.3570    8.8250 c         1 4OL      0.655700
     24 O47        -8.8950    7.4800   10.0490 o         1 4OL     -0.530000
     25 N35        -8.7960    6.0100    8.3210 n         1 4OL     -0.214000
     26 O46        -9.1500    5.0260    9.1400 oh        1 4OL     -0.473600
     27 N21        -7.4040    3.7890    6.6360 n4        1 4OL     -0.596200
     28 C29        -7.2190    3.1990    8.0080 c3        1 4OL      0.119300
     29 C30        -6.3900    4.0610    8.9660 c3        1 4OL     -0.119400
     30 C31        -6.8950    3.9060   10.4050 c3        1 4OL      0.120300
     31 N32        -6.8720    5.1620   11.2050 n4        1 4OL     -0.672800
     32 C33        -5.4750    5.6220   11.5950 c         1 4OL      0.581300
     33 O53        -4.5510    5.0300   11.0510 o         1 4OL     -0.431100
     34 C40        -5.3890    6.6930   12.6000 cc        1 4OL     -0.145600
     35 N45        -6.4830    7.5870   12.7830 n         1 4OL     -0.199500
     36 O50        -7.1110    7.8570   11.6270 oh        1 4OL     -0.482100
     37 C44        -6.2510    8.7510   13.6350 c         1 4OL      0.643200
     38 O51        -7.0870    9.6560   13.5710 o         1 4OL     -0.515500
     39 C43        -5.0910    8.7080   14.5410 cc        1 4OL     -0.114200
     40 C42        -4.1530    7.7430   14.4220 cd        1 4OL     -0.101000
     41 C41        -4.2910    6.7140   13.4290 cd        1 4OL      0.004000
     42 C19        -5.7210    2.4040    5.2700 c3        1 4OL     -0.099400
     43 N15        -4.2480    0.2180    2.4520 n4        1 4OL     -0.596200
     44 O54        -4.6300   -1.7360    3.6630 o         1 4OL     -0.406100
     45 C22        -5.8440   -1.6290    1.5910 cd        1 4OL     -0.151100
     46 N27        -6.3770   -0.7660    0.5890 n         1 4OL     -0.214000
     47 O48        -6.6570    0.4610    1.0640 oh        1 4OL     -0.473600
     48 N9          0.3750   -1.8770    2.5470 n4        1 4OL     -0.672800
     49 O8          1.3990   -3.5270    1.3180 o         1 4OL     -0.431100
     50 N3          2.4980   -0.0190    1.5340 n         1 4OL     -0.199500
     51 O9          3.7850    1.8620    1.6850 o         1 4OL     -0.515500
     52 O10         2.1580    0.1610    2.8120 oh        1 4OL     -0.482100
     53 H1          4.8000   -1.2940   -1.4240 ha        1 4OL      0.202000
     54 H2          5.0980    1.0650   -0.5080 ha        1 4OL      0.217500
     55 H3          3.1100   -2.8080   -0.3990 ha        1 4OL      0.193000
     56 H4         -0.9660   -1.6190    0.9250 hx        1 4OL      0.120200
     57 H5         -0.1750   -0.0830    1.5500 hx        1 4OL      0.120200
     58 H6         -2.3630   -1.7450    3.0510 hc        1 4OL      0.091700
     59 H7         -1.5960   -0.2140    3.6480 hc        1 4OL      0.091700
     60 H8         -2.4390    1.0850    1.7430 hx        1 4OL      0.116200
     61 H9         -2.9990   -0.4310    0.8770 hx        1 4OL      0.116200
     62 H10        -3.6430    1.9340    3.5670 hx        1 4OL      0.113450
     63 H11        -3.8340    0.3900    4.5430 hx        1 4OL      0.113450
     64 H12        -6.2180    1.9080    3.2130 hc        1 4OL      0.080450
     65 H13        -6.3000    0.5150    4.3690 hc        1 4OL      0.080450
     66 H14        -7.7680    1.8540    5.8190 hx        1 4OL      0.113450
     67 H15        -7.6240    3.2090    4.6040 hx        1 4OL      0.113450
     68 H16        -5.5330   -3.6630    2.2550 ha        1 4OL      0.189000
     69 H17        -7.0460   -4.6720    0.5570 ha        1 4OL      0.208000
     70 H18        -8.2670   -3.1650   -1.0950 ha        1 4OL      0.224000
     71 H19        -9.3490    6.5830    4.9650 ha        1 4OL      0.189000
     72 H20        -9.7210    8.9000    5.7930 ha        1 4OL      0.208000
     73 H21        -9.4670    9.4200    8.2650 ha        1 4OL      0.224000
     74 H22       -10.0810    5.1590    9.4380 ho        1 4OL      0.472000
     75 H23        -6.7130    2.1970    7.8930 hx        1 4OL      0.116200
     76 H24        -8.2530    3.0150    8.4300 hx        1 4OL      0.116200
     77 H25        -5.3140    3.7310    8.9320 hc        1 4OL      0.091700
     78 H26        -6.3960    5.1410    8.6580 hc        1 4OL      0.091700
     79 H27        -7.9650    3.5420   10.4170 hx        1 4OL      0.120200
     80 H28        -6.2500    3.1490   10.9420 hx        1 4OL      0.120200
     81 H29        -7.3480    5.9340   10.6950 hn        1 4OL      0.480050
     82 H30        -7.8890    8.4180   11.8580 ho        1 4OL      0.485000
     83 H31        -5.0240    9.5440   15.2630 ha        1 4OL      0.217500
     84 H32        -3.2590    7.7200   15.0730 ha        1 4OL      0.202000
     85 H33        -3.5100    5.9370   13.3510 ha        1 4OL      0.193000
     86 H34        -5.1200    3.3170    5.0170 hc        1 4OL      0.080450
     87 H35        -5.2530    1.9220    6.1690 hc        1 4OL      0.080450
     88 H36        -7.0610    0.9630    0.3150 ho        1 4OL      0.472000
     89 H37         0.8010   -1.3340    3.3120 hn        1 4OL      0.480050
     90 H38         2.8670    0.6740    3.2720 ho        1 4OL      0.485000
     91 C20        -7.1760    2.7790    5.5500 c3        1 4OL      0.106800
     92 H211       -6.7420    4.5650    6.5160 hn        1 4OL      0.472300
     93 H322       -7.4020    5.0130   12.0760 hn        1 4OL      0.480050
     94 H151       -4.7720    0.7630    1.7410 hn        1 4OL      0.472300
     95 H92        -0.0610   -2.7200    2.9480 hn        1 4OL      0.480050
     96 O49        -8.0650   -0.5040   -0.9390 o         1 4OL     -0.530000
@<TRIPOS>BOND
     1    1    2 1   
     2    1   48 1   
     3    1   49 2   
     4    2    6 2   
     5    2   50 1   
     6    3    4 2   
     7    3    6 1   
     8    3   53 1   
     9    4    5 1   
    10    4   54 1   
    11    5   50 1   
    12    5   51 2   
    13    6   55 1   
    14    7    8 1   
    15    7   48 1   
    16    7   56 1   
    17    7   57 1   
    18    8    9 1   
    19    8   58 1   
    20    8   59 1   
    21    9   43 1   
    22    9   60 1   
    23    9   61 1   
    24   10   43 1   
    25   10   44 2   
    26   10   45 1   
    27   11   12 1   
    28   11   43 1   
    29   11   62 1   
    30   11   63 1   
    31   12   42 1   
    32   12   64 1   
    33   12   65 1   
    34   13   14 1   
    35   13   45 2   
    36   13   68 1   
    37   14   15 2   
    38   14   69 1   
    39   15   16 1   
    40   15   70 1   
    41   16   46 1   
    42   16   96 2   
    43   17   18 2   
    44   18   19 1   
    45   18   27 1   
    46   19   20 2   
    47   19   25 1   
    48   20   21 1   
    49   20   71 1   
    50   21   22 2   
    51   21   72 1   
    52   22   23 1   
    53   22   73 1   
    54   23   24 2   
    55   23   25 1   
    56   25   26 1   
    57   26   74 1   
    58   27   28 1   
    59   27   91 1   
    60   27   92 1   
    61   28   29 1   
    62   28   75 1   
    63   28   76 1   
    64   29   30 1   
    65   29   77 1   
    66   29   78 1   
    67   30   31 1   
    68   30   79 1   
    69   30   80 1   
    70   31   32 1   
    71   31   81 1   
    72   31   93 1   
    73   32   33 2   
    74   32   34 1   
    75   34   35 1   
    76   34   41 2   
    77   35   36 1   
    78   35   37 1   
    79   36   82 1   
    80   37   38 2   
    81   37   39 1   
    82   39   40 2   
    83   39   83 1   
    84   40   41 1   
    85   40   84 1   
    86   41   85 1   
    87   42   86 1   
    88   42   87 1   
    89   42   91 1   
    90   43   94 1   
    91   45   46 1   
    92   46   47 1   
    93   47   88 1   
    94   48   89 1   
    95   48   95 1   
    96   50   52 1   
    97   52   90 1   
    98   66   91 1   
    99   67   91 1   
@<TRIPOS>SUBSTRUCTURE
     1 4OL         1 TEMP              0 ****  ****    0 ROOT
