@<TRIPOS>MOLECULE
4OO
   26    26     1     0     0
SMALL
bcc


@<TRIPOS>ATOM
      1 N1          0.4540   -0.2050    0.2000 ne        1 4OO      0.000600
      2 N2          1.1490    0.7490   -0.2270 n1        1 4OO      0.055000
      3 N3          2.2960    1.1310   -0.2900 n2        1 4OO     -0.230400
      4 C          -2.2740    0.8960    6.7300 c         1 4OO      0.949600
      5 O          -2.3460    0.8630    7.9760 o         1 4OO     -0.732300
      6 CA         -2.2790   -0.5910    6.0390 c3        1 4OO     -0.104500
      7 N          -2.8810   -1.5430    7.0140 nz        1 4OO     -0.825600
      8 CB         -2.9950   -0.5580    4.6940 c3        1 4OO     -0.074100
      9 CG         -2.0590   -0.4620    3.5440 ca        1 4OO      0.106700
     10 CD2        -2.2000   -1.3290    2.4420 ca        1 4OO     -0.171000
     11 CE2        -1.3890   -1.2140    1.3320 ca        1 4OO      0.005500
     12 CZ         -0.3590   -0.2080    1.2970 ca        1 4OO      0.002400
     13 CE1        -0.2380    0.6810    2.4200 ca        1 4OO      0.005500
     14 CD1        -1.0630    0.5390    3.5120 ca        1 4OO     -0.171000
     15 H1          2.4490    1.8810   -0.9680 hn        1 4OO      0.490400
     16 H3         -1.1970   -0.8670    5.9190 hx        1 4OO      0.091700
     17 H4         -3.8900   -1.6030    6.8800 hn        1 4OO      0.455467
     18 H5         -2.4690   -2.4700    6.9520 hn        1 4OO      0.455467
     19 H7         -3.6790   -1.4380    4.5530 hc        1 4OO      0.098200
     20 H8         -3.6350    0.3800    4.6710 hc        1 4OO      0.098200
     21 H9         -2.9860   -2.1050    2.4550 ha        1 4OO      0.207500
     22 H10        -1.5230   -1.8960    0.4710 ha        1 4OO      0.177000
     23 H11         0.5190    1.4850    2.4160 ha        1 4OO      0.177000
     24 H12        -0.9850    1.2450    4.3720 ha        1 4OO      0.207500
     25 HN3        -2.7010   -1.1290    7.9610 hn        1 4OO      0.455467
     26 O1         -2.1840    1.8340    5.9230 o         1 4OO     -0.732300
@<TRIPOS>BOND
     1    1    2 2   
     2    1   12 1   
     3    2    3 2   
     4    3   15 1   
     5    4    5 1   
     6    4    6 1   
     7    4   26 1   
     8    6    7 1   
     9    6    8 1   
    10    6   16 1   
    11    7   17 1   
    12    7   18 1   
    13    7   25 1   
    14    8    9 1   
    15    8   19 1   
    16    8   20 1   
    17    9   10 ar  
    18    9   14 ar  
    19   10   11 ar  
    20   10   21 1   
    21   11   12 ar  
    22   11   22 1   
    23   12   13 ar  
    24   13   14 ar  
    25   13   23 1   
    26   14   24 1   
@<TRIPOS>SUBSTRUCTURE
     1 4OO         1 TEMP              0 ****  ****    0 ROOT
