@<TRIPOS>MOLECULE
4OO
   26    26     1     0     0
SMALL
bcc


@<TRIPOS>ATOM
      1 N1          0.4330    0.6660    0.3180 ne        1 4OO      0.001600
      2 N2          1.5230    0.1590   -0.0580 n1        1 4OO      0.044000
      3 N3          1.9410   -0.6590   -0.8480 n2        1 4OO     -0.238400
      4 C          -4.2830    1.7860    5.5010 c         1 4OO      0.950600
      5 O          -4.8070    2.2800    6.5200 o         1 4OO     -0.729800
      6 CA         -2.9400    0.8990    5.8280 c3        1 4OO     -0.107500
      7 N          -3.0030    0.4920    7.2590 n4        1 4OO     -0.824600
      8 CB         -2.8220   -0.2740    4.8620 c3        1 4OO     -0.074100
      9 CG         -1.9040   -0.0020    3.7260 ca        1 4OO      0.113700
     10 CD2        -2.0200    1.1780    2.9710 ca        1 4OO     -0.173000
     11 CE2        -1.2160    1.4060    1.8720 ca        1 4OO      0.011000
     12 CZ         -0.2460    0.4170    1.4700 ca        1 4OO      0.005400
     13 CE1        -0.1180   -0.7720    2.2710 ca        1 4OO      0.011000
     14 CD1        -0.9350   -0.9680    3.3590 ca        1 4OO     -0.173000
     15 H1          2.9480   -0.5950   -1.0130 hn        1 4OO      0.486400
     16 H3         -2.0780    1.6110    5.7150 hx        1 4OO      0.091700
     17 H4         -3.5830    1.2260    7.7350 hn        1 4OO      0.455133
     18 H5         -3.4810   -0.4030    7.3580 hn        1 4OO      0.455133
     19 H7         -3.8500   -0.4470    4.4100 hc        1 4OO      0.098700
     20 H8         -2.5140   -1.2230    5.3800 hc        1 4OO      0.098700
     21 H9         -2.8070    1.9200    3.2460 ha        1 4OO      0.207500
     22 H10        -1.3310    2.3390    1.2870 ha        1 4OO      0.179000
     23 H11         0.6290   -1.5400    2.0050 ha        1 4OO      0.179000
     24 H12        -0.8430   -1.8950    3.9510 ha        1 4OO      0.207500
     25 HN3        -2.0830    0.4410    7.6870 hn        1 4OO      0.455133
     26 O1         -4.5710    1.8450    4.2960 o         1 4OO     -0.729800
@<TRIPOS>BOND
     1    1    2 2   
     2    1   12 1   
     3    2    3 2   
     4    3   15 1   
     5    4    5 1   
     6    4    6 1   
     7    4   26 1   
     8    6    7 1   
     9    6    8 1   
    10    6   16 1   
    11    7   17 1   
    12    7   18 1   
    13    7   25 1   
    14    8    9 1   
    15    8   19 1   
    16    8   20 1   
    17    9   10 ar  
    18    9   14 ar  
    19   10   11 ar  
    20   10   21 1   
    21   11   12 ar  
    22   11   22 1   
    23   12   13 ar  
    24   13   14 ar  
    25   13   23 1   
    26   14   24 1   
@<TRIPOS>SUBSTRUCTURE
     1 4OO         1 TEMP              0 ****  ****    0 ROOT
