@<TRIPOS>MOLECULE
4OP
   24    24     1     0     0
SMALL
bcc


@<TRIPOS>ATOM
      1 CN1        -0.7260    1.5670   -1.1090 c3        1 4OP      0.092100
      2 N           0.1210    1.1210    0.0280 n4        1 4OP     -0.580800
      3 CD          1.5060    0.7430   -0.4340 c3        1 4OP      0.075800
      4 CG          1.9370   -0.5530    0.3090 c3        1 4OP      0.164100
      5 CB          0.7500   -0.9270    1.2060 c3        1 4OP     -0.121400
      6 CA         -0.4430   -0.1420    0.6700 c3        1 4OP     -0.041500
      7 C          -1.2200   -1.0310   -0.4010 c         1 4OP      0.928600
      8 OXT        -2.4190   -1.2360   -0.1400 o         1 4OP     -0.771300
      9 O          -0.5410   -1.4090   -1.3900 o         1 4OP     -0.771300
     10 OG          2.2690   -1.5540   -0.6150 oh        1 4OP     -0.600800
     11 CN2         0.1950    2.2060    1.0410 c3        1 4OP      0.092100
     12 H1         -1.7850    1.6670   -0.7520 hx        1 4OP      0.090200
     13 H2         -0.3430    2.5480   -1.4910 hx        1 4OP      0.090200
     14 H3         -0.6960    0.7910   -1.9270 hx        1 4OP      0.090200
     15 H4          1.4750    0.5280   -1.5400 hx        1 4OP      0.096700
     16 H5          2.2160    1.5860   -0.2340 hx        1 4OP      0.096700
     17 H6          2.8770   -0.3750    0.8970 h1        1 4OP      0.082700
     18 H7          0.5370   -2.0250    1.1390 hc        1 4OP      0.080200
     19 H8          0.9660   -0.6690    2.2710 hc        1 4OP      0.080200
     20 H9         -1.1650    0.1540    1.4760 hx        1 4OP      0.094700
     21 H11         1.4500   -1.8410   -1.0620 ho        1 4OP      0.462000
     22 H12         0.8010    1.8510    1.9150 hx        1 4OP      0.090200
     23 H13         0.6740    3.1150    0.5920 hx        1 4OP      0.090200
     24 H14        -0.8420    2.4630    1.3840 hx        1 4OP      0.090200
@<TRIPOS>BOND
     1    1    2 1   
     2    1   12 1   
     3    1   13 1   
     4    1   14 1   
     5    2    3 1   
     6    2    6 1   
     7    2   11 1   
     8    3    4 1   
     9    3   15 1   
    10    3   16 1   
    11    4    5 1   
    12    4   10 1   
    13    4   17 1   
    14    5    6 1   
    15    5   18 1   
    16    5   19 1   
    17    6    7 1   
    18    6   20 1   
    19    7    8 1   
    20    7    9 1   
    21   10   21 1   
    22   11   22 1   
    23   11   23 1   
    24   11   24 1   
@<TRIPOS>SUBSTRUCTURE
     1 4OP         1 TEMP              0 ****  ****    0 ROOT
