@<TRIPOS>MOLECULE
4OP
   24    24     1     0     0
SMALL
bcc


@<TRIPOS>ATOM
      1 CN1        -2.0480    0.3730    0.1070 c3        1 4OP      0.093100
      2 N          -0.6020    0.3730    0.1070 n4        1 4OP     -0.577800
      3 CD         -0.1620    0.3730    1.3210 c3        1 4OP      0.101800
      4 CG          1.1470   -0.4260    1.2900 c3        1 4OP      0.128100
      5 CB          1.1960   -1.1150   -0.0720 c3        1 4OP     -0.125400
      6 CA         -0.0490   -0.9800   -0.6000 c3        1 4OP     -0.027500
      7 C          -0.0730   -0.9360   -2.1300 c         1 4OP      0.934600
      8 OXT        -1.0930   -1.3390   -2.7550 o         1 4OP     -0.769800
      9 O           0.9520   -0.5680   -2.7660 o         1 4OP     -0.769800
     10 OG          2.2160    0.4150    1.4320 oh        1 4OP     -0.606800
     11 CN2        -0.1080    1.5380   -0.5980 c3        1 4OP      0.093100
     12 H1         -2.3730    0.4540   -0.8100 hx        1 4OP      0.097200
     13 H2         -2.3730    1.1260    0.6360 hx        1 4OP      0.097200
     14 H3         -2.3730   -0.4620    0.4950 hx        1 4OP      0.097200
     15 H4          0.0080    1.2870    1.6180 hx        1 4OP      0.093200
     16 H5         -0.8070   -0.0590    1.9130 hx        1 4OP      0.093200
     17 H6          1.1490   -1.0940    2.0030 h1        1 4OP      0.064700
     18 H7          1.4160   -2.0600    0.0350 hc        1 4OP      0.095200
     19 H8          1.8550   -0.6790   -0.6460 hc        1 4OP      0.095200
     20 H9         -0.6150   -1.7530   -0.4120 hx        1 4OP      0.078700
     21 H11         2.7280    0.1330    2.1000 ho        1 4OP      0.425000
     22 H12        -0.4700    1.5470   -1.5040 hx        1 4OP      0.097200
     23 H13         0.8670    1.5050   -0.6370 hx        1 4OP      0.097200
     24 H14        -0.3880    2.3460   -0.1270 hx        1 4OP      0.097200
@<TRIPOS>BOND
     1    1    2 1   
     2    1   12 1   
     3    1   13 1   
     4    1   14 1   
     5    2    3 1   
     6    2    6 1   
     7    2   11 1   
     8    3    4 1   
     9    3   15 1   
    10    3   16 1   
    11    4    5 1   
    12    4   10 1   
    13    4   17 1   
    14    5    6 1   
    15    5   18 1   
    16    5   19 1   
    17    6    7 1   
    18    6   20 1   
    19    7    8 1   
    20    7    9 1   
    21   10   21 1   
    22   11   22 1   
    23   11   23 1   
    24   11   24 1   
@<TRIPOS>SUBSTRUCTURE
     1 4OP         1 TEMP              0 ****  ****    0 ROOT
