@<TRIPOS>MOLECULE
4OQ
   48    51     1     0     0
SMALL
bcc


@<TRIPOS>ATOM
      1 C1         -0.3440   -0.1750    0.4030 c3        1 4OQ      0.050300
      2 C2          1.9860    0.0570    1.1750 ca        1 4OQ     -0.091500
      3 C3          2.7720    0.3730    0.0470 ca        1 4OQ     -0.098000
      4 C11         0.6440   -4.3190    3.2430 ca        1 4OQ     -0.005600
      5 C12         0.4940   -4.3420    1.8530 ca        1 4OQ     -0.102000
      6 C13         0.5340   -3.1540    1.1390 ca        1 4OQ     -0.132000
      7 C14         0.7140   -1.9120    1.7940 ca        1 4OQ      0.048800
      8 C15         0.5850    0.3400    6.2330 c3        1 4OQ      0.178800
      9 C16        -0.1450    1.6940    6.1560 c3        1 4OQ      0.135300
     10 C17        -2.2680    2.8180    5.9360 c3        1 4OQ      0.157100
     11 C18        -1.9880    0.6100    5.0110 c3        1 4OQ      0.135300
     12 C19        -1.2430   -0.7380    5.1000 c3        1 4OQ      0.178800
     13 Cl          0.6360   -5.7760    4.1180 cl        1 4OQ     -0.087400
     14 C10         0.7960   -3.1080    3.9160 ca        1 4OQ     -0.073000
     15 N           0.8430   -0.7590    0.9820 na        1 4OQ     -0.168300
     16 C          -1.2740    0.5810    1.3380 c3        1 4OQ     -0.133100
     17 C9          0.8000   -1.9000    3.2060 ca        1 4OQ     -0.219500
     18 C8          0.9030   -0.6140    3.9630 cc        1 4OQ      0.454400
     19 N2          0.2050   -0.6340    5.2220 nh        1 4OQ     -0.733300
     20 N3         -1.5910    1.5460    6.0530 n3        1 4OQ     -0.730600
     21 N1          1.5930    0.4340    3.6090 nd        1 4OQ     -0.437000
     22 C7          2.3800    0.5440    2.4570 ca        1 4OQ      0.377600
     23 C6          3.5760    1.2850    2.5700 ca        1 4OQ     -0.210300
     24 C5          4.3430    1.5670    1.4330 ca        1 4OQ      0.123900
     25 F           5.4890    2.2820    1.5570 f         1 4OQ     -0.140900
     26 C4          3.9330    1.1200    0.1640 ca        1 4OQ     -0.167000
     27 H1         -0.9220   -1.0170   -0.0760 h1        1 4OQ      0.051200
     28 H2         -0.0010    0.5260   -0.4120 h1        1 4OQ      0.051200
     29 H3          2.4630    0.0170   -0.9490 ha        1 4OQ      0.146000
     30 H4          0.3570   -5.2980    1.3230 ha        1 4OQ      0.151000
     31 H5          0.4370   -3.1810    0.0410 ha        1 4OQ      0.149000
     32 H6          0.3430   -0.1480    7.2220 h1        1 4OQ      0.066200
     33 H7          1.6910    0.5310    6.2000 h1        1 4OQ      0.066200
     34 H8          0.2780    2.2910    5.2960 h1        1 4OQ      0.042450
     35 H9          0.0700    2.2590    7.1060 h1        1 4OQ      0.042450
     36 H10        -1.9880    3.4560    6.8150 h1        1 4OQ      0.032700
     37 H11        -2.0120    3.3760    4.9930 h1        1 4OQ      0.032700
     38 H12        -3.3750    2.6410    5.9550 h1        1 4OQ      0.032700
     39 H13        -1.8320    1.0440    3.9790 h1        1 4OQ      0.042450
     40 H14        -3.0870    0.4050    5.1370 h1        1 4OQ      0.042450
     41 H15        -1.5940   -1.2910    6.0180 h1        1 4OQ      0.066200
     42 H16        -1.5100   -1.3480    4.1930 h1        1 4OQ      0.066200
     43 H17         0.9090   -3.1040    5.0130 ha        1 4OQ      0.168000
     44 H18        -0.7470    1.4280    1.8380 hc        1 4OQ      0.044033
     45 H19        -1.6850   -0.0970    2.1250 hc        1 4OQ      0.044033
     46 H20        -2.1260    0.9920    0.7440 hc        1 4OQ      0.044033
     47 H22         3.9100    1.6590    3.5510 ha        1 4OQ      0.161000
     48 H23         4.5400    1.3590   -0.7210 ha        1 4OQ      0.151000
@<TRIPOS>BOND
     1    1   15 1   
     2    1   16 1   
     3    1   27 1   
     4    1   28 1   
     5    2    3 ar  
     6    2   15 1   
     7    2   22 ar  
     8    3   26 ar  
     9    3   29 1   
    10    4    5 ar  
    11    4   13 1   
    12    4   14 ar  
    13    5    6 ar  
    14    5   30 1   
    15    6    7 ar  
    16    6   31 1   
    17    7   15 1   
    18    7   17 ar  
    19    8    9 1   
    20    8   19 1   
    21    8   32 1   
    22    8   33 1   
    23    9   20 1   
    24    9   34 1   
    25    9   35 1   
    26   10   20 1   
    27   10   36 1   
    28   10   37 1   
    29   10   38 1   
    30   11   12 1   
    31   11   20 1   
    32   11   39 1   
    33   11   40 1   
    34   12   19 1   
    35   12   41 1   
    36   12   42 1   
    37   14   17 ar  
    38   14   43 1   
    39   16   44 1   
    40   16   45 1   
    41   16   46 1   
    42   17   18 1   
    43   18   19 1   
    44   18   21 2   
    45   21   22 1   
    46   22   23 ar  
    47   23   24 ar  
    48   23   47 1   
    49   24   25 1   
    50   24   26 ar  
    51   26   48 1   
@<TRIPOS>SUBSTRUCTURE
     1 4OQ         1 TEMP              0 ****  ****    0 ROOT
