@<TRIPOS>MOLECULE
4OQ
   48    51     1     0     0
SMALL
bcc


@<TRIPOS>ATOM
      1 C1         -0.3280   -0.1790    0.3990 c3        1 4OQ      0.050300
      2 C2          1.9980    0.0440    1.1840 ca        1 4OQ     -0.091500
      3 C3          2.7920    0.3540    0.0590 ca        1 4OQ     -0.098000
      4 C11         0.6250   -4.3200    3.2560 ca        1 4OQ     -0.005600
      5 C12         0.4820   -4.3460    1.8660 ca        1 4OQ     -0.102000
      6 C13         0.5310   -3.1600    1.1480 ca        1 4OQ     -0.132000
      7 C14         0.7140   -1.9170    1.8020 ca        1 4OQ      0.048800
      8 C15         0.5700    0.3470    6.2330 c3        1 4OQ      0.178800
      9 C16        -0.1530    1.7050    6.1470 c3        1 4OQ      0.135300
     10 C17        -2.2690    2.8380    5.9120 c3        1 4OQ      0.157100
     11 C18        -1.9940    0.6270    4.9950 c3        1 4OQ      0.135300
     12 C19        -1.2570   -0.7250    5.0920 c3        1 4OQ      0.178800
     13 CL          0.6050   -5.7750    4.1350 cl        1 4OQ     -0.087400
     14 C10         0.7780   -3.1070    3.9270 ca        1 4OQ     -0.073000
     15 N           0.8530   -0.7670    0.9870 na        1 4OQ     -0.168300
     16 C          -1.2610    0.5830    1.3260 c3        1 4OQ     -0.133100
     17 C9          0.7920   -1.9020    3.2140 ca        1 4OQ     -0.219500
     18 C8          0.8970   -0.6140    3.9680 cc        1 4OQ      0.454400
     19 N2          0.1910   -0.6270    5.2220 nh        1 4OQ     -0.733300
     20 N3         -1.6000    1.5640    6.0370 n3        1 4OQ     -0.730600
     21 N1          1.5940    0.4290    3.6150 nd        1 4OQ     -0.437000
     22 C7          2.3870    0.5320    2.4670 ca        1 4OQ      0.377600
     23 C6          3.5860    1.2680    2.5840 ca        1 4OQ     -0.210300
     24 C5          4.3610    1.5430    1.4510 ca        1 4OQ      0.123900
     25 F           5.5090    2.2530    1.5800 f         1 4OQ     -0.140900
     26 C4          3.9560    1.0950    0.1810 ca        1 4OQ     -0.167000
     27 H1          0.0230    0.5170   -0.4160 h1        1 4OQ      0.051200
     28 H2         -0.9070   -1.0210   -0.0820 h1        1 4OQ      0.051200
     29 H3          2.4870   -0.0040   -0.9380 ha        1 4OQ      0.146000
     30 H4          0.3430   -5.3030    1.3380 ha        1 4OQ      0.151000
     31 H5          0.4400   -3.1900    0.0500 ha        1 4OQ      0.149000
     32 H6          1.6770    0.5330    6.2060 h1        1 4OQ      0.066200
     33 H7          0.3200   -0.1370    7.2220 h1        1 4OQ      0.066200
     34 H8          0.0590    2.2710    7.0970 h1        1 4OQ      0.042450
     35 H9          0.2780    2.2970    5.2880 h1        1 4OQ      0.042450
     36 H10        -1.9920    3.4780    6.7900 h1        1 4OQ      0.032700
     37 H11        -3.3770    2.6670    5.9250 h1        1 4OQ      0.032700
     38 H12        -2.0050    3.3920    4.9690 h1        1 4OQ      0.032700
     39 H13        -1.8310    1.0560    3.9620 h1        1 4OQ      0.042450
     40 H14        -3.0960    0.4270    5.1150 h1        1 4OQ      0.042450
     41 H15        -1.6160   -1.2740    6.0100 h1        1 4OQ      0.066200
     42 H16        -1.5220   -1.3360    4.1860 h1        1 4OQ      0.066200
     43 H17         0.8850   -3.1020    5.0240 ha        1 4OQ      0.168000
     44 H18        -1.6790   -0.0910    2.1130 hc        1 4OQ      0.044033
     45 H19        -0.7320    1.4290    1.8270 hc        1 4OQ      0.044033
     46 H20        -2.1070    0.9970    0.7260 hc        1 4OQ      0.044033
     47 H22         3.9160    1.6430    3.5660 ha        1 4OQ      0.161000
     48 H23         4.5690    1.3290   -0.7010 ha        1 4OQ      0.151000
@<TRIPOS>BOND
     1    1   15 1   
     2    1   16 1   
     3    1   27 1   
     4    1   28 1   
     5    2    3 ar  
     6    2   15 1   
     7    2   22 ar  
     8    3   26 ar  
     9    3   29 1   
    10    4    5 ar  
    11    4   13 1   
    12    4   14 ar  
    13    5    6 ar  
    14    5   30 1   
    15    6    7 ar  
    16    6   31 1   
    17    7   15 1   
    18    7   17 ar  
    19    8    9 1   
    20    8   19 1   
    21    8   32 1   
    22    8   33 1   
    23    9   20 1   
    24    9   34 1   
    25    9   35 1   
    26   10   20 1   
    27   10   36 1   
    28   10   37 1   
    29   10   38 1   
    30   11   12 1   
    31   11   20 1   
    32   11   39 1   
    33   11   40 1   
    34   12   19 1   
    35   12   41 1   
    36   12   42 1   
    37   14   17 ar  
    38   14   43 1   
    39   16   44 1   
    40   16   45 1   
    41   16   46 1   
    42   17   18 1   
    43   18   19 1   
    44   18   21 2   
    45   21   22 1   
    46   22   23 ar  
    47   23   24 ar  
    48   23   47 1   
    49   24   25 1   
    50   24   26 ar  
    51   26   48 1   
@<TRIPOS>SUBSTRUCTURE
     1 4OQ         1 TEMP              0 ****  ****    0 ROOT
