@<TRIPOS>MOLECULE
4OR
   63    66     1     0     0
SMALL
bcc


@<TRIPOS>ATOM
      1 C1          0.4140    0.4730    0.1850 c3        1 4OR      0.004300
      2 C2          2.4330    0.0140    1.4860 ca        1 4OR     -0.067500
      3 C3          3.2610    0.1550    0.3530 ca        1 4OR     -0.128000
      4 C11        -0.1150    1.8030    8.1460 c3        1 4OR      0.067000
      5 C12         1.6770    1.3820    6.5770 c3        1 4OR      0.077000
      6 C13         2.1150    2.9440    8.3940 c         1 4OR      0.639100
      7 C14         2.4360    3.1470   10.9180 c3        1 4OR      0.171200
      8 C15         3.8680    3.6800   10.9200 c3        1 4OR     -0.134767
      9 C16         2.4430    1.6220   10.9360 c3        1 4OR     -0.134767
     10 C17         1.6890    3.6780   12.1440 c3        1 4OR     -0.134767
     11 C18         0.5920   -1.6770    3.2110 ca        1 4OR     -0.257500
     12 C19         0.1200   -2.9080    3.6880 ca        1 4OR     -0.120000
     13 C20        -0.4860   -3.8110    2.8180 ca        1 4OR      0.012400
     14 C21        -0.6090   -3.4940    1.4550 ca        1 4OR     -0.051000
     15 C22        -0.1110   -2.2930    0.9710 ca        1 4OR     -0.141000
     16 C23         0.5080   -1.3580    1.8320 ca        1 4OR      0.061800
     17 CL         -1.0620   -5.2870    3.4010 cl        1 4OR     -0.020400
     18 N           1.0140   -0.1050    1.3840 na        1 4OR     -0.120300
     19 C          -1.0760    0.7400    0.3160 c3        1 4OR     -0.105100
     20 C8          1.2400   -0.7160    4.1210 cc        1 4OR      0.344400
     21 N1          2.2900    0.0210    3.9720 nd        1 4OR     -0.324000
     22 C7          3.0330    0.0870    2.7830 ca        1 4OR      0.320600
     23 C6          4.4210    0.3100    2.9050 ca        1 4OR     -0.178300
     24 C5          5.2100    0.4470    1.7560 ca        1 4OR      0.138900
     25 F           6.5390    0.6550    1.8810 f         1 4OR     -0.104900
     26 C4          4.6250    0.3670    0.4760 ca        1 4OR     -0.097000
     27 N2          0.5290   -0.6000    5.4510 n4        1 4OR     -0.773700
     28 C9          0.3780    0.8060    5.9430 c3        1 4OR      0.118500
     29 N3          1.3050    1.9510    7.8720 n         1 4OR     -0.445800
     30 C10        -0.7160    0.9420    7.0240 c3        1 4OR     -0.116400
     31 O           3.2150    3.2620    7.9290 o         1 4OR     -0.471100
     32 N4          1.6990    3.6590    9.6600 n4        1 4OR     -0.663800
     33 H1          0.9400    1.4560    0.0040 h1        1 4OR      0.060700
     34 H2          0.5910   -0.1810   -0.7190 h1        1 4OR      0.060700
     35 H3          2.8270    0.0950   -0.6600 ha        1 4OR      0.168000
     36 H4         -0.2460    1.2980    9.1450 h1        1 4OR      0.078200
     37 H5         -0.6380    2.8010    8.1750 h1        1 4OR      0.078200
     38 H6          2.4660    0.5970    6.7560 h1        1 4OR      0.114200
     39 H7          2.1230    2.1660    5.8990 h1        1 4OR      0.114200
     40 H8          4.3990    3.2560   11.8110 hc        1 4OR      0.083367
     41 H9          3.8870    4.7950   11.0040 hc        1 4OR      0.083367
     42 H10         4.4250    3.3700   10.0010 hc        1 4OR      0.083367
     43 H11         2.9080    1.2850   11.8990 hc        1 4OR      0.083367
     44 H12         1.4090    1.2040   10.8880 hc        1 4OR      0.083367
     45 H13         3.0550    1.2100   10.0970 hc        1 4OR      0.083367
     46 H14         0.6540    3.2620   12.2090 hc        1 4OR      0.083367
     47 H15         2.2490    3.3530   13.0590 hc        1 4OR      0.083367
     48 H16         1.6450    4.7940   12.1510 hc        1 4OR      0.083367
     49 H17         0.2570   -3.1960    4.7420 ha        1 4OR      0.135000
     50 H18        -1.0890   -4.2100    0.7630 ha        1 4OR      0.185000
     51 H19        -0.2020   -2.0770   -0.1080 ha        1 4OR      0.174000
     52 H20        -1.2900    1.4410    1.1570 hc        1 4OR      0.053700
     53 H21        -1.6480   -0.2040    0.4820 hc        1 4OR      0.053700
     54 H22        -1.4310    1.2090   -0.6350 hc        1 4OR      0.053700
     55 H23         4.9010    0.3670    3.8950 ha        1 4OR      0.169000
     56 H24         5.2610    0.4700   -0.4200 ha        1 4OR      0.185000
     57 H25        -0.4100   -1.0050    5.3190 hn        1 4OR      0.464300
     58 H26         0.1030    1.4310    5.0400 hx        1 4OR      0.142700
     59 H27        -1.6210    1.4420    6.5930 hc        1 4OR      0.101200
     60 H28        -1.0430   -0.0450    7.4420 hc        1 4OR      0.101200
     61 H29         1.9560    4.6500    9.5400 hn        1 4OR      0.464300
     62 H221        1.0380   -1.1630    6.1440 hn        1 4OR      0.464300
     63 H42         0.6930    3.5900    9.8260 hn        1 4OR      0.464300
@<TRIPOS>BOND
     1    1   18 1   
     2    1   19 1   
     3    1   33 1   
     4    1   34 1   
     5    2    3 ar  
     6    2   18 1   
     7    2   22 ar  
     8    3   26 ar  
     9    3   35 1   
    10    4   29 1   
    11    4   30 1   
    12    4   36 1   
    13    4   37 1   
    14    5   28 1   
    15    5   29 1   
    16    5   38 1   
    17    5   39 1   
    18    6   29 1   
    19    6   31 2   
    20    6   32 1   
    21    7    8 1   
    22    7    9 1   
    23    7   10 1   
    24    7   32 1   
    25    8   40 1   
    26    8   41 1   
    27    8   42 1   
    28    9   43 1   
    29    9   44 1   
    30    9   45 1   
    31   10   46 1   
    32   10   47 1   
    33   10   48 1   
    34   11   12 ar  
    35   11   16 ar  
    36   11   20 1   
    37   12   13 ar  
    38   12   49 1   
    39   13   14 ar  
    40   13   17 1   
    41   14   15 ar  
    42   14   50 1   
    43   15   16 ar  
    44   15   51 1   
    45   16   18 1   
    46   19   52 1   
    47   19   53 1   
    48   19   54 1   
    49   20   21 2   
    50   20   27 1   
    51   21   22 1   
    52   22   23 ar  
    53   23   24 ar  
    54   23   55 1   
    55   24   25 1   
    56   24   26 ar  
    57   26   56 1   
    58   27   28 1   
    59   27   57 1   
    60   27   62 1   
    61   28   30 1   
    62   28   58 1   
    63   30   59 1   
    64   30   60 1   
    65   32   61 1   
    66   32   63 1   
@<TRIPOS>SUBSTRUCTURE
     1 4OR         1 TEMP              0 ****  ****    0 ROOT
