@<TRIPOS>MOLECULE
4OR
   63    66     1     0     0
SMALL
bcc


@<TRIPOS>ATOM
      1 C1          0.3990    0.4570    0.1880 c3        1 4OR      0.004300
      2 C2          2.4250    0.0130    1.4830 ca        1 4OR     -0.067500
      3 C3          3.2480    0.1550    0.3480 ca        1 4OR     -0.128000
      4 C11        -0.1120    1.8010    8.1490 c3        1 4OR      0.067000
      5 C12         1.6780    1.3850    6.5760 c3        1 4OR      0.077000
      6 C13         2.1140    2.9520    8.3890 c         1 4OR      0.639100
      7 C14         2.4400    3.1610   10.9120 c3        1 4OR      0.171200
      8 C15         3.8700    3.7010   10.9100 c3        1 4OR     -0.134767
      9 C16         2.4540    1.6360   10.9330 c3        1 4OR     -0.134767
     10 C17         1.6930    3.6910   12.1380 c3        1 4OR     -0.134767
     11 C18         0.5980   -1.6850    3.2170 ca        1 4OR     -0.257500
     12 C19         0.1350   -2.9180    3.6990 ca        1 4OR     -0.120000
     13 C20        -0.4690   -3.8260    2.8330 ca        1 4OR      0.012400
     14 C21        -0.5980   -3.5120    1.4700 ca        1 4OR     -0.051000
     15 C22        -0.1080   -2.3100    0.9810 ca        1 4OR     -0.141000
     16 C23         0.5080   -1.3700    1.8380 ca        1 4OR      0.061800
     17 Cl         -1.0350   -5.3040    3.4210 cl        1 4OR     -0.020400
     18 N           1.0060   -0.1150    1.3860 na        1 4OR     -0.120300
     19 C          -1.0920    0.7160    0.3230 c3        1 4OR     -0.105100
     20 C8          1.2440   -0.7190    4.1240 cc        1 4OR      0.344400
     21 N1          2.2900    0.0240    3.9700 nd        1 4OR     -0.324000
     22 C7          3.0280    0.0920    2.7780 ca        1 4OR      0.320600
     23 C6          4.4150    0.3230    2.8950 ca        1 4OR     -0.178300
     24 C5          5.2000    0.4610    1.7430 ca        1 4OR      0.138900
     25 F           6.5280    0.6770    1.8640 f         1 4OR     -0.104900
     26 C4          4.6110    0.3750    0.4660 ca        1 4OR     -0.097000
     27 N2          0.5370   -0.6040    5.4560 ny        1 4OR     -0.773700
     28 C9          0.3800    0.8020    5.9460 c3        1 4OR      0.118500
     29 N3          1.3070    1.9550    7.8700 n         1 4OR     -0.445800
     30 C10        -0.7120    0.9340    7.0290 c3        1 4OR     -0.116400
     31 O           3.2120    3.2740    7.9210 o         1 4OR     -0.471100
     32 N4          1.6980    3.6670    9.6540 ny        1 4OR     -0.663800
     33 H1          0.5770   -0.1980   -0.7150 h1        1 4OR      0.060700
     34 H2          0.9190    1.4420    0.0030 h1        1 4OR      0.060700
     35 H3          2.8120    0.0910   -0.6650 ha        1 4OR      0.168000
     36 H4         -0.2380    1.2970    9.1490 h1        1 4OR      0.078200
     37 H5         -0.6390    2.7970    8.1760 h1        1 4OR      0.078200
     38 H6          2.4710    0.6040    6.7540 h1        1 4OR      0.114200
     39 H7          2.1190    2.1710    5.8950 h1        1 4OR      0.114200
     40 H8          4.4260    3.3920    9.9900 hc        1 4OR      0.083367
     41 H9          3.8830    4.8150   10.9920 hc        1 4OR      0.083367
     42 H10         4.4040    3.2810   11.8000 hc        1 4OR      0.083367
     43 H11         1.4210    1.2130   10.8880 hc        1 4OR      0.083367
     44 H12         2.9220    1.3030   11.8950 hc        1 4OR      0.083367
     45 H13         3.0660    1.2250   10.0930 hc        1 4OR      0.083367
     46 H14         2.2560    3.3710   13.0530 hc        1 4OR      0.083367
     47 H15         0.6600    3.2710   12.2060 hc        1 4OR      0.083367
     48 H16         1.6440    4.8070   12.1430 hc        1 4OR      0.083367
     49 H17         0.2770   -3.2030    4.7530 ha        1 4OR      0.135000
     50 H18        -1.0760   -4.2330    0.7810 ha        1 4OR      0.185000
     51 H19        -0.2030   -2.0970   -0.0980 ha        1 4OR      0.174000
     52 H20        -1.4530    1.1800   -0.6280 hc        1 4OR      0.053700
     53 H21        -1.6590   -0.2310    0.4930 hc        1 4OR      0.053700
     54 H22        -1.3080    1.4180    1.1630 hc        1 4OR      0.053700
     55 H23         4.8990    0.3850    3.8840 ha        1 4OR      0.169000
     56 H24         5.2440    0.4800   -0.4330 ha        1 4OR      0.185000
     57 H25        -0.4010   -1.0130    5.3270 hn        1 4OR      0.464300
     58 H26         0.0990    1.4250    5.0420 hx        1 4OR      0.142700
     59 H27        -1.6200    1.4300    6.6000 hc        1 4OR      0.101200
     60 H28        -1.0320   -0.0530    7.4500 hc        1 4OR      0.101200
     61 H29         1.9500    4.6590    9.5320 hn        1 4OR      0.464300
     62 H221        1.0500   -1.1630    6.1470 hn        1 4OR      0.464300
     63 H42         0.6920    3.5940    9.8230 hn        1 4OR      0.464300
@<TRIPOS>BOND
     1    1   18 1   
     2    1   19 1   
     3    1   33 1   
     4    1   34 1   
     5    2    3 ar  
     6    2   18 1   
     7    2   22 ar  
     8    3   26 ar  
     9    3   35 1   
    10    4   29 1   
    11    4   30 1   
    12    4   36 1   
    13    4   37 1   
    14    5   28 1   
    15    5   29 1   
    16    5   38 1   
    17    5   39 1   
    18    6   29 1   
    19    6   31 2   
    20    6   32 1   
    21    7    8 1   
    22    7    9 1   
    23    7   10 1   
    24    7   32 1   
    25    8   40 1   
    26    8   41 1   
    27    8   42 1   
    28    9   43 1   
    29    9   44 1   
    30    9   45 1   
    31   10   46 1   
    32   10   47 1   
    33   10   48 1   
    34   11   12 ar  
    35   11   16 ar  
    36   11   20 1   
    37   12   13 ar  
    38   12   49 1   
    39   13   14 ar  
    40   13   17 1   
    41   14   15 ar  
    42   14   50 1   
    43   15   16 ar  
    44   15   51 1   
    45   16   18 1   
    46   19   52 1   
    47   19   53 1   
    48   19   54 1   
    49   20   21 2   
    50   20   27 1   
    51   21   22 1   
    52   22   23 ar  
    53   23   24 ar  
    54   23   55 1   
    55   24   25 1   
    56   24   26 ar  
    57   26   56 1   
    58   27   28 1   
    59   27   57 1   
    60   27   62 1   
    61   28   30 1   
    62   28   58 1   
    63   30   59 1   
    64   30   60 1   
    65   32   61 1   
    66   32   63 1   
@<TRIPOS>SUBSTRUCTURE
     1 4OR         1 TEMP              0 ****  ****    0 ROOT
