@<TRIPOS>MOLECULE
4OS
   19    17     1     0     0
SMALL
bcc


@<TRIPOS>ATOM
      1 S          -2.5850    0.3580    1.0900 s6        1 4OS      2.852000
      2 OB1        -2.5990    0.6660    2.4610 o         1 4OS     -1.048667
      3 OB2        -3.0540    1.3770    0.2480 o         1 4OS     -1.048667
      4 CG         -0.7900    0.2140    0.7710 c2        1 4OS     -0.421000
      5 CD1         0.7040    5.4760   -4.7940 c2        1 4OS     -0.156000
      6 CD2        -0.1070    0.8370   -0.1640 c1        1 4OS     -0.458000
      7 CE1         0.0560    4.7220   -3.9650 c1        1 4OS     -0.258000
      8 CE2         0.5220    1.4570   -1.0810 c1        1 4OS      0.052000
      9 CZ         -0.5490    3.9410   -3.1010 c2        1 4OS      0.035000
     10 OH         -1.8680    4.1890   -2.7700 os        1 4OS     -0.238000
     11 CH         -2.4870    3.1250   -2.0370 c3        1 4OS     -0.072000
     12 HD1         0.7550    5.2610   -5.8720 ha        1 4OS      0.101000
     13 HD2        -0.2720   -0.4790    1.4570 h4        1 4OS      0.130000
     14 HE1         1.2490    6.3770   -4.4740 ha        1 4OS      0.101000
     15 HE2        -0.0500    3.0880   -2.5950 h4        1 4OS      0.192000
     16 HH1        -1.8170    2.7150   -1.2400 h1        1 4OS      0.095333
     17 HH2        -2.7810    2.3150   -2.7470 h1        1 4OS      0.095333
     18 HH3        -3.3890    3.5960   -1.5770 h1        1 4OS      0.095333
     19 OXT        -3.0310   -0.9350    0.7680 o         1 4OS     -1.048667
@<TRIPOS>BOND
     1    1    2 1   
     2    1    3 1   
     3    1    4 1   
     4    1   19 1   
     5    4    6 1   
     6    4   13 1   
     7    5    7 1   
     8    5   12 1   
     9    5   14 1   
    10    6    8 1   
    11    7    9 1   
    12    9   10 1   
    13    9   15 1   
    14   10   11 1   
    15   11   16 1   
    16   11   17 1   
    17   11   18 1   
@<TRIPOS>SUBSTRUCTURE
     1 4OS         1 TEMP              0 ****  ****    0 ROOT
