@<TRIPOS>MOLECULE
4OS
   19    17     1     0     0
SMALL
bcc


@<TRIPOS>ATOM
      1 S          -2.5770    0.4580    1.1730 s6        1 4OS      2.852000
      2 OB1        -3.1830   -0.7740    0.8760 o         1 4OS     -1.048667
      3 OB2        -2.4400    0.7370    2.5440 o         1 4OS     -1.048667
      4 CG         -0.8410    0.1340    0.6970 c2        1 4OS     -0.421000
      5 CD1         0.7230    5.3420   -4.9000 c2        1 4OS     -0.156000
      6 CD2        -0.1790    0.7040   -0.2850 c1        1 4OS     -0.458000
      7 CE1         0.0710    4.6390   -4.0290 c1        1 4OS     -0.258000
      8 CE2         0.4320    1.2770   -1.2450 c1        1 4OS      0.052000
      9 CZ         -0.5380    3.9050   -3.1290 c2        1 4OS      0.035000
     10 OH         -1.7920    4.2800   -2.6820 os        1 4OS     -0.237000
     11 CH         -2.4550    3.2680   -1.9140 c3        1 4OS     -0.072000
     12 HD1         0.6610    5.1480   -5.9810 ha        1 4OS      0.101000
     13 HD2        -0.3430   -0.6250    1.3250 h4        1 4OS      0.130000
     14 HE1         1.3840    6.1730   -4.6140 ha        1 4OS      0.101000
     15 HE2        -0.0900    2.9930   -2.6800 h4        1 4OS      0.192000
     16 HH1        -2.8910    2.5100   -2.6080 h1        1 4OS      0.095333
     17 HH2        -3.2600    3.8200   -1.3710 h1        1 4OS      0.095333
     18 HH3        -1.7670    2.7730   -1.1840 h1        1 4OS      0.095333
     19 OXT        -3.0060    1.5380    0.3890 o         1 4OS     -1.048667
@<TRIPOS>BOND
     1    1    2 1   
     2    1    3 1   
     3    1    4 1   
     4    1   19 1   
     5    4    6 1   
     6    4   13 1   
     7    5    7 1   
     8    5   12 1   
     9    5   14 1   
    10    6    8 1   
    11    7    9 1   
    12    9   10 1   
    13    9   15 1   
    14   10   11 1   
    15   11   16 1   
    16   11   17 1   
    17   11   18 1   
@<TRIPOS>SUBSTRUCTURE
     1 4OS         1 TEMP              0 ****  ****    0 ROOT
