@<TRIPOS>MOLECULE
4OS
   19    19     1     0     0
SMALL
bcc


@<TRIPOS>ATOM
      1 S           2.2420    0.0570   -0.0170 s6        1 4OS      1.461100
      2 OB1         2.6800   -1.1180   -0.6720 o         1 4OS     -0.746533
      3 OB2         2.5220    1.2540   -0.7190 o         1 4OS     -0.746533
      4 CG          0.4730   -0.0590   -0.0190 ca        1 4OS     -0.284500
      5 CD1        -0.1580   -1.3040   -0.0090 ca        1 4OS     -0.015000
      6 CD2        -0.3110    1.0910   -0.0250 ca        1 4OS     -0.015000
      7 CE1        -1.5460   -1.4120    0.0070 ca        1 4OS     -0.215500
      8 CE2        -1.7060    1.0210   -0.0090 ca        1 4OS     -0.215500
      9 CZ         -2.3160   -0.2370    0.0100 ca        1 4OS      0.117100
     10 OH         -3.6910   -0.4400    0.0290 os        1 4OS     -0.344900
     11 CH         -4.4880    0.7330    0.0400 c3        1 4OS      0.121700
     12 HD1         0.4640   -2.2150   -0.0270 ha        1 4OS      0.147000
     13 HD2         0.1870    2.0760   -0.0560 ha        1 4OS      0.147000
     14 HE1        -2.0450   -2.3890    0.0160 ha        1 4OS      0.121500
     15 HE2        -2.3000    1.9430   -0.0140 ha        1 4OS      0.121500
     16 HH1        -4.2790    1.3470    0.9500 h1        1 4OS      0.031700
     17 HH2        -4.3150    1.3400   -0.8820 h1        1 4OS      0.031700
     18 HH3        -5.5370    0.3440    0.0620 h1        1 4OS      0.031700
     19 OXT         2.6060    0.1090    1.3480 o         1 4OS     -0.746533
@<TRIPOS>BOND
     1    1    2 1   
     2    1    3 1   
     3    1    4 1   
     4    1   19 1   
     5    4    5 ar  
     6    4    6 ar  
     7    5    7 ar  
     8    5   12 1   
     9    6    8 ar  
    10    6   13 1   
    11    7    9 ar  
    12    7   14 1   
    13    8    9 ar  
    14    8   15 1   
    15    9   10 1   
    16   10   11 1   
    17   11   16 1   
    18   11   17 1   
    19   11   18 1   
@<TRIPOS>SUBSTRUCTURE
     1 4OS         1 TEMP              0 ****  ****    0 ROOT
