@<TRIPOS>MOLECULE
4OS
   19    15     1     0     0
SMALL
bcc


@<TRIPOS>ATOM
      1 S           0.9830   -2.9540    1.2400 ss        1 4OS      2.874000
      2 OB1         2.5990   -2.9770    1.3360 o         1 4OS     -1.071000
      3 OB2         0.5960   -3.0850    2.7110 o         1 4OS     -1.071000
      4 CG          0.3790   -1.3890    0.5390 c1        1 4OS     -0.729000
      5 CD1         1.0630   -0.7860   -0.6230 c2        1 4OS     -0.017000
      6 CD2        -0.7250   -0.8520    0.9980 c1        1 4OS     -0.013000
      7 CE1         0.5410    0.3380   -1.2220 c1        1 4OS     -0.194000
      8 CE2        -1.2550    0.2910    0.3880 c1        1 4OS     -0.237000
      9 CZ         -0.5850    0.8820   -0.7500 c2        1 4OS      0.072000
     10 OH         -1.1360    1.9450   -1.3820 os        1 4OS     -0.228000
     11 CH         -0.7170    3.2190   -0.8500 c3        1 4OS     -0.068000
     12 HD1         1.8300   -1.2260   -1.0130 ha        1 4OS      0.148000
     13 HD2        -1.1470   -1.2220    1.7150 ha        1 4OS      0.146000
     14 HE1         1.0140    0.7580   -2.0280 DU        1 4OS      0.127000
     15 HE2        -2.1050    0.6140    0.6540 ha        1 4OS      0.116000
     16 HH1        -0.9800    3.2820    0.0620 h1        1 4OS      0.071000
     17 HH2        -1.1200    3.9150   -1.3420 h1        1 4OS      0.071000
     18 HH3         0.2630    3.2950   -0.9150 h1        1 4OS      0.071000
     19 OXT         0.5030   -4.0480    0.4820 os        1 4OS     -1.066000
@<TRIPOS>BOND
     1    1    2 1   
     2    1    3 1   
     3    4    5 1   
     4    4    6 1   
     5    5    7 1   
     6    5   12 1   
     7    6   13 1   
     8    7    9 1   
     9    8    9 1   
    10    8   15 1   
    11    9   10 1   
    12   10   11 1   
    13   11   16 1   
    14   11   17 1   
    15   11   18 1   
@<TRIPOS>SUBSTRUCTURE
     1 4OS         1 TEMP              0 ****  ****    0 ROOT
