@<TRIPOS>MOLECULE
4OX
   29    28     1     0     0
SMALL
bcc


@<TRIPOS>ATOM
      1 C7         -0.6450   -0.1170    1.9720 c3        1 4OX     -0.079400
      2 C8          0.0800    0.0670    3.2900 c3        1 4OX     -0.063400
      3 C9         -0.8720    0.0150    4.4610 c3        1 4OX     -0.189400
      4 C10        -0.1360    0.0600    5.8080 c         1 4OX      0.906600
      5 OT1        -0.5170    0.9140    6.6630 o         1 4OX     -0.860300
      6 OT2         0.7970   -0.7680    6.0240 o         1 4OX     -0.860300
      7 O1         -1.5510   -0.4880   -5.4690 o         1 4OX     -0.858300
      8 C1         -0.3980    0.0330   -5.5270 c         1 4OX      0.905600
      9 OH1         0.0770    0.5550   -6.5770 o         1 4OX     -0.858300
     10 C2          0.4880    0.0180   -4.2700 c3        1 4OX     -0.184400
     11 C3         -0.3330    0.1750   -3.0150 c3        1 4OX     -0.166400
     12 C4          0.4140   -0.0900   -1.7420 c         1 4OX      0.563100
     13 C5         -0.4650   -0.1630   -0.5190 c3        1 4OX     -0.187400
     14 C6          0.2860    0.0010    0.7840 c3        1 4OX     -0.072400
     15 O4L         1.6400   -0.2490   -1.6780 o         1 4OX     -0.564100
     16 HC71       -1.1420   -1.1230    1.9580 hc        1 4OX      0.023200
     17 HC72       -1.4590    0.6510    1.8850 hc        1 4OX      0.023200
     18 HC81        0.6160    1.0520    3.2880 hc        1 4OX      0.042200
     19 HC82        0.8580   -0.7320    3.4170 hc        1 4OX      0.042200
     20 HC91       -1.4620   -0.9370    4.4260 hc        1 4OX      0.017200
     21 HC92       -1.5950    0.8680    4.4070 hc        1 4OX      0.017200
     22 HC21        1.2510    0.8320   -4.3410 hc        1 4OX      0.032200
     23 HC22        1.0370   -0.9570   -4.2450 hc        1 4OX      0.032200
     24 HC31       -1.2150   -0.5210   -3.0750 hc        1 4OX      0.069700
     25 HC32       -0.7440    1.2180   -2.9620 hc        1 4OX      0.069700
     26 HC51       -0.9800   -1.1610   -0.5360 hc        1 4OX      0.054200
     27 HC52       -1.2620    0.6220   -0.6000 hc        1 4OX      0.054200
     28 HC61        0.7950    1.0000    0.7980 hc        1 4OX      0.045200
     29 HC62        1.0930   -0.7750    0.8510 hc        1 4OX      0.045200
@<TRIPOS>BOND
     1    1    2 1   
     2    1   14 1   
     3    1   16 1   
     4    1   17 1   
     5    2    3 1   
     6    2   18 1   
     7    2   19 1   
     8    3    4 1   
     9    3   20 1   
    10    3   21 1   
    11    4    5 1   
    12    4    6 1   
    13    7    8 1   
    14    8    9 1   
    15    8   10 1   
    16   10   11 1   
    17   10   22 1   
    18   10   23 1   
    19   11   12 1   
    20   11   24 1   
    21   11   25 1   
    22   12   13 1   
    23   12   15 2   
    24   13   14 1   
    25   13   26 1   
    26   13   27 1   
    27   14   28 1   
    28   14   29 1   
@<TRIPOS>SUBSTRUCTURE
     1 4OX         1 TEMP              0 ****  ****    0 ROOT
