@<TRIPOS>MOLECULE
4OX
   29    28     1     0     0
SMALL
bcc


@<TRIPOS>ATOM
      1 C7          0.0400    0.1300   -0.1120 c3        1 4OX     -0.079400
      2 C8          1.5310   -0.0750    0.0610 c3        1 4OX     -0.063400
      3 C9          1.9380    0.0040    1.5130 c3        1 4OX     -0.189400
      4 C10         3.4620   -0.0640    1.6920 c         1 4OX      0.906600
      5 OT1         3.9250   -0.9060    2.5170 o         1 4OX     -0.860300
      6 OT2         4.1910    0.7360    1.0350 o         1 4OX     -0.860300
      7 O1         -6.5540    0.5110   -3.6720 o         1 4OX     -0.858300
      8 C1         -5.9420   -0.0290   -4.6400 c         1 4OX      0.905600
      9 OH1        -6.5310   -0.5580   -5.6280 o         1 4OX     -0.858300
     10 C2         -4.4040   -0.0300   -4.6390 c3        1 4OX     -0.184400
     11 C3         -3.8540   -0.1740   -3.2420 c3        1 4OX     -0.166400
     12 C4         -2.3810    0.0770   -3.1220 c         1 4OX      0.563100
     13 C5         -1.8890    0.1710   -1.6990 c3        1 4OX     -0.187400
     14 C6         -0.3950   -0.0130   -1.5550 c3        1 4OX     -0.072400
     15 O4L        -1.6190    0.2100   -4.0880 o         1 4OX     -0.564100
     16 HC71       -0.2420    1.1490    0.2630 hc        1 4OX      0.023200
     17 HC72       -0.5150   -0.6150    0.5190 hc        1 4OX      0.023200
     18 HC81        2.0970    0.7010   -0.5180 hc        1 4OX      0.042200
     19 HC82        1.8220   -1.0750   -0.3550 hc        1 4OX      0.042200
     20 HC91        1.4620   -0.8280    2.0920 hc        1 4OX      0.017200
     21 HC92        1.5850    0.9720    1.9520 hc        1 4OX      0.017200
     22 HC21       -4.0300   -0.8580   -5.2920 hc        1 4OX      0.032200
     23 HC22       -4.0570    0.9350   -5.0860 hc        1 4OX      0.032200
     24 HC31       -4.4050    0.5370   -2.5660 hc        1 4OX      0.069700
     25 HC32       -4.0590   -1.2100   -2.8620 hc        1 4OX      0.069700
     26 HC51       -2.4280   -0.5940   -1.0790 hc        1 4OX      0.054200
     27 HC52       -2.1850    1.1820   -1.3090 hc        1 4OX      0.054200
     28 HC61        0.1380    0.7410   -2.1930 hc        1 4OX      0.045200
     29 HC62       -0.1050   -1.0260   -1.9410 hc        1 4OX      0.045200
@<TRIPOS>BOND
     1    1    2 1   
     2    1   14 1   
     3    1   16 1   
     4    1   17 1   
     5    2    3 1   
     6    2   18 1   
     7    2   19 1   
     8    3    4 1   
     9    3   20 1   
    10    3   21 1   
    11    4    5 1   
    12    4    6 1   
    13    7    8 1   
    14    8    9 1   
    15    8   10 1   
    16   10   11 1   
    17   10   22 1   
    18   10   23 1   
    19   11   12 1   
    20   11   24 1   
    21   11   25 1   
    22   12   13 1   
    23   12   15 2   
    24   13   14 1   
    25   13   26 1   
    26   13   27 1   
    27   14   28 1   
    28   14   29 1   
@<TRIPOS>SUBSTRUCTURE
     1 4OX         1 TEMP              0 ****  ****    0 ROOT
