@<TRIPOS>MOLECULE
4OX
   29    28     1     0     0
SMALL
bcc


@<TRIPOS>ATOM
      1 C7          0.0450    0.0000   -0.1090 c3        1 4OX     -0.079400
      2 C8          1.5530    0.0000    0.0400 c3        1 4OX     -0.061400
      3 C9          1.9670    0.0000    1.4910 c3        1 4OX     -0.188400
      4 C10         3.4890    0.0000    1.6910 c         1 4OX      0.906600
      5 OT1         3.9140    0.0000    2.8860 o         1 4OX     -0.860800
      6 OT2         4.2570   -0.0000    0.6860 o         1 4OX     -0.860800
      7 O1         -6.6030   -0.0000   -3.5840 o         1 4OX     -0.859800
      8 C1         -5.9540   -0.0000   -4.6710 c         1 4OX      0.905600
      9 OH1        -6.5080   -0.0000   -5.8100 o         1 4OX     -0.859800
     10 C2         -4.4180   -0.0000   -4.6300 c3        1 4OX     -0.184400
     11 C3         -3.8940   -0.0000   -3.2160 c3        1 4OX     -0.161400
     12 C4         -2.3990    0.0000   -3.1020 c         1 4OX      0.560100
     13 C5         -1.8960    0.0000   -1.6800 c3        1 4OX     -0.187400
     14 C6         -0.3880    0.0000   -1.5600 c3        1 4OX     -0.072400
     15 O4L        -1.6300    0.0000   -4.0700 o         1 4OX     -0.562100
     16 HC71       -0.3800    0.9020    0.4060 hc        1 4OX      0.020700
     17 HC72       -0.3800   -0.9010    0.4060 hc        1 4OX      0.020700
     18 HC81        1.9900    0.8990   -0.4690 hc        1 4OX      0.043700
     19 HC82        1.9900   -0.8990   -0.4690 hc        1 4OX      0.043700
     20 HC91        1.5510   -0.9020    2.0080 hc        1 4OX      0.017700
     21 HC92        1.5510    0.9020    2.0080 hc        1 4OX      0.017700
     22 HC21       -4.0450   -0.9010   -5.1790 hc        1 4OX      0.032700
     23 HC22       -4.0450    0.9010   -5.1790 hc        1 4OX      0.032700
     24 HC31       -4.2980    0.8980   -2.6760 hc        1 4OX      0.068700
     25 HC32       -4.2980   -0.8990   -2.6760 hc        1 4OX      0.068700
     26 HC51       -2.3180   -0.9030   -1.1630 hc        1 4OX      0.053700
     27 HC52       -2.3180    0.9030   -1.1630 hc        1 4OX      0.053700
     28 HC61        0.0290    0.9000   -2.0840 hc        1 4OX      0.045700
     29 HC62        0.0280   -0.9000   -2.0840 hc        1 4OX      0.045700
@<TRIPOS>BOND
     1    1    2 1   
     2    1   14 1   
     3    1   16 1   
     4    1   17 1   
     5    2    3 1   
     6    2   18 1   
     7    2   19 1   
     8    3    4 1   
     9    3   20 1   
    10    3   21 1   
    11    4    5 1   
    12    4    6 1   
    13    7    8 1   
    14    8    9 1   
    15    8   10 1   
    16   10   11 1   
    17   10   22 1   
    18   10   23 1   
    19   11   12 1   
    20   11   24 1   
    21   11   25 1   
    22   12   13 1   
    23   12   15 2   
    24   13   14 1   
    25   13   26 1   
    26   13   27 1   
    27   14   28 1   
    28   14   29 1   
@<TRIPOS>SUBSTRUCTURE
     1 4OX         1 TEMP              0 ****  ****    0 ROOT
