@<TRIPOS>MOLECULE
4OX
   29    27     1     0     0
SMALL
bcc


@<TRIPOS>ATOM
      1 C7          1.1130   -0.2990    1.5030 c3        1 4OX     -0.158000
      2 C8          2.5790    0.0560    1.6190 c3        1 4OX     -0.142000
      3 C9          3.1210   -0.4650    2.9320 c3        1 4OX     -0.218000
      4 C10         4.5750   -0.0690    3.0690 c2        1 4OX      0.326000
      5 OT1         4.8790    1.0740    3.5000 o         1 4OX     -0.595000
      6 OT2         5.4820   -0.8850    2.7550 o         1 4OX     -0.595000
      7 O1         -5.5260   -0.1960   -3.1470 o         1 4OX     -0.591000
      8 C1         -4.3740   -0.0060   -3.6190 c1        1 4OX      0.326000
      9 OH1        -4.0950   -0.4070   -4.7790 os        1 4OX     -0.594000
     10 C2         -3.3280    0.7090   -2.7930 c3        1 4OX     -0.215000
     11 C3         -2.4950   -0.3080   -2.0440 c3        1 4OX     -0.195000
     12 C4         -1.4290    0.4060   -1.2410 c2        1 4OX      0.226000
     13 C5         -0.8330   -0.2560   -0.0190 c3        1 4OX     -0.215000
     14 C6          0.5440    0.3140    0.2420 c3        1 4OX     -0.151000
     15 O4L        -1.0540    1.5110   -1.5770 o         1 4OX     -0.326000
     16 HC71        1.0160   -1.2720    1.4650 hc        1 4OX      0.062000
     17 HC72        0.6310    0.0470    2.2800 hc        1 4OX      0.062000
     18 HC81        3.0730   -0.3490    0.8790 hc        1 4OX      0.081500
     19 HC82        2.6820    1.0280    1.5870 hc        1 4OX      0.081500
     20 HC91        2.6080   -0.0820    3.6720 hc        1 4OX      0.056500
     21 HC92        3.0450   -1.4400    2.9520 hc        1 4OX      0.056500
     22 HC21       -2.7490    1.2340   -3.3830 hc        1 4OX      0.072000
     23 HC22       -3.7670    1.3050   -2.1540 hc        1 4OX      0.072000
     24 HC31       -2.0700   -0.9150   -2.6830 hc        1 4OX      0.107500
     25 HC32       -3.0700   -0.8190   -1.4410 hc        1 4OX      0.107500
     26 HC51       -0.7630   -1.2200   -0.1710 hc        1 4OX      0.093500
     27 HC52       -1.4070   -0.0890    0.7550 hc        1 4OX      0.093500
     28 HC61        1.1310    0.1090   -0.5130 hc        1 4OX      0.085000
     29 HC62        0.4800    1.2840    0.3510 hc        1 4OX      0.085000
@<TRIPOS>BOND
     1    1    2 1   
     2    1   14 1   
     3    1   16 1   
     4    1   17 1   
     5    2    3 1   
     6    2   18 1   
     7    2   19 1   
     8    3    4 1   
     9    3   20 1   
    10    3   21 1   
    11    4    5 1   
    12    4    6 1   
    13    7    8 1   
    14    8   10 1   
    15   10   11 1   
    16   10   22 1   
    17   10   23 1   
    18   11   12 1   
    19   11   24 1   
    20   11   25 1   
    21   12   13 1   
    22   12   15 1   
    23   13   14 1   
    24   13   26 1   
    25   13   27 1   
    26   14   28 1   
    27   14   29 1   
@<TRIPOS>SUBSTRUCTURE
     1 4OX         1 TEMP              0 ****  ****    0 ROOT
