@<TRIPOS>MOLECULE
4P0
   27    28     1     0     0
SMALL
bcc


@<TRIPOS>ATOM
      1 C10         0.0680   -0.3050   -0.0390 c         1 4P0      0.570300
      2 C11         1.4840    0.1690    0.0390 c3        1 4P0     -0.196100
      3 O12        -0.4720   -0.8680    0.9240 o         1 4P0     -0.540100
      4 C1         -1.2400    1.0460   -4.1690 c3        1 4P0      0.152500
      5 C2         -1.1880   -0.4290   -4.6290 c3        1 4P0     -0.078400
      6 C3         -0.3900   -1.1530   -3.5450 c3        1 4P0     -0.075400
      7 C4          0.1080   -0.0350   -2.5880 c3        1 4P0      0.197700
      8 C6         -0.6710   -0.0550   -1.2980 ce        1 4P0     -0.246400
      9 C7         -2.5610    1.3540   -3.4550 c3        1 4P0     -0.102400
     10 C8         -2.9420    0.3740   -2.3630 c3        1 4P0     -0.059200
     11 C9         -1.9970    0.1730   -1.2400 c2        1 4P0     -0.083200
     12 N5         -0.0510    1.2300   -3.3240 n3        1 4P0     -0.785200
     13 H111        1.6080    1.1370   -0.5050 hc        1 4P0      0.065367
     14 H112        1.7850    0.3060    1.1060 hc        1 4P0      0.065367
     15 H113        2.1590   -0.5940   -0.4220 hc        1 4P0      0.065367
     16 HC1        -1.1410    1.7400   -5.0500 h1        1 4P0      0.068700
     17 HC23       -0.6680   -0.5010   -5.6160 hc        1 4P0      0.049200
     18 HC33        0.4820   -1.6940   -3.9830 hc        1 4P0      0.052200
     19 HC32       -1.0220   -1.8910   -2.9950 hc        1 4P0      0.052200
     20 HC4         1.2080   -0.1680   -2.3880 h1        1 4P0      0.072700
     21 HC73       -2.5170    2.3900   -3.0260 hc        1 4P0      0.047700
     22 HC72       -3.3790    1.3490   -4.2240 hc        1 4P0      0.047700
     23 HC82       -3.9280    0.7140   -1.9380 hc        1 4P0      0.056700
     24 HC83       -3.1230   -0.6390   -2.8240 hc        1 4P0      0.056700
     25 HC9        -2.4850    0.1470   -0.2440 ha        1 4P0      0.138000
     26 HN52       -0.1710    2.0010   -2.6950 hn        1 4P0      0.358800
     27 HC22       -2.2130   -0.8520   -4.7490 hc        1 4P0      0.049200
@<TRIPOS>BOND
     1    1    2 1   
     2    1    3 2   
     3    1    8 1   
     4    2   13 1   
     5    2   14 1   
     6    2   15 1   
     7    4    5 1   
     8    4    9 1   
     9    4   12 1   
    10    4   16 1   
    11    5    6 1   
    12    5   17 1   
    13    5   27 1   
    14    6    7 1   
    15    6   18 1   
    16    6   19 1   
    17    7    8 1   
    18    7   12 1   
    19    7   20 1   
    20    8   11 2   
    21    9   10 1   
    22    9   21 1   
    23    9   22 1   
    24   10   11 1   
    25   10   23 1   
    26   10   24 1   
    27   11   25 1   
    28   12   26 1   
@<TRIPOS>SUBSTRUCTURE
     1 4P0         1 TEMP              0 ****  ****    0 ROOT
