@<TRIPOS>MOLECULE
4P0
   27    28     1     0     0
SMALL
bcc


@<TRIPOS>ATOM
      1 C10         0.0420   -0.3770   -0.0270 c         1 4P0      0.571300
      2 C11         1.4070    0.2240    0.0970 c3        1 4P0     -0.197100
      3 O12        -0.4500   -1.0470    0.8920 o         1 4P0     -0.544100
      4 C1         -1.2620    1.1180   -4.0860 c3        1 4P0      0.152500
      5 C2         -1.2030   -0.3360   -4.6210 c3        1 4P0     -0.111400
      6 C3         -0.4080   -1.1070   -3.5690 c3        1 4P0     -0.104400
      7 C4          0.0820   -0.0310   -2.5560 c3        1 4P0      0.197700
      8 C6         -0.7070   -0.1110   -1.2770 ce        1 4P0     -0.199400
      9 C7         -2.5800    1.3840   -3.3530 c3        1 4P0     -0.060400
     10 C8         -2.9730    0.3370   -2.3300 c3        1 4P0     -0.052200
     11 C9         -2.0350    0.0910   -1.2100 c2        1 4P0     -0.073200
     12 N5         -0.1110    1.2910   -3.1830 n7        1 4P0     -0.775200
     13 H111        1.4530    1.2070   -0.4300 hc        1 4P0      0.065033
     14 H112        1.6640    0.3720    1.1750 hc        1 4P0      0.065033
     15 H113        2.1620   -0.4670   -0.3520 hc        1 4P0      0.065033
     16 HC1        -1.1860    1.8520   -4.9360 h1        1 4P0      0.054700
     17 HC23       -0.6810   -0.3590   -5.6090 hc        1 4P0      0.048700
     18 HC33       -1.0410   -1.8720   -3.0590 hc        1 4P0      0.053200
     19 HC32        0.4660   -1.6280   -4.0270 hc        1 4P0      0.053200
     20 HC4         1.1750   -0.1910   -2.3400 h1        1 4P0      0.057700
     21 HC73       -3.3920    1.4340   -4.1280 hc        1 4P0      0.049200
     22 HC72       -2.5250    2.3870   -2.8530 hc        1 4P0      0.049200
     23 HC82       -3.1400   -0.6490   -2.8500 hc        1 4P0      0.050700
     24 HC83       -3.9670    0.6460   -1.9000 hc        1 4P0      0.050700
     25 HC9        -2.5250    0.0150   -0.2190 ha        1 4P0      0.134000
     26 HN52        0.7020    1.5220   -3.7240 hn        1 4P0      0.348800
     27 HC22       -2.2250   -0.7580   -4.7660 hc        1 4P0      0.048700
@<TRIPOS>BOND
     1    1    2 1   
     2    1    3 2   
     3    1    8 1   
     4    2   13 1   
     5    2   14 1   
     6    2   15 1   
     7    4    5 1   
     8    4    9 1   
     9    4   12 1   
    10    4   16 1   
    11    5    6 1   
    12    5   17 1   
    13    5   27 1   
    14    6    7 1   
    15    6   18 1   
    16    6   19 1   
    17    7    8 1   
    18    7   12 1   
    19    7   20 1   
    20    8   11 2   
    21    9   10 1   
    22    9   21 1   
    23    9   22 1   
    24   10   11 1   
    25   10   23 1   
    26   10   24 1   
    27   11   25 1   
    28   12   26 1   
@<TRIPOS>SUBSTRUCTURE
     1 4P0         1 TEMP              0 ****  ****    0 ROOT
