@<TRIPOS>MOLECULE
4P1
   51    54     1     0     0
SMALL
bcc


@<TRIPOS>ATOM
      1 C1          0.0460    0.0460   -0.2970 c         1 4P1      0.693700
      2 C2          1.5290   -0.0030   -0.1070 ca        1 4P1     -0.180600
      3 C3          2.0810    0.2450    1.1680 ca        1 4P1      0.167900
      4 C7          2.3910   -0.1980   -1.1940 ca        1 4P1      0.064400
      5 C10        -2.0440   -3.6530   -0.5400 c3        1 4P1     -0.036100
      6 C11        -2.0980   -1.1460   -0.0750 ca        1 4P1      0.109600
      7 C12        -2.7710   -2.3670   -0.3520 ca        1 4P1     -0.112300
      8 C13        -4.1650   -2.3910   -0.4290 ca        1 4P1     -0.076000
      9 C14        -2.8800    0.0130    0.1510 ca        1 4P1     -0.138000
     10 C15        -4.2630   -0.0360    0.0740 ca        1 4P1     -0.089000
     11 C16        -4.9230   -1.2350   -0.2290 cp        1 4P1     -0.122000
     12 C19        -8.4920   -1.7340   -1.4350 ca        1 4P1     -0.122000
     13 C20        -9.2060   -1.2540   -0.3480 ca        1 4P1     -0.099000
     14 C21        -8.5170   -0.7600    0.7730 ca        1 4P1     -0.217600
     15 C22        -9.1790   -0.2380    1.9630 c         1 4P1      0.574700
     16 C24        -7.1140   -0.7760    0.7920 ca        1 4P1     -0.028000
     17 C4          3.4780    0.3010    1.3380 ca        1 4P1     -0.165000
     18 C5          4.3100    0.1100    0.2410 ca        1 4P1     -0.075000
     19 C6          3.7770   -0.1420   -1.0230 ca        1 4P1     -0.139000
     20 O2         -8.7240   -0.0610    3.0830 o         1 4P1     -0.418100
     21 N2        -10.6420    0.1710    1.7820 ny        1 4P1     -0.676800
     22 C23       -11.1560    1.0050    2.8880 c3        1 4P1      0.082100
     23 C18        -7.0840   -1.7310   -1.4280 ca        1 4P1      0.081400
     24 Cl2        -6.2850   -2.2890   -2.8030 cl        1 4P1     -0.004400
     25 C17        -6.3820   -1.2600   -0.3030 cp        1 4P1      0.006000
     26 C9         -0.5590   -3.4670   -0.7520 c3        1 4P1     -0.099400
     27 C8         -0.0240   -2.3890    0.1850 c3        1 4P1      0.086000
     28 N1         -0.6900   -1.1090    0.0160 n         1 4P1     -0.368000
     29 O1         -0.5010    1.0930   -0.6760 o         1 4P1     -0.549100
     30 F           1.2720    0.4310    2.2360 f         1 4P1     -0.124900
     31 Cl1         1.7600   -0.5110   -2.7380 cl        1 4P1     -0.059400
     32 H1         -2.2160   -4.2910    0.3710 hc        1 4P1      0.058700
     33 H2         -2.4790   -4.2070   -1.4160 hc        1 4P1      0.058700
     34 H3         -4.6670   -3.3460   -0.6500 ha        1 4P1      0.138000
     35 H4         -2.3970    0.9770    0.3830 ha        1 4P1      0.177000
     36 H5         -4.8440    0.8830    0.2430 ha        1 4P1      0.132000
     37 H6         -9.0310   -2.1200   -2.3170 ha        1 4P1      0.175000
     38 H7        -10.3040   -1.2950   -0.3890 ha        1 4P1      0.126000
     39 H8         -6.5690   -0.4050    1.6790 ha        1 4P1      0.178000
     40 H9          3.8930    0.5020    2.3370 ha        1 4P1      0.164000
     41 H10         5.4030    0.1600    0.3710 ha        1 4P1      0.155000
     42 H11         4.4460   -0.2900   -1.8850 ha        1 4P1      0.163000
     43 H12       -10.7220    0.6800    0.8950 hn        1 4P1      0.458300
     44 H13       -12.2360    1.2490    2.6980 hx        1 4P1      0.112700
     45 H14       -10.5540    1.9520    2.9520 hx        1 4P1      0.112700
     46 H15       -11.0540    0.4470    3.8590 hx        1 4P1      0.112700
     47 H16        -0.0180   -4.4250   -0.5390 hc        1 4P1      0.063700
     48 H17        -0.3520   -3.1910   -1.8190 hc        1 4P1      0.063700
     49 H18        -0.1790   -2.7180    1.2530 h1        1 4P1      0.065200
     50 H19         1.0830   -2.2750    0.0130 h1        1 4P1      0.065200
     51 H22       -11.2020   -0.6860    1.7100 hn        1 4P1      0.458300
@<TRIPOS>BOND
     1    1    2 1   
     2    1   28 1   
     3    1   29 2   
     4    2    3 ar  
     5    2    4 ar  
     6    3   17 ar  
     7    3   30 1   
     8    4   19 ar  
     9    4   31 1   
    10    5    7 1   
    11    5   26 1   
    12    5   32 1   
    13    5   33 1   
    14    6    7 ar  
    15    6    9 ar  
    16    6   28 1   
    17    7    8 ar  
    18    8   11 ar  
    19    8   34 1   
    20    9   10 ar  
    21    9   35 1   
    22   10   11 ar  
    23   10   36 1   
    24   11   25 1   
    25   12   13 ar  
    26   12   23 ar  
    27   12   37 1   
    28   13   14 ar  
    29   13   38 1   
    30   14   15 1   
    31   14   16 ar  
    32   15   20 2   
    33   15   21 1   
    34   16   25 ar  
    35   16   39 1   
    36   17   18 ar  
    37   17   40 1   
    38   18   19 ar  
    39   18   41 1   
    40   19   42 1   
    41   21   22 1   
    42   21   43 1   
    43   21   51 1   
    44   22   44 1   
    45   22   45 1   
    46   22   46 1   
    47   23   24 1   
    48   23   25 ar  
    49   26   27 1   
    50   26   47 1   
    51   26   48 1   
    52   27   28 1   
    53   27   49 1   
    54   27   50 1   
@<TRIPOS>SUBSTRUCTURE
     1 4P1         1 TEMP              0 ****  ****    0 ROOT
