@<TRIPOS>MOLECULE
4P3
   51    53     1     0     0
SMALL
bcc


@<TRIPOS>ATOM
      1 O2          0.1400    1.3720   -0.2120 o         1 4P3     -0.415100
      2 C20         1.2250    0.8090   -0.1930 c         1 4P3      0.577700
      3 N1          1.8450    0.7550    1.2000 n4        1 4P3     -0.763400
      4 C19         1.9810    0.2030   -1.2760 ca        1 4P3     -0.215600
      5 C21         3.2300   -0.4230   -1.1120 ca        1 4P3     -0.091000
      6 C22         3.8690   -0.9790   -2.2080 ca        1 4P3     -0.123000
      7 C           3.2850   -0.9220   -3.4870 ca        1 4P3      0.086400
      8 CL          4.1040   -1.6460   -4.7690 cl        1 4P3      0.000600
      9 C18         1.3980    0.2650   -2.5540 ca        1 4P3     -0.020000
     10 C1          2.0420   -0.2880   -3.6690 cp        1 4P3     -0.006000
     11 C2          1.3780   -0.1920   -4.9680 cp        1 4P3     -0.101000
     12 C17         2.0090    0.4060   -6.0610 ca        1 4P3     -0.114000
     13 C14         1.3330    0.5390   -7.2770 ca        1 4P3      0.053100
     14 O1          2.0000    1.0690   -8.3820 os        1 4P3     -0.312900
     15 C15         2.6030    2.3360   -8.2000 c3        1 4P3      0.095400
     16 C16         1.6490    3.4810   -8.6790 c3        1 4P3      0.597900
     17 F3          2.3060    4.6810   -8.7880 f         1 4P3     -0.230300
     18 F2          1.0870    3.2680   -9.9080 f         1 4P3     -0.230300
     19 F1          0.6000    3.7330   -7.8340 f         1 4P3     -0.230300
     20 C5          0.0150    0.0290   -7.4560 ca        1 4P3      0.116600
     21 C4         -0.5870   -0.5890   -6.3320 ca        1 4P3     -0.122000
     22 C3          0.0730   -0.6800   -5.1160 ca        1 4P3     -0.093000
     23 N          -0.6660    0.0990   -8.6870 n         1 4P3     -0.376000
     24 C6          0.0950   -0.0210   -9.9070 c3        1 4P3      0.078300
     25 C7         -2.0430    0.3720   -8.7300 c         1 4P3      0.696700
     26 O          -2.7030    0.5360   -7.6920 o         1 4P3     -0.557100
     27 C8         -2.6920    0.4330  -10.0740 ca        1 4P3     -0.177600
     28 C13        -3.0190    1.6640  -10.6590 ca        1 4P3      0.072400
     29 CL1        -2.5790    3.1160   -9.9030 cl        1 4P3     -0.050400
     30 C12        -3.7100    1.7110  -11.8750 ca        1 4P3     -0.139000
     31 C11        -4.0810    0.5280  -12.5100 ca        1 4P3     -0.075000
     32 C10        -3.7660   -0.7080  -11.9520 ca        1 4P3     -0.165000
     33 C9         -3.0670   -0.7580  -10.7320 ca        1 4P3      0.161900
     34 F          -2.7520   -1.9590  -10.1920 f         1 4P3     -0.128900
     35 H1          2.7480    1.2360    1.1960 hn        1 4P3      0.467133
     36 H2          1.9860   -0.2190    1.4790 hn        1 4P3      0.467133
     37 H3          3.7260   -0.4940   -0.1330 ha        1 4P3      0.126000
     38 H4          4.8460   -1.4780   -2.0770 ha        1 4P3      0.178000
     39 H5          0.4160    0.7570   -2.6890 ha        1 4P3      0.184000
     40 H6          3.0400    0.7800   -5.9700 ha        1 4P3      0.143000
     41 H7          2.8940    2.5470   -7.1420 h1        1 4P3      0.093200
     42 H8          3.4980    2.3250   -8.8800 h1        1 4P3      0.093200
     43 H9         -1.6140   -0.9890   -6.4150 ha        1 4P3      0.180000
     44 H10        -0.4360   -1.1570   -4.2640 ha        1 4P3      0.139000
     45 H11         1.0440   -0.5860   -9.7090 h1        1 4P3      0.059367
     46 H12         0.3550    0.9960  -10.3090 h1        1 4P3      0.059367
     47 H13        -0.5050   -0.5860  -10.6700 h1        1 4P3      0.059367
     48 H14        -3.9640    2.6840  -12.3260 ha        1 4P3      0.163000
     49 H15        -4.6300    0.5700  -13.4640 ha        1 4P3      0.155000
     50 H16        -4.0570   -1.6450  -12.4480 ha        1 4P3      0.163000
     51 H131        1.2190    1.2140    1.8740 hn        1 4P3      0.467133
@<TRIPOS>BOND
     1    1    2 2   
     2    2    3 1   
     3    2    4 1   
     4    3   35 1   
     5    3   36 1   
     6    3   51 1   
     7    4    5 ar  
     8    4    9 ar  
     9    5    6 ar  
    10    5   37 1   
    11    6    7 ar  
    12    6   38 1   
    13    7    8 1   
    14    7   10 ar  
    15    9   10 ar  
    16    9   39 1   
    17   10   11 1   
    18   11   12 ar  
    19   11   22 ar  
    20   12   13 ar  
    21   12   40 1   
    22   13   14 1   
    23   13   20 ar  
    24   14   15 1   
    25   15   16 1   
    26   15   41 1   
    27   15   42 1   
    28   16   17 1   
    29   16   18 1   
    30   16   19 1   
    31   20   21 ar  
    32   20   23 1   
    33   21   22 ar  
    34   21   43 1   
    35   22   44 1   
    36   23   24 1   
    37   23   25 1   
    38   24   45 1   
    39   24   46 1   
    40   24   47 1   
    41   25   26 2   
    42   25   27 1   
    43   27   28 ar  
    44   27   33 ar  
    45   28   29 1   
    46   28   30 ar  
    47   30   31 ar  
    48   30   48 1   
    49   31   32 ar  
    50   31   49 1   
    51   32   33 ar  
    52   32   50 1   
    53   33   34 1   
@<TRIPOS>SUBSTRUCTURE
     1 4P3         1 TEMP              0 ****  ****    0 ROOT
