@<TRIPOS>MOLECULE
4P3
   51    53     1     0     0
SMALL
bcc


@<TRIPOS>ATOM
      1 O2          0.1530    1.3720   -0.2110 o         1 4P3     -0.415100
      2 C20         1.2350    0.8030   -0.1940 c         1 4P3      0.577700
      3 N1          1.8560    0.7450    1.1980 nz        1 4P3     -0.763400
      4 C19         1.9870    0.1940   -1.2790 ca        1 4P3     -0.215600
      5 C21         3.2320   -0.4390   -1.1160 ca        1 4P3     -0.091000
      6 C22         3.8680   -0.9970   -2.2130 ca        1 4P3     -0.123000
      7 C           3.2820   -0.9370   -3.4920 ca        1 4P3      0.086400
      8 Cl          4.0960   -1.6650   -4.7740 cl        1 4P3      0.000600
      9 C18         1.4020    0.2600   -2.5550 ca        1 4P3     -0.020000
     10 C1          2.0420   -0.2970   -3.6720 cp        1 4P3     -0.006000
     11 C2          1.3760   -0.1970   -4.9690 cp        1 4P3     -0.101000
     12 C17         2.0090    0.3980   -6.0630 ca        1 4P3     -0.114000
     13 C14         1.3320    0.5350   -7.2780 ca        1 4P3      0.053100
     14 O1          2.0000    1.0620   -8.3840 os        1 4P3     -0.312900
     15 C15         2.6090    2.3260   -8.2020 c3        1 4P3      0.095400
     16 C16         1.6600    3.4760   -8.6800 c3        1 4P3      0.597900
     17 F3          2.3230    4.6730   -8.7890 f         1 4P3     -0.230300
     18 F2          1.0950    3.2660   -9.9080 f         1 4P3     -0.230300
     19 F1          0.6130    3.7320   -7.8340 f         1 4P3     -0.230300
     20 C5          0.0110    0.0320   -7.4560 ca        1 4P3      0.116600
     21 C4         -0.5930   -0.5840   -6.3320 ca        1 4P3     -0.122000
     22 C3          0.0690   -0.6790   -5.1160 ca        1 4P3     -0.093000
     23 N          -0.6710    0.1050   -8.6850 n         1 4P3     -0.376000
     24 C6          0.0870   -0.0190   -9.9070 c3        1 4P3      0.078300
     25 C7         -2.0470    0.3840   -8.7270 c         1 4P3      0.696700
     26 O          -2.7050    0.5510   -7.6880 o         1 4P3     -0.557100
     27 C8         -2.6970    0.4490  -10.0700 ca        1 4P3     -0.177600
     28 C13        -3.0190    1.6810  -10.6550 ca        1 4P3      0.072400
     29 Cl1        -2.5720    3.1300   -9.8990 cl        1 4P3     -0.050400
     30 C12        -3.7120    1.7320  -11.8690 ca        1 4P3     -0.139000
     31 C11        -4.0890    0.5500  -12.5040 ca        1 4P3     -0.075000
     32 C10        -3.7790   -0.6870  -11.9470 ca        1 4P3     -0.165000
     33 C9         -3.0790   -0.7410  -10.7280 ca        1 4P3      0.161900
     34 F          -2.7690   -1.9430  -10.1880 f         1 4P3     -0.128900
     35 H1          1.2330    1.2060    1.8730 hn        1 4P3      0.467133
     36 H2          1.9930   -0.2300    1.4760 hn        1 4P3      0.467133
     37 H3          3.7290   -0.5110   -0.1380 ha        1 4P3      0.126000
     38 H4          4.8420   -1.5000   -2.0840 ha        1 4P3      0.178000
     39 H5          0.4230    0.7560   -2.6890 ha        1 4P3      0.184000
     40 H6          3.0420    0.7680   -5.9730 ha        1 4P3      0.143000
     41 H7          3.5030    2.3110   -8.8830 h1        1 4P3      0.093200
     42 H8          2.9020    2.5350   -7.1450 h1        1 4P3      0.093200
     43 H9         -1.6210   -0.9790   -6.4130 ha        1 4P3      0.180000
     44 H10        -0.4410   -1.1540   -4.2630 ha        1 4P3      0.139000
     45 H11         1.0350   -0.5880   -9.7100 h1        1 4P3      0.059367
     46 H12         0.3520    0.9970  -10.3090 h1        1 4P3      0.059367
     47 H13        -0.5160   -0.5810  -10.6690 h1        1 4P3      0.059367
     48 H14        -3.9620    2.7050  -12.3200 ha        1 4P3      0.163000
     49 H15        -4.6400    0.5940  -13.4570 ha        1 4P3      0.155000
     50 H16        -4.0750   -1.6240  -12.4420 ha        1 4P3      0.163000
     51 H131        2.7620    1.2210    1.1940 hn        1 4P3      0.467133
@<TRIPOS>BOND
     1    1    2 2   
     2    2    3 1   
     3    2    4 1   
     4    3   35 1   
     5    3   36 1   
     6    3   51 1   
     7    4    5 ar  
     8    4    9 ar  
     9    5    6 ar  
    10    5   37 1   
    11    6    7 ar  
    12    6   38 1   
    13    7    8 1   
    14    7   10 ar  
    15    9   10 ar  
    16    9   39 1   
    17   10   11 1   
    18   11   12 ar  
    19   11   22 ar  
    20   12   13 ar  
    21   12   40 1   
    22   13   14 1   
    23   13   20 ar  
    24   14   15 1   
    25   15   16 1   
    26   15   41 1   
    27   15   42 1   
    28   16   17 1   
    29   16   18 1   
    30   16   19 1   
    31   20   21 ar  
    32   20   23 1   
    33   21   22 ar  
    34   21   43 1   
    35   22   44 1   
    36   23   24 1   
    37   23   25 1   
    38   24   45 1   
    39   24   46 1   
    40   24   47 1   
    41   25   26 2   
    42   25   27 1   
    43   27   28 ar  
    44   27   33 ar  
    45   28   29 1   
    46   28   30 ar  
    47   30   31 ar  
    48   30   48 1   
    49   31   32 ar  
    50   31   49 1   
    51   32   33 ar  
    52   32   50 1   
    53   33   34 1   
@<TRIPOS>SUBSTRUCTURE
     1 4P3         1 TEMP              0 ****  ****    0 ROOT
