@<TRIPOS>MOLECULE
4P4
   51    55     1     0     0
SMALL
bcc


@<TRIPOS>ATOM
      1 C4         -0.0280    1.0300    0.3070 ca        1 4P4     -0.131000
      2 C5          1.3710    1.1800    0.3530 ca        1 4P4      0.129900
      3 C6          2.1400    0.4320    1.2640 ca        1 4P4     -0.139000
      4 C11        -4.8890   -0.3300    1.2020 ca        1 4P4     -0.021300
      5 C8         -2.1130   -0.0260    1.1650 cp        1 4P4      0.487800
      6 C9         -2.8080   -0.0910    2.4180 ca        1 4P4     -0.169300
      7 C10        -4.1760   -0.2380    2.4270 ca        1 4P4     -0.124000
      8 C12        -6.3160   -0.4730    1.1090 ca        1 4P4     -0.421900
      9 C13        -6.8720   -0.5630   -0.1850 ca        1 4P4      0.540200
     10 C3         -0.6480    0.1360    1.1830 cp        1 4P4     -0.150500
     11 C1          1.5010   -0.4590    2.1230 ca        1 4P4     -0.101000
     12 C2          0.1160   -0.6110    2.0900 ca        1 4P4     -0.125000
     13 F7          1.9770    2.0490   -0.4900 f         1 4P4     -0.127900
     14 N14        -6.1990   -0.5140   -1.3270 nb        1 4P4     -0.764000
     15 C15        -4.8250   -0.3600   -1.2940 ca        1 4P4      0.720900
     16 C16        -4.1190   -0.2580    0.0060 ca        1 4P4      0.227300
     17 N17        -2.7580   -0.1060   -0.0030 nb        1 4P4     -0.646000
     18 N18        -4.1500   -0.3080   -2.4610 nh        1 4P4     -0.875500
     19 C19        -7.1110   -0.5620    2.3030 c         1 4P4      0.598700
     20 O20        -6.8090   -0.8670    3.4510 o         1 4P4     -0.464100
     21 N21        -8.5950   -0.1920    2.1230 n4        1 4P4     -0.669800
     22 C22        -9.3320    0.0110    3.3890 cy        1 4P4      0.052500
     23 C23       -10.7510    0.6640    3.2270 cy        1 4P4      0.060000
     24 N24       -11.3570   -0.5970    3.6750 n         1 4P4     -0.445800
     25 C25       -10.0760   -1.2480    3.9640 cy        1 4P4      0.060000
     26 C26       -12.4570   -0.6010    4.5640 c         1 4P4      0.675100
     27 O27       -13.1390    0.4310    4.6590 o         1 4P4     -0.550100
     28 C28       -12.7750   -1.8740    5.2650 cx        1 4P4     -0.242700
     29 C29       -13.4520   -1.7830    6.6160 cx        1 4P4     -0.088900
     30 C30       -14.2350   -2.2390    5.4290 cx        1 4P4     -0.088900
     31 H1         -0.6110    1.6220   -0.4130 ha        1 4P4      0.157000
     32 H2          3.2330    0.5570    1.2880 ha        1 4P4      0.164000
     33 H3         -2.2340   -0.0150    3.3540 ha        1 4P4      0.172000
     34 H4         -4.7130   -0.2890    3.3880 ha        1 4P4      0.168000
     35 H5         -7.9580   -0.7160   -0.3490 h4        1 4P4      0.010100
     36 H6          2.0990   -1.0500    2.8340 ha        1 4P4      0.152000
     37 H7         -0.3720   -1.3260    2.7680 ha        1 4P4      0.140000
     38 H8         -3.1590   -0.2110   -2.4670 hn        1 4P4      0.476800
     39 H9         -4.6270   -0.3830   -3.3330 hn        1 4P4      0.476800
     40 H10        -9.0530   -0.9380    1.5880 hn        1 4P4      0.453300
     41 H11        -8.6600    0.5200    4.1280 hx        1 4P4      0.137700
     42 H12       -11.0640    0.9300    2.1880 h1        1 4P4      0.092200
     43 H13       -10.9190    1.5380    3.9070 h1        1 4P4      0.092200
     44 H14        -9.9520   -2.2000    3.3920 h1        1 4P4      0.092200
     45 H15        -9.8490   -1.4250    5.0450 h1        1 4P4      0.092200
     46 H16       -12.0500   -2.6930    5.0940 hc        1 4P4      0.092700
     47 H17       -13.1600   -2.5120    7.3930 hc        1 4P4      0.092950
     48 H18       -13.6570   -0.7790    7.0340 hc        1 4P4      0.092950
     49 H19       -14.5180   -3.3020    5.3330 hc        1 4P4      0.092950
     50 H20       -14.9960   -1.5590    5.0010 hc        1 4P4      0.092950
     51 H212       -8.6420    0.6730    1.5730 hn        1 4P4      0.453300
@<TRIPOS>BOND
     1    1    2 ar  
     2    1   10 ar  
     3    1   31 1   
     4    2    3 ar  
     5    2   13 1   
     6    3   11 ar  
     7    3   32 1   
     8    4    7 ar  
     9    4    8 ar  
    10    4   16 ar  
    11    5    6 ar  
    12    5   10 1   
    13    5   17 ar  
    14    6    7 ar  
    15    6   33 1   
    16    7   34 1   
    17    8    9 ar  
    18    8   19 1   
    19    9   14 ar  
    20    9   35 1   
    21   10   12 ar  
    22   11   12 ar  
    23   11   36 1   
    24   12   37 1   
    25   14   15 ar  
    26   15   16 ar  
    27   15   18 1   
    28   16   17 ar  
    29   18   38 1   
    30   18   39 1   
    31   19   20 2   
    32   19   21 1   
    33   21   22 1   
    34   21   40 1   
    35   21   51 1   
    36   22   23 1   
    37   22   25 1   
    38   22   41 1   
    39   23   24 1   
    40   23   42 1   
    41   23   43 1   
    42   24   25 1   
    43   24   26 1   
    44   25   44 1   
    45   25   45 1   
    46   26   27 2   
    47   26   28 1   
    48   28   29 1   
    49   28   30 1   
    50   28   46 1   
    51   29   30 1   
    52   29   47 1   
    53   29   48 1   
    54   30   49 1   
    55   30   50 1   
@<TRIPOS>SUBSTRUCTURE
     1 4P4         1 TEMP              0 ****  ****    0 ROOT
