@<TRIPOS>MOLECULE
4P4
   51    55     1     0     0
SMALL
bcc


@<TRIPOS>ATOM
      1 C4          0.1040   -0.5760    0.1850 ca        1 4P4     -0.131000
      2 C5          1.5090   -0.5110    0.2250 ca        1 4P4      0.129900
      3 C6          2.1630    0.1870    1.2590 ca        1 4P4     -0.139000
      4 C11        -4.8990   -0.1620    1.2200 ca        1 4P4     -0.021300
      5 C8         -2.1110   -0.0120    1.1750 cp        1 4P4      0.487800
      6 C9         -2.7930   -0.2610    2.4110 ca        1 4P4     -0.169300
      7 C10        -4.1660   -0.3340    2.4250 ca        1 4P4     -0.124000
      8 C12        -6.3330   -0.2150    1.1330 ca        1 4P4     -0.420900
      9 C13        -6.9080   -0.0390   -0.1440 ca        1 4P4      0.540200
     10 C3         -0.6380    0.0550    1.1870 cp        1 4P4     -0.149500
     11 C1          1.4040    0.8140    2.2430 ca        1 4P4     -0.101000
     12 C2          0.0120    0.7520    2.2150 ca        1 4P4     -0.126000
     13 F7          2.2330   -1.1240   -0.7400 f         1 4P4     -0.126900
     14 N14        -6.2480    0.1940   -1.2710 nb        1 4P4     -0.764000
     15 C15        -4.8680    0.2760   -1.2380 ca        1 4P4      0.720900
     16 C16        -4.1410    0.0850    0.0400 ca        1 4P4      0.227300
     17 N17        -2.7740    0.1540    0.0260 nb        1 4P4     -0.646000
     18 N18        -4.2070    0.5300   -2.3860 nv        1 4P4     -0.875500
     19 C19        -7.1170   -0.4800    2.3080 c         1 4P4      0.598700
     20 O20        -6.8130   -0.9860    3.3820 o         1 4P4     -0.465100
     21 N21        -8.5900   -0.0390    2.2200 ny        1 4P4     -0.669800
     22 C22        -9.3090   -0.0480    3.5120 cy        1 4P4      0.052500
     23 C23       -10.7100    0.6620    3.4920 cy        1 4P4      0.060000
     24 N24       -11.3490   -0.6410    3.7130 n         1 4P4     -0.445800
     25 C25       -10.0850   -1.3700    3.8610 cy        1 4P4      0.060000
     26 C26       -12.4390   -0.7760    4.6030 c         1 4P4      0.675100
     27 O27       -13.0900    0.2400    4.8940 o         1 4P4     -0.550100
     28 C28       -12.7890   -2.1450    5.0680 cx        1 4P4     -0.242700
     29 C29       -13.4480   -2.2820    6.4230 cx        1 4P4     -0.088900
     30 C30       -14.2570   -2.4930    5.1860 cx        1 4P4     -0.088900
     31 H1         -0.3890   -1.1250   -0.6300 ha        1 4P4      0.158000
     32 H2          3.2620    0.2310    1.2770 ha        1 4P4      0.164000
     33 H3         -2.2030   -0.4010    3.3310 ha        1 4P4      0.172000
     34 H4         -4.6920   -0.5370    3.3720 ha        1 4P4      0.169000
     35 H5         -8.0020   -0.1100   -0.3110 h4        1 4P4      0.010100
     36 H6          1.9100    1.3650    3.0500 ha        1 4P4      0.152000
     37 H7         -0.5740    1.2610    2.9950 ha        1 4P4      0.139000
     38 H8         -3.2120    0.5890   -2.3940 hn        1 4P4      0.476800
     39 H9         -4.6980    0.6540   -3.2450 hn        1 4P4      0.476800
     40 H10        -9.0770   -0.6620    1.5650 hn        1 4P4      0.453300
     41 H11        -8.6160    0.3000    4.3210 hx        1 4P4      0.137700
     42 H12       -11.0240    1.1200    2.5220 h1        1 4P4      0.092200
     43 H13       -10.8450    1.4030    4.3200 h1        1 4P4      0.092200
     44 H14        -9.9950   -2.2060    3.1250 h1        1 4P4      0.092200
     45 H15        -9.8530   -1.7450    4.8890 h1        1 4P4      0.092200
     46 H16       -12.0910   -2.9400    4.7400 hc        1 4P4      0.092700
     47 H17       -13.1710   -3.1480    7.0510 hc        1 4P4      0.092950
     48 H18       -13.6190   -1.3650    7.0190 hc        1 4P4      0.092950
     49 H19       -14.5730   -3.5130    4.9040 hc        1 4P4      0.092950
     50 H20       -15.0020   -1.7260    4.9000 hc        1 4P4      0.092950
     51 H212       -8.6140    0.9120    1.8370 hn        1 4P4      0.453300
@<TRIPOS>BOND
     1    1    2 ar  
     2    1   10 ar  
     3    1   31 1   
     4    2    3 ar  
     5    2   13 1   
     6    3   11 ar  
     7    3   32 1   
     8    4    7 ar  
     9    4    8 ar  
    10    4   16 ar  
    11    5    6 ar  
    12    5   10 1   
    13    5   17 ar  
    14    6    7 ar  
    15    6   33 1   
    16    7   34 1   
    17    8    9 ar  
    18    8   19 1   
    19    9   14 ar  
    20    9   35 1   
    21   10   12 ar  
    22   11   12 ar  
    23   11   36 1   
    24   12   37 1   
    25   14   15 ar  
    26   15   16 ar  
    27   15   18 1   
    28   16   17 ar  
    29   18   38 1   
    30   18   39 1   
    31   19   20 2   
    32   19   21 1   
    33   21   22 1   
    34   21   40 1   
    35   21   51 1   
    36   22   23 1   
    37   22   25 1   
    38   22   41 1   
    39   23   24 1   
    40   23   42 1   
    41   23   43 1   
    42   24   25 1   
    43   24   26 1   
    44   25   44 1   
    45   25   45 1   
    46   26   27 2   
    47   26   28 1   
    48   28   29 1   
    49   28   30 1   
    50   28   46 1   
    51   29   30 1   
    52   29   47 1   
    53   29   48 1   
    54   30   49 1   
    55   30   50 1   
@<TRIPOS>SUBSTRUCTURE
     1 4P4         1 TEMP              0 ****  ****    0 ROOT
