@<TRIPOS>MOLECULE
4P5
   15    16     1     0     0
SMALL
bcc


@<TRIPOS>ATOM
      1 C2          0.0020   -0.1380   -0.0300 cc        1 4P5      0.203000
      2 C3          1.4210    0.1460    0.0490 cd        1 4P5     -0.257600
      3 C5          0.7870   -0.0120   -2.0990 cc        1 4P5      0.187600
      4 C7          0.5970    0.0120    2.1380 cd        1 4P5     -0.093900
      5 C9          0.6340    0.0410    3.6590 c         1 4P5      0.930200
      6 O11         1.7520    0.2720    4.2020 o         1 4P5     -0.819800
      7 O10        -0.4450   -0.1650    4.2700 o         1 4P5     -0.819800
      8 N8          1.7550    0.2320    1.3830 na        1 4P5     -0.134100
      9 C6         -0.5140   -0.2220    1.2850 cc        1 4P5     -0.261300
     10 O1         -0.3900   -0.2360   -1.3530 os        1 4P5     -0.354800
     11 C4          1.8940    0.2210   -1.3020 cd        1 4P5     -0.216300
     12 H5          0.6300   -0.0580   -3.1690 h4        1 4P5      0.025100
     13 H6         -1.5270   -0.4190    1.6150 ha        1 4P5      0.164000
     14 H4          2.9090    0.4180   -1.6290 ha        1 4P5      0.139000
     15 HN8         2.6400    0.4140    1.7780 hn        1 4P5      0.308700
@<TRIPOS>BOND
     1    1    2 2   
     2    1    9 1   
     3    1   10 1   
     4    2    8 1   
     5    2   11 1   
     6    3   10 1   
     7    3   11 2   
     8    3   12 1   
     9    4    5 1   
    10    4    8 1   
    11    4    9 2   
    12    5    6 1   
    13    5    7 1   
    14    8   15 1   
    15    9   13 1   
    16   11   14 1   
@<TRIPOS>SUBSTRUCTURE
     1 4P5         1 TEMP              0 ****  ****    0 ROOT
