@<TRIPOS>MOLECULE
4P5
   15    11     1     0     0
SMALL
bcc


@<TRIPOS>ATOM
      1 C2         -0.7860   -0.0030   -0.7250 ce        1 4P5     -0.162600
      2 C3          0.5830   -0.0030   -0.7250 ce        1 4P5      0.111200
      3 C5         -0.1070   -0.0030   -2.8520 c1        1 4P5     -0.115400
      4 C7         -0.0930   -0.0030    1.3920 c1        1 4P5     -0.049000
      5 C9         -0.0840    0.0230    2.9050 c1        1 4P5      0.846000
      6 O11        -0.3020    1.1480    3.7320 o         1 4P5     -0.788000
      7 O10        -0.1150   -1.0090    3.7200 o         1 4P5     -0.788000
      8 N8          1.0100   -0.0030    0.5880 n1        1 4P5     -0.295400
      9 C6         -1.2100   -0.0030    0.5830 c1        1 4P5     -0.132900
     10 O1         -1.2150   -0.0030   -2.0450 os        1 4P5     -0.168700
     11 C4          1.0100   -0.0030   -2.0420 cg        1 4P5     -0.181200
     12 H5         -0.3600   -0.2650   -3.7580 DU        1 4P5      0.181000
     13 H6         -2.1350    0.1320    0.8640 DU        1 4P5      0.181000
     14 H4          1.9080   -0.1100   -2.4090 DU        1 4P5      0.181000
     15 HN8         1.8970    0.1050    0.7710 DU        1 4P5      0.181000
@<TRIPOS>BOND
     1    1    2 1   
     2    1    9 2   
     3    1   10 1   
     4    2    8 2   
     5    2   11 1   
     6    3   10 1   
     7    3   11 3   
     8    4    8 2   
     9    4    9 2   
    10    5    6 2   
    11    5    7 2   
@<TRIPOS>SUBSTRUCTURE
     1 4P5         1 TEMP              0 ****  ****    0 ROOT
