@<TRIPOS>MOLECULE
4P5
   15    16     1     0     0
SMALL
bcc


@<TRIPOS>ATOM
      1 C2         -1.2380   -0.6940   -0.0010 cc        1 4P5      0.203000
      2 C3         -1.1610    0.7530    0.0000 cd        1 4P5     -0.257600
      3 C5         -3.3080    0.0990   -0.0010 cc        1 4P5      0.187600
      4 C7          0.9290   -0.0790   -0.0010 cd        1 4P5     -0.093900
      5 C9          2.4500   -0.0350   -0.0010 c         1 4P5      0.930200
      6 O11         3.0630   -1.1330   -0.0020 o         1 4P5     -0.819800
      7 O10         2.9920    1.1070    0.0010 o         1 4P5     -0.819800
      8 N8          0.1720    1.0990    0.0010 na        1 4P5     -0.134100
      9 C6          0.0770   -1.2150   -0.0020 cc        1 4P5     -0.261300
     10 O1         -2.5610   -1.0990   -0.0020 os        1 4P5     -0.354800
     11 C4         -2.5120    1.2300    0.0010 cd        1 4P5     -0.216300
     12 H5         -4.3790   -0.0660   -0.0010 h4        1 4P5      0.025100
     13 H6          0.4080   -2.2470   -0.0030 ha        1 4P5      0.164000
     14 H4         -2.8410    2.2640    0.0020 ha        1 4P5      0.139000
     15 HN8         0.5670    2.0030    0.0010 hn        1 4P5      0.308700
@<TRIPOS>BOND
     1    1    2 2   
     2    1    9 1   
     3    1   10 1   
     4    2    8 1   
     5    2   11 1   
     6    3   10 1   
     7    3   11 2   
     8    3   12 1   
     9    4    5 1   
    10    4    8 1   
    11    4    9 2   
    12    5    6 1   
    13    5    7 1   
    14    8   15 1   
    15    9   13 1   
    16   11   14 1   
@<TRIPOS>SUBSTRUCTURE
     1 4P5         1 TEMP              0 ****  ****    0 ROOT
