@<TRIPOS>MOLECULE
4P5
   15    16     1     0     0
SMALL
bcc


@<TRIPOS>ATOM
      1 C2          0.0160   -0.2100   -0.0250 cc        1 4P5      0.203000
      2 C3          1.4070    0.1920    0.0450 cd        1 4P5     -0.257600
      3 C5          0.7810   -0.0310   -2.0990 cc        1 4P5      0.187600
      4 C7          0.6050    0.0030    2.1390 cd        1 4P5     -0.093900
      5 C9          0.6440    0.0450    3.6590 c         1 4P5      0.930200
      6 O11         1.7410    0.3720    4.1970 o         1 4P5     -0.819800
      7 O10        -0.4110   -0.2470    4.2770 o         1 4P5     -0.819800
      8 N8          1.7370    0.3140    1.3780 na        1 4P5     -0.134100
      9 C6         -0.4860   -0.3280    1.2920 cc        1 4P5     -0.261300
     10 O1         -0.3710   -0.3480   -1.3470 os        1 4P5     -0.354800
     11 C4          1.8670    0.2980   -1.3070 cd        1 4P5     -0.216300
     12 H5          0.6250   -0.0980   -3.1680 h4        1 4P5      0.025100
     13 H6         -1.4780   -0.6070    1.6270 ha        1 4P5      0.164000
     14 H4          2.8610    0.5770   -1.6400 ha        1 4P5      0.139000
     15 HN8         2.6060    0.5720    1.7680 hn        1 4P5      0.308700
@<TRIPOS>BOND
     1    1    2 2   
     2    1    9 1   
     3    1   10 1   
     4    2    8 1   
     5    2   11 1   
     6    3   10 1   
     7    3   11 2   
     8    3   12 1   
     9    4    5 1   
    10    4    8 1   
    11    4    9 2   
    12    5    6 1   
    13    5    7 1   
    14    8   15 1   
    15    9   13 1   
    16   11   14 1   
@<TRIPOS>SUBSTRUCTURE
     1 4P5         1 TEMP              0 ****  ****    0 ROOT
