@<TRIPOS>MOLECULE
4P6
   32    34     1     0     0
SMALL
bcc


@<TRIPOS>ATOM
      1 C1          0.0810    0.3180   -0.0530 ca        1 4P6     -0.252300
      2 C2          4.7290   -3.7980   -3.3780 cc        1 4P6     -0.157000
      3 C3          1.4720    0.3990    0.0150 ca        1 4P6     -0.077000
      4 C4          3.9230   -3.3100   -2.3090 cc        1 4P6     -0.141000
      5 C5         -0.6170   -0.2130    1.0470 ca        1 4P6      0.399200
      6 C6          1.3300   -0.5590    2.2270 ca        1 4P6      0.427200
      7 C7          5.8660   -3.0350   -3.5440 cd        1 4P6     -0.175100
      8 C8          2.1200   -0.0520    1.1710 ca        1 4P6     -0.247200
      9 C9          4.4860   -2.1960   -1.6950 cd        1 4P6     -0.096900
     10 C10         3.5910    0.0300    1.3090 ce        1 4P6      0.512200
     11 C11         4.4030   -0.6090    0.2410 ce        1 4P6     -0.221800
     12 C12         3.8570   -1.5000   -0.6100 cf        1 4P6     -0.039200
     13 C13         5.8310   -0.1880    0.2220 c3        1 4P6     -0.045200
     14 C14         6.3930   -0.0630    1.6250 c3        1 4P6     -0.104400
     15 C15         5.4950    0.7960    2.5090 c3        1 4P6      0.099800
     16 N16        -0.0120   -0.6460    2.1700 nb        1 4P6     -0.668000
     17 N17         4.0790    0.6570    2.3330 n2        1 4P6     -0.573900
     18 S18         5.9440   -1.7930   -2.4420 ss        1 4P6      0.040200
     19 H19        -0.4630    0.6640   -0.9420 ha        1 4P6      0.145000
     20 H21         2.0530    0.8100   -0.8240 ha        1 4P6      0.145000
     21 H22         2.9770   -3.7680   -2.0130 ha        1 4P6      0.156000
     22 H23        -1.7190   -0.2940    1.0340 h4        1 4P6      0.022100
     23 H24         1.7990   -0.9070    3.1650 h4        1 4P6      0.035100
     24 H25         6.6350   -3.2070   -4.2960 h4        1 4P6      0.172000
     25 H26         2.7860   -1.7640   -0.4880 ha        1 4P6      0.142000
     26 H28         6.4620   -0.9260   -0.3480 hc        1 4P6      0.054700
     27 H27         5.9110    0.8010   -0.3070 hc        1 4P6      0.054700
     28 H30         7.4160    0.3910    1.5820 hc        1 4P6      0.052200
     29 H29         6.4950   -1.0850    2.0750 hc        1 4P6      0.052200
     30 H32         5.7380    1.8870    2.3440 h1        1 4P6      0.067700
     31 H31         5.7090    0.5660    3.5920 h1        1 4P6      0.067700
     32 H20         4.4610   -4.6680   -3.9800 ha        1 4P6      0.155000
@<TRIPOS>BOND
     1    1    3 ar  
     2    1    5 ar  
     3    1   19 1   
     4    2    4 1   
     5    2    7 2   
     6    2   32 1   
     7    3    8 ar  
     8    3   20 1   
     9    4    9 2   
    10    4   21 1   
    11    5   16 ar  
    12    5   22 1   
    13    6    8 ar  
    14    6   16 ar  
    15    6   23 1   
    16    7   18 1   
    17    7   24 1   
    18    8   10 1   
    19    9   12 1   
    20    9   18 1   
    21   10   11 1   
    22   10   17 2   
    23   11   12 2   
    24   11   13 1   
    25   12   25 1   
    26   13   14 1   
    27   13   26 1   
    28   13   27 1   
    29   14   15 1   
    30   14   28 1   
    31   14   29 1   
    32   15   17 1   
    33   15   30 1   
    34   15   31 1   
@<TRIPOS>SUBSTRUCTURE
     1 4P6         1 TEMP              0 ****  ****    0 ROOT
