@<TRIPOS>MOLECULE
4P6
   32    34     1     0     0
SMALL
bcc


@<TRIPOS>ATOM
      1 C1          0.0810    0.3210   -0.0650 ca        1 4P6     -0.252300
      2 C2          4.7390   -3.7950   -3.3780 cc        1 4P6     -0.157000
      3 C3          1.4720    0.4010    0.0080 ca        1 4P6     -0.077000
      4 C4          3.9300   -3.3070   -2.3120 cc        1 4P6     -0.141000
      5 C5         -0.6200   -0.2110    1.0320 ca        1 4P6      0.399200
      6 C6          1.3220   -0.5600    2.2180 ca        1 4P6      0.427200
      7 C7          5.8780   -3.0330   -3.5380 cd        1 4P6     -0.175100
      8 C8          2.1160   -0.0520    1.1660 ca        1 4P6     -0.247200
      9 C9          4.4910   -2.1940   -1.6940 cd        1 4P6     -0.096900
     10 C10         3.5870    0.0290    1.3090 ce        1 4P6      0.512200
     11 C11         4.4020   -0.6100    0.2430 ce        1 4P6     -0.221800
     12 C12         3.8590   -1.5000   -0.6100 cf        1 4P6     -0.039200
     13 C13         5.8310   -0.1900    0.2310 c3        1 4P6     -0.045200
     14 C14         6.3880   -0.0660    1.6360 c3        1 4P6     -0.104400
     15 C15         5.4870    0.7930    2.5170 c3        1 4P6      0.099800
     16 N16        -0.0200   -0.6470    2.1570 nb        1 4P6     -0.668000
     17 N17         4.0720    0.6550    2.3350 n2        1 4P6     -0.573900
     18 S18         5.9530   -1.7920   -2.4340 ss        1 4P6      0.040200
     19 H19        -0.4580    0.6680   -0.9550 ha        1 4P6      0.145000
     20 H21         2.0560    0.8130   -0.8280 ha        1 4P6      0.145000
     21 H22         2.9820   -3.7650   -2.0200 ha        1 4P6      0.156000
     22 H23        -1.7220   -0.2920    1.0150 h4        1 4P6      0.022100
     23 H24         1.7880   -0.9100    3.1580 h4        1 4P6      0.035100
     24 H25         6.6490   -3.2050   -4.2880 h4        1 4P6      0.172000
     25 H26         2.7870   -1.7630   -0.4930 ha        1 4P6      0.142000
     26 H28         6.4630   -0.9280   -0.3380 hc        1 4P6      0.054700
     27 H27         5.9140    0.7990   -0.2970 hc        1 4P6      0.054700
     28 H30         6.4870   -1.0890    2.0860 hc        1 4P6      0.052200
     29 H29         7.4110    0.3870    1.5970 hc        1 4P6      0.052200
     30 H32         5.6970    0.5610    3.6010 h1        1 4P6      0.067700
     31 H31         5.7310    1.8840    2.3530 h1        1 4P6      0.067700
     32 H20         4.4730   -4.6640   -3.9820 ha        1 4P6      0.155000
@<TRIPOS>BOND
     1    1    3 ar  
     2    1    5 ar  
     3    1   19 1   
     4    2    4 1   
     5    2    7 2   
     6    2   32 1   
     7    3    8 ar  
     8    3   20 1   
     9    4    9 2   
    10    4   21 1   
    11    5   16 ar  
    12    5   22 1   
    13    6    8 ar  
    14    6   16 ar  
    15    6   23 1   
    16    7   18 1   
    17    7   24 1   
    18    8   10 1   
    19    9   12 1   
    20    9   18 1   
    21   10   11 1   
    22   10   17 2   
    23   11   12 2   
    24   11   13 1   
    25   12   25 1   
    26   13   14 1   
    27   13   26 1   
    28   13   27 1   
    29   14   15 1   
    30   14   28 1   
    31   14   29 1   
    32   15   17 1   
    33   15   30 1   
    34   15   31 1   
@<TRIPOS>SUBSTRUCTURE
     1 4P6         1 TEMP              0 ****  ****    0 ROOT
