@<TRIPOS>MOLECULE
4P7
   33    35     1     0     0
SMALL
bcc


@<TRIPOS>ATOM
      1 C17         0.1140    0.4500   -0.1030 ca        1 4P7     -0.253300
      2 C16         1.5060    0.4660   -0.0060 ca        1 4P7     -0.077000
      3 C4          5.5560   -1.7140   -2.5300 cc        1 4P7     -0.175000
      4 C18        -0.6300   -0.0420    0.9850 ca        1 4P7      0.396200
      5 C14         1.2740   -0.4730    2.2060 ca        1 4P7      0.425200
      6 C3          5.8060   -2.7120   -3.4790 cd        1 4P7     -0.170300
      7 C1          4.0980   -3.4450   -2.1900 cd        1 4P7     -0.141300
      8 C15         2.1090   -0.0090    1.1650 ca        1 4P7     -0.243200
      9 C5          4.4710   -2.1740   -1.7000 cc        1 4P7     -0.140800
     10 C12         3.5790    0.0040    1.3310 cf        1 4P7      0.512200
     11 C11         4.3800   -0.6560    0.2700 cf        1 4P7     -0.224800
     12 C6          3.8190   -1.5030   -0.6140 ce        1 4P7     -0.035200
     13 C10         5.8330   -0.3220    0.2900 c3        1 4P7     -0.042200
     14 C9          6.3650   -0.2380    1.7070 c3        1 4P7     -0.104400
     15 C8          5.4940    0.6630    2.5770 c3        1 4P7      0.100800
     16 N13        -0.0690   -0.4980    2.1220 nb        1 4P7     -0.670000
     17 N7          4.0760    0.5940    2.3740 n2        1 4P7     -0.580900
     18 N2          4.9170   -3.7630   -3.2620 na        1 4P7     -0.173100
     19 H32        -0.3930    0.8160   -1.0040 ha        1 4P7      0.143000
     20 H31         2.1240    0.8430   -0.8350 ha        1 4P7      0.146000
     21 H33        -1.7330   -0.0720    0.9490 h4        1 4P7      0.021100
     22 H30         1.7070   -0.8370    3.1560 h4        1 4P7      0.034100
     23 H21         6.5420   -2.7470   -4.2820 h4        1 4P7      0.167000
     24 H19         3.3200   -4.1230   -1.8370 h4        1 4P7      0.170000
     25 H23         2.7400   -1.7400   -0.5240 ha        1 4P7      0.129000
     26 H28         5.9870    0.6610   -0.2320 hc        1 4P7      0.055700
     27 H29         6.4180   -1.0980   -0.2730 hc        1 4P7      0.055700
     28 H27         7.4120    0.1590    1.6940 hc        1 4P7      0.048700
     29 H26         6.3990   -1.2670    2.1510 hc        1 4P7      0.048700
     30 H24         5.7930    1.7400    2.4180 h1        1 4P7      0.064700
     31 H25         5.6760    0.4200    3.6630 h1        1 4P7      0.064700
     32 H20         4.8820   -4.5990   -3.7810 hn        1 4P7      0.295700
     33 H22         6.0670   -0.7600   -2.4460 ha        1 4P7      0.156000
@<TRIPOS>BOND
     1    1    2 ar  
     2    1    4 ar  
     3    1   19 1   
     4    2    8 ar  
     5    2   20 1   
     6    3    6 2   
     7    3    9 1   
     8    3   33 1   
     9    4   16 ar  
    10    4   21 1   
    11    5    8 ar  
    12    5   16 ar  
    13    5   22 1   
    14    6   18 1   
    15    6   23 1   
    16    7    9 2   
    17    7   18 1   
    18    7   24 1   
    19    8   10 1   
    20    9   12 1   
    21   10   11 1   
    22   10   17 2   
    23   11   12 2   
    24   11   13 1   
    25   12   25 1   
    26   13   14 1   
    27   13   26 1   
    28   13   27 1   
    29   14   15 1   
    30   14   28 1   
    31   14   29 1   
    32   15   17 1   
    33   15   30 1   
    34   15   31 1   
    35   18   32 1   
@<TRIPOS>SUBSTRUCTURE
     1 4P7         1 TEMP              0 ****  ****    0 ROOT
