@<TRIPOS>MOLECULE
4P7
   33    35     1     0     0
SMALL
bcc


@<TRIPOS>ATOM
      1 C17         0.1120    0.4420   -0.0980 ca        1 4P7     -0.254300
      2 C16         1.5030    0.4600    0.0000 ca        1 4P7     -0.077000
      3 C4          5.5610   -1.6910   -2.5340 cc        1 4P7     -0.175000
      4 C18        -0.6330   -0.0590    0.9850 ca        1 4P7      0.396200
      5 C14         1.2700   -0.4940    2.2060 ca        1 4P7      0.425200
      6 C3          5.8150   -2.6810   -3.4900 cd        1 4P7     -0.170300
      7 C1          4.1070   -3.4280   -2.2090 cd        1 4P7     -0.141300
      8 C15         2.1060   -0.0210    1.1700 ca        1 4P7     -0.243200
      9 C5          4.4760   -2.1600   -1.7100 cc        1 4P7     -0.140800
     10 C12         3.5760   -0.0070    1.3380 cf        1 4P7      0.512200
     11 C11         4.3790   -0.6570    0.2720 cf        1 4P7     -0.224800
     12 C6          3.8210   -1.4990   -0.6190 ce        1 4P7     -0.035200
     13 C10         5.8310   -0.3200    0.2970 c3        1 4P7     -0.042200
     14 C9          6.3610   -0.2460    1.7150 c3        1 4P7     -0.104400
     15 C8          5.4870    0.6470    2.5910 c3        1 4P7      0.100800
     16 N13        -0.0730   -0.5220    2.1200 nb        1 4P7     -0.670000
     17 N7          4.0690    0.5760    2.3860 n2        1 4P7     -0.580900
     18 N2          4.9280   -3.7360   -3.2820 na        1 4P7     -0.173100
     19 H32        -0.3950    0.8140   -0.9980 ha        1 4P7      0.143000
     20 H31         2.1220    0.8450   -0.8250 ha        1 4P7      0.146000
     21 H33        -1.7360   -0.0900    0.9470 h4        1 4P7      0.021100
     22 H30         1.7030   -0.8650    3.1530 h4        1 4P7      0.034100
     23 H21         6.5520   -2.7080   -4.2930 h4        1 4P7      0.167000
     24 H19         3.3310   -4.1100   -1.8620 h4        1 4P7      0.170000
     25 H23         2.7430   -1.7390   -0.5320 ha        1 4P7      0.129000
     26 H28         5.9840    0.6680   -0.2170 hc        1 4P7      0.055700
     27 H29         6.4190   -1.0900   -0.2720 hc        1 4P7      0.055700
     28 H27         6.3970   -1.2780    2.1510 hc        1 4P7      0.048700
     29 H26         7.4070    0.1530    1.7070 hc        1 4P7      0.048700
     30 H24         5.6680    0.3960    3.6750 h1        1 4P7      0.064700
     31 H25         5.7850    1.7260    2.4410 h1        1 4P7      0.064700
     32 H20         4.8950   -4.5680   -3.8080 hn        1 4P7      0.295700
     33 H22         6.0690   -0.7360   -2.4430 ha        1 4P7      0.156000
@<TRIPOS>BOND
     1    1    2 ar  
     2    1    4 ar  
     3    1   19 1   
     4    2    8 ar  
     5    2   20 1   
     6    3    6 2   
     7    3    9 1   
     8    3   33 1   
     9    4   16 ar  
    10    4   21 1   
    11    5    8 ar  
    12    5   16 ar  
    13    5   22 1   
    14    6   18 1   
    15    6   23 1   
    16    7    9 2   
    17    7   18 1   
    18    7   24 1   
    19    8   10 1   
    20    9   12 1   
    21   10   11 1   
    22   10   17 2   
    23   11   12 2   
    24   11   13 1   
    25   12   25 1   
    26   13   14 1   
    27   13   26 1   
    28   13   27 1   
    29   14   15 1   
    30   14   28 1   
    31   14   29 1   
    32   15   17 1   
    33   15   30 1   
    34   15   31 1   
    35   18   32 1   
@<TRIPOS>SUBSTRUCTURE
     1 4P7         1 TEMP              0 ****  ****    0 ROOT
