@<TRIPOS>MOLECULE
4P8
   30    31     1     0     0
SMALL
bcc


@<TRIPOS>ATOM
      1 OAP         0.1370    0.8330    0.0790 o         1 4P8     -0.550100
      2 CAO         1.3430    0.8810    0.3420 c         1 4P8      0.591500
      3 CAM         1.9340    0.4060    1.5980 ca        1 4P8     -0.302600
      4 CAK         3.3220    0.5130    1.7460 ca        1 4P8     -0.004000
      5 CAN         1.1650   -0.1440    2.6500 ca        1 4P8      0.267100
      6 OAQ        -0.1800   -0.3030    2.6190 oh        1 4P8     -0.452100
      7 CAL         1.8280   -0.5720    3.8360 ca        1 4P8     -0.240200
      8 NAR         1.0670   -1.1530    4.9690 no        1 4P8      0.326200
      9 OAT        -0.1270   -1.2280    4.9080 o         1 4P8     -0.199500
     10 OAS         1.6850   -1.5380    5.9300 o         1 4P8     -0.199500
     11 CAJ         3.2190   -0.4480    3.9520 ca        1 4P8      0.004000
     12 CAI         3.9710    0.0930    2.9060 ca        1 4P8     -0.137300
     13 CAH         5.4550    0.1850    3.0310 c3        1 4P8      0.011200
     14 CAB         6.0030    1.4920    2.5670 ca        1 4P8     -0.081300
     15 CAA         6.0060    2.6330    3.3850 ca        1 4P8      0.025400
     16 CLG         5.3540    2.5910    4.9550 cl        1 4P8     -0.085400
     17 CAF         6.5500    3.8390    2.9260 ca        1 4P8     -0.121000
     18 CAE         7.0970    3.9120    1.6470 ca        1 4P8     -0.118000
     19 CAD         7.1030    2.7840    0.8260 ca        1 4P8     -0.127000
     20 CAC         6.5600    1.5870    1.2850 ca        1 4P8     -0.127000
     21 H1          2.0720    1.3020   -0.3890 h4        1 4P8      0.015200
     22 H2          3.9230    0.9470    0.9260 ha        1 4P8      0.150000
     23 H3         -0.5470    0.0240    1.7770 ho        1 4P8      0.468000
     24 H4          3.7190   -0.7800    4.8820 ha        1 4P8      0.179000
     25 H5          5.7590    0.0130    4.1010 hc        1 4P8      0.069700
     26 H6          5.9120   -0.6470    2.4250 hc        1 4P8      0.069700
     27 H7          6.5470    4.7270    3.5770 ha        1 4P8      0.152000
     28 H8          7.5260    4.8590    1.2890 ha        1 4P8      0.142000
     29 H9          7.5390    2.8390   -0.1820 ha        1 4P8      0.139000
     30 H10         6.5740    0.6970    0.6360 ha        1 4P8      0.136000
@<TRIPOS>BOND
     1    1    2 2   
     2    2    3 1   
     3    2   21 1   
     4    3    4 ar  
     5    3    5 ar  
     6    4   12 ar  
     7    4   22 1   
     8    5    6 1   
     9    5    7 ar  
    10    6   23 1   
    11    7    8 1   
    12    7   11 ar  
    13    8    9 1   
    14    8   10 1   
    15   11   12 ar  
    16   11   24 1   
    17   12   13 1   
    18   13   14 1   
    19   13   25 1   
    20   13   26 1   
    21   14   15 ar  
    22   14   20 ar  
    23   15   16 1   
    24   15   17 ar  
    25   17   18 ar  
    26   17   27 1   
    27   18   19 ar  
    28   18   28 1   
    29   19   20 ar  
    30   19   29 1   
    31   20   30 1   
@<TRIPOS>SUBSTRUCTURE
     1 4P8         1 TEMP              0 ****  ****    0 ROOT
