@<TRIPOS>MOLECULE
4P8
   30    31     1     0     0
SMALL
bcc


@<TRIPOS>ATOM
      1 OAP         0.1400    0.8350    0.0740 o         1 4P8     -0.550100
      2 CAO         1.3460    0.8920    0.3380 c         1 4P8      0.591500
      3 CAM         1.9420    0.4000    1.5850 ca        1 4P8     -0.302600
      4 CAK         3.3290    0.5210    1.7350 ca        1 4P8     -0.004000
      5 CAN         1.1790   -0.1800    2.6260 ca        1 4P8      0.267100
      6 OAQ        -0.1640   -0.3540    2.5910 oh        1 4P8     -0.452100
      7 CAL         1.8470   -0.6230    3.8030 ca        1 4P8     -0.240200
      8 NAR         1.0930   -1.2350    4.9250 no        1 4P8      0.326200
      9 OAT        -0.1010   -1.3220    4.8620 o         1 4P8     -0.199500
     10 OAS         1.7150   -1.6310    5.8780 o         1 4P8     -0.199500
     11 CAJ         3.2360   -0.4850    3.9220 ca        1 4P8      0.004000
     12 CAI         3.9820    0.0850    2.8870 ca        1 4P8     -0.137300
     13 CAH         5.4650    0.1930    3.0140 c3        1 4P8      0.011200
     14 CAB         5.9970    1.5150    2.5780 ca        1 4P8     -0.081300
     15 CAA         5.9870    2.6390    3.4180 ca        1 4P8      0.025400
     16 ClG         5.3350    2.5570    4.9880 cl        1 4P8     -0.085400
     17 CAF         6.5160    3.8600    2.9850 ca        1 4P8     -0.121000
     18 CAE         7.0620    3.9660    1.7080 ca        1 4P8     -0.118000
     19 CAD         7.0810    2.8560    0.8640 ca        1 4P8     -0.127000
     20 CAC         6.5530    1.6430    1.2970 ca        1 4P8     -0.127000
     21 H1          2.0690    1.3360   -0.3840 h4        1 4P8      0.015200
     22 H2          3.9240    0.9770    0.9240 ha        1 4P8      0.150000
     23 H3         -0.5350   -0.0150    1.7550 ho        1 4P8      0.468000
     24 H4          3.7400   -0.8290    4.8450 ha        1 4P8      0.179000
     25 H5          5.9310   -0.6220    2.3910 hc        1 4P8      0.069700
     26 H6          5.7710    0.0020    4.0800 hc        1 4P8      0.069700
     27 H7          6.5030    4.7350    3.6540 ha        1 4P8      0.152000
     28 H8          7.4800    4.9260    1.3690 ha        1 4P8      0.142000
     29 H9          7.5170    2.9370   -0.1430 ha        1 4P8      0.139000
     30 H10         6.5780    0.7670    0.6310 ha        1 4P8      0.136000
@<TRIPOS>BOND
     1    1    2 2   
     2    2    3 1   
     3    2   21 1   
     4    3    4 ar  
     5    3    5 ar  
     6    4   12 ar  
     7    4   22 1   
     8    5    6 1   
     9    5    7 ar  
    10    6   23 1   
    11    7    8 1   
    12    7   11 ar  
    13    8    9 1   
    14    8   10 1   
    15   11   12 ar  
    16   11   24 1   
    17   12   13 1   
    18   13   14 1   
    19   13   25 1   
    20   13   26 1   
    21   14   15 ar  
    22   14   20 ar  
    23   15   16 1   
    24   15   17 ar  
    25   17   18 ar  
    26   17   27 1   
    27   18   19 ar  
    28   18   28 1   
    29   19   20 ar  
    30   19   29 1   
    31   20   30 1   
@<TRIPOS>SUBSTRUCTURE
     1 4P8         1 TEMP              0 ****  ****    0 ROOT
