@<TRIPOS>MOLECULE
4P9
   30    31     1     0     0
SMALL
bcc


@<TRIPOS>ATOM
      1 CAN         0.1910    0.3580    0.0340 ca        1 4P9     -0.153000
      2 CAP         1.4600    0.8510    0.3170 ca        1 4P9     -0.100500
      3 CAR         1.9840    0.7460    1.6080 ca        1 4P9     -0.010600
      4 CLS         3.5380    1.3500    1.9450 cl        1 4P9     -0.097400
      5 CAQ         1.2360    0.1460    2.6240 ca        1 4P9     -0.100500
      6 CAO        -0.0360   -0.3440    2.3530 ca        1 4P9     -0.153000
      7 CAM        -0.5760   -0.2510    1.0500 ca        1 4P9      0.153600
      8 NAL        -1.8390   -0.8540    0.7900 nh        1 4P9     -0.417700
      9 NAK        -2.5790   -0.4030   -0.2270 n2        1 4P9     -0.395400
     10 CAJ        -3.8580   -0.6580   -0.2900 ce        1 4P9      0.375800
     11 CAB        -4.6630   -0.2570   -1.4470 ca        1 4P9     -0.175900
     12 CAC        -5.8710    0.4180   -1.2180 ca        1 4P9     -0.057000
     13 CAD        -6.6880    0.8360   -2.2600 ca        1 4P9     -0.187000
     14 CAE        -6.3060    0.5630   -3.5840 ca        1 4P9      0.164100
     15 OAG        -7.1310    0.9880   -4.5920 oh        1 4P9     -0.488100
     16 CAF        -5.1200   -0.1440   -3.8380 ca        1 4P9     -0.100900
     17 OAH        -4.7180   -0.3660   -5.1450 oh        1 4P9     -0.517100
     18 CAA        -4.2840   -0.5370   -2.7730 ca        1 4P9      0.182100
     19 OAI        -3.1310   -1.2370   -3.0080 oh        1 4P9     -0.473100
     20 H1         -0.2020    0.4450   -0.9920 ha        1 4P9      0.149000
     21 H2          2.0500    1.3250   -0.4840 ha        1 4P9      0.147500
     22 H3          1.6470    0.0620    3.6420 ha        1 4P9      0.147500
     23 H4         -0.6100   -0.8120    3.1670 ha        1 4P9      0.149000
     24 H5         -2.3180   -1.1330    1.6340 hn        1 4P9      0.390800
     25 H7         -4.4410   -1.1780    0.5010 h4        1 4P9     -0.010200
     26 H9         -6.1720    0.6330   -0.1800 ha        1 4P9      0.141000
     27 H10        -7.6250    1.3790   -2.0700 ha        1 4P9      0.158000
     28 H11        -6.6700    0.8370   -5.4340 ho        1 4P9      0.436000
     29 H12        -5.0260   -1.2570   -5.3720 ho        1 4P9      0.413000
     30 H13        -2.9180   -1.1450   -3.9520 ho        1 4P9      0.432000
@<TRIPOS>BOND
     1    1    2 ar  
     2    1    7 ar  
     3    1   20 1   
     4    2    3 ar  
     5    2   21 1   
     6    3    4 1   
     7    3    5 ar  
     8    5    6 ar  
     9    5   22 1   
    10    6    7 ar  
    11    6   23 1   
    12    7    8 1   
    13    8    9 1   
    14    8   24 1   
    15    9   10 2   
    16   10   11 1   
    17   10   25 1   
    18   11   12 ar  
    19   11   18 ar  
    20   12   13 ar  
    21   12   26 1   
    22   13   14 ar  
    23   13   27 1   
    24   14   15 1   
    25   14   16 ar  
    26   15   28 1   
    27   16   17 1   
    28   16   18 ar  
    29   17   29 1   
    30   18   19 1   
    31   19   30 1   
@<TRIPOS>SUBSTRUCTURE
     1 4P9         1 TEMP              0 ****  ****    0 ROOT
