@<TRIPOS>MOLECULE
4P9
   30    31     1     0     0
SMALL
bcc


@<TRIPOS>ATOM
      1 CAN         0.2000    0.2570   -0.0180 ca        1 4P9     -0.153500
      2 CAP         1.4870    0.7280    0.2170 ca        1 4P9     -0.101000
      3 CAR         2.0180    0.7130    1.5100 ca        1 4P9     -0.011600
      4 ClS         3.5930    1.2900    1.7880 cl        1 4P9     -0.097400
      5 CAQ         1.2580    0.2250    2.5760 ca        1 4P9     -0.101000
      6 CAO        -0.0320   -0.2420    2.3530 ca        1 4P9     -0.153500
      7 CAM        -0.5790   -0.2390    1.0500 ca        1 4P9      0.153600
      8 NAL        -1.8640   -0.8180    0.8460 nu        1 4P9     -0.417700
      9 NAK        -2.5990   -0.4190   -0.1950 n2        1 4P9     -0.396400
     10 CAJ        -3.8860   -0.6390   -0.2300 ce        1 4P9      0.376800
     11 CAB        -4.6890   -0.3000   -1.4080 ca        1 4P9     -0.177900
     12 CAC        -5.8740    0.4270   -1.2220 ca        1 4P9     -0.056000
     13 CAD        -6.7040    0.7660   -2.2830 ca        1 4P9     -0.188000
     14 CAE        -6.3430    0.3820   -3.5840 ca        1 4P9      0.164100
     15 OAG        -7.1770    0.7350   -4.6120 oh        1 4P9     -0.488100
     16 CAF        -5.1530   -0.3310   -3.8000 ca        1 4P9     -0.102900
     17 OAH        -4.8310   -0.7660   -5.0750 oh        1 4P9     -0.518100
     18 CAA        -4.3340   -0.6940   -2.7120 ca        1 4P9      0.184100
     19 OAI        -3.1950   -1.4290   -2.9020 oh        1 4P9     -0.470100
     20 H1         -0.1980    0.2710   -1.0440 ha        1 4P9      0.149000
     21 H2          2.0860    1.1130   -0.6230 ha        1 4P9      0.147500
     22 H3          1.6730    0.2120    3.5950 ha        1 4P9      0.147500
     23 H4         -0.6160   -0.6210    3.2070 ha        1 4P9      0.149000
     24 H5         -2.3420   -1.0170    1.7130 hn        1 4P9      0.390800
     25 H7         -4.4770   -1.0830    0.6010 h4        1 4P9     -0.009200
     26 H9         -6.1550    0.7330   -0.2010 ha        1 4P9      0.141000
     27 H10        -7.6340    1.3290   -2.1240 ha        1 4P9      0.158000
     28 H11        -6.8620    0.2870   -5.4150 ho        1 4P9      0.435000
     29 H12        -4.2560   -0.0820   -5.4540 ho        1 4P9      0.413000
     30 H13        -3.1930   -1.7370   -3.8240 ho        1 4P9      0.432000
@<TRIPOS>BOND
     1    1    2 ar  
     2    1    7 ar  
     3    1   20 1   
     4    2    3 ar  
     5    2   21 1   
     6    3    4 1   
     7    3    5 ar  
     8    5    6 ar  
     9    5   22 1   
    10    6    7 ar  
    11    6   23 1   
    12    7    8 1   
    13    8    9 1   
    14    8   24 1   
    15    9   10 2   
    16   10   11 1   
    17   10   25 1   
    18   11   12 ar  
    19   11   18 ar  
    20   12   13 ar  
    21   12   26 1   
    22   13   14 ar  
    23   13   27 1   
    24   14   15 1   
    25   14   16 ar  
    26   15   28 1   
    27   16   17 1   
    28   16   18 ar  
    29   17   29 1   
    30   18   19 1   
    31   19   30 1   
@<TRIPOS>SUBSTRUCTURE
     1 4P9         1 TEMP              0 ****  ****    0 ROOT
