@<TRIPOS>MOLECULE
4PA
   17    16     1     0     0
SMALL
bcc


@<TRIPOS>ATOM
      1 CAI         0.0670   -0.0970   -0.0110 c         1 4PA      0.632100
      2 OAD         1.2900   -0.2310   -0.0850 o         1 4PA     -0.546000
      3 CAC        -0.7880   -0.0340    1.2060 c3        1 4PA     -0.150100
      4 OAH        -0.6460    0.0130   -1.1720 os        1 4PA     -0.444900
      5 CAF         0.1050   -0.0380   -2.3970 c3        1 4PA      0.138400
      6 CAE        -0.9060    0.1030   -3.5190 c3        1 4PA     -0.086400
      7 CAA        -0.2150    0.0620   -4.8560 c3        1 4PA     -0.093100
      8 HAC1       -0.4480    0.8190    1.8430 hc        1 4PA      0.075700
      9 HAC2       -0.6710   -0.9870    1.7790 hc        1 4PA      0.075700
     10 HAC3       -1.8620    0.1070    0.9350 hc        1 4PA      0.075700
     11 HAF1        0.6500   -1.0160   -2.4460 h1        1 4PA      0.051700
     12 HAF2        0.8520    0.7980   -2.3990 h1        1 4PA      0.051700
     13 HAE1       -1.4620    1.0700   -3.3980 hc        1 4PA      0.053700
     14 HAE2       -1.6600   -0.7230   -3.4450 hc        1 4PA      0.053700
     15 HAA1        0.5250    0.8930   -4.9460 hc        1 4PA      0.037700
     16 HAA2        0.3260   -0.9060   -4.9930 hc        1 4PA      0.037700
     17 HAA3       -0.9640    0.1660   -5.6780 hc        1 4PA      0.037700
@<TRIPOS>BOND
     1    1    2 2   
     2    1    3 1   
     3    1    4 1   
     4    3    8 1   
     5    3    9 1   
     6    3   10 1   
     7    4    5 1   
     8    5    6 1   
     9    5   11 1   
    10    5   12 1   
    11    6    7 1   
    12    6   13 1   
    13    6   14 1   
    14    7   15 1   
    15    7   16 1   
    16    7   17 1   
@<TRIPOS>SUBSTRUCTURE
     1 4PA         1 TEMP              0 ****  ****    0 ROOT
