@<TRIPOS>MOLECULE
4PA
   17    15     1     0     0
SMALL
bcc


@<TRIPOS>ATOM
      1 CAI         0.2100   -0.0040    1.9460 c1        1 4PA      0.303000
      2 OAD         1.4250   -0.0040    1.9460 o         1 4PA     -0.357000
      3 CAC        -0.5460   -0.0040    3.2570 c2        1 4PA     -0.218000
      4 OAH        -0.4920   -0.0030    0.7300 os        1 4PA     -0.283000
      5 CAF         0.3380   -0.0020   -0.4080 c3        1 4PA     -0.012000
      6 CAE        -0.5170    0.0230   -1.6560 c3        1 4PA     -0.165000
      7 CAA         0.3730   -0.0100   -2.8780 c3        1 4PA     -0.211000
      8 HAC1       -1.0650    0.8190    3.3330 ha        1 4PA      0.115000
      9 HAC2        0.0870   -0.0590    3.9980 ha        1 4PA      0.115000
     10 HAC3       -1.1480   -0.7720    3.2850 ha        1 4PA      0.115000
     11 HAF1        0.8900   -0.8060   -0.4080 h1        1 4PA      0.091000
     12 HAF2        0.9120    0.7870   -0.3910 h1        1 4PA      0.091000
     13 HAE1       -1.1070   -0.7540   -1.6620 hc        1 4PA      0.093000
     14 HAE2       -1.0540    0.8390   -1.6670 hc        1 4PA      0.093000
     15 HAA1       -0.1780    0.0160   -3.6840 hc        1 4PA      0.077000
     16 HAA2        0.9030   -0.8300   -2.8730 hc        1 4PA      0.077000
     17 HAA3        0.9700    0.7630   -2.8680 hc        1 4PA      0.077000
@<TRIPOS>BOND
     1    1    2 1   
     2    1    4 1   
     3    3    8 1   
     4    3    9 1   
     5    3   10 1   
     6    4    5 1   
     7    5    6 1   
     8    5   11 1   
     9    5   12 1   
    10    6    7 1   
    11    6   13 1   
    12    6   14 1   
    13    7   15 1   
    14    7   16 1   
    15    7   17 1   
@<TRIPOS>SUBSTRUCTURE
     1 4PA         1 TEMP              0 ****  ****    0 ROOT
