@<TRIPOS>MOLECULE
4PA
   17    16     1     0     0
SMALL
bcc


@<TRIPOS>ATOM
      1 CAI        -0.1440   -0.0000   -1.5420 c         1 4PA      0.631100
      2 OAD        -1.3770   -0.0000   -1.5530 o         1 4PA     -0.544000
      3 CAC         0.7970   -0.0000   -2.6960 c3        1 4PA     -0.150100
      4 OAH         0.4960    0.0000   -0.3330 os        1 4PA     -0.446900
      5 CAF        -0.3410    0.0000    0.8360 c3        1 4PA      0.139400
      6 CAE         0.6000    0.0000    2.0270 c3        1 4PA     -0.086400
      7 CAA        -0.1830    0.0000    3.3130 c3        1 4PA     -0.093100
      8 HAC1        0.2140   -0.0000   -3.6490 hc        1 4PA      0.075700
      9 HAC2        1.4460    0.9080   -2.6510 hc        1 4PA      0.075700
     10 HAC3        1.4460   -0.9080   -2.6510 hc        1 4PA      0.075700
     11 HAF1       -0.9900   -0.9130    0.8170 h1        1 4PA      0.051700
     12 HAF2       -0.9900    0.9130    0.8170 h1        1 4PA      0.051700
     13 HAE1        1.2640    0.9020    1.9750 hc        1 4PA      0.053700
     14 HAE2        1.2640   -0.9020    1.9750 hc        1 4PA      0.053700
     15 HAA1        0.5140    0.0000    4.1860 hc        1 4PA      0.037700
     16 HAA2       -0.8340    0.9050    3.3810 hc        1 4PA      0.037700
     17 HAA3       -0.8340   -0.9050    3.3810 hc        1 4PA      0.037700
@<TRIPOS>BOND
     1    1    2 2   
     2    1    3 1   
     3    1    4 1   
     4    3    8 1   
     5    3    9 1   
     6    3   10 1   
     7    4    5 1   
     8    5    6 1   
     9    5   11 1   
    10    5   12 1   
    11    6    7 1   
    12    6   13 1   
    13    6   14 1   
    14    7   15 1   
    15    7   16 1   
    16    7   17 1   
@<TRIPOS>SUBSTRUCTURE
     1 4PA         1 TEMP              0 ****  ****    0 ROOT
