@<TRIPOS>MOLECULE
4PB
   19    18     1     0     0
SMALL
bcc


@<TRIPOS>ATOM
      1 C1          0.2170   -0.5360   -0.5710 c         1 4PB      0.607100
      2 C2          1.7000   -0.5770   -0.3120 c3        1 4PB     -0.143400
      3 C3          2.1170   -0.0130    1.0330 c3        1 4PB     -0.075400
      4 C4          3.5440   -0.2580    1.3630 c3        1 4PB     -0.273600
      5 N          -0.5240    0.5860   -0.0950 n         1 4PB     -0.372400
      6 O1         -0.3810   -1.3710   -1.2860 o         1 4PB     -0.667100
      7 ON         -1.8490    0.4030   -0.0090 oh        1 4PB     -0.458100
      8 P           3.7130    0.5830    2.9820 p5        1 4PB      1.212700
      9 O1P         2.7100   -0.1510    3.8450 o         1 4PB     -0.955833
     10 O2P         5.1630    0.3730    3.3450 o         1 4PB     -0.955833
     11 O3P         3.3220    2.0090    2.6560 o         1 4PB     -0.955833
     12 H21         2.2030   -0.0030   -1.1350 hc        1 4PB      0.053200
     13 H22         2.0240   -1.6480   -0.3950 hc        1 4PB      0.053200
     14 H31         1.9650    1.1050    1.0620 hc        1 4PB      0.074200
     15 H32         1.5010   -0.4610    1.8620 hc        1 4PB      0.074200
     16 H41         3.7870   -1.3300    1.4860 hc        1 4PB      0.015200
     17 H42         4.2440    0.2050    0.6430 hc        1 4PB      0.015200
     18 HN         -0.1950    0.9310    0.8060 hn        1 4PB      0.340500
     19 HON        -2.1350    0.1100   -0.8960 ho        1 4PB      0.411000
@<TRIPOS>BOND
     1    1    2 1   
     2    1    5 1   
     3    1    6 2   
     4    2    3 1   
     5    2   12 1   
     6    2   13 1   
     7    3    4 1   
     8    3   14 1   
     9    3   15 1   
    10    4    8 1   
    11    4   16 1   
    12    4   17 1   
    13    5    7 1   
    14    5   18 1   
    15    7   19 1   
    16    8    9 1   
    17    8   10 1   
    18    8   11 1   
@<TRIPOS>SUBSTRUCTURE
     1 4PB         1 TEMP              0 ****  ****    0 ROOT
