@<TRIPOS>MOLECULE
4PB
   19    18     1     0     0
SMALL
bcc


@<TRIPOS>ATOM
      1 C1          2.8080    0.6100   -0.5510 c         1 4PB      0.607100
      2 C2          1.4630    1.2840   -0.6010 c3        1 4PB     -0.143400
      3 C3          0.3300    0.4670   -0.0110 c3        1 4PB     -0.075400
      4 C4         -1.0140    1.0460   -0.2630 c3        1 4PB     -0.273600
      5 N           3.1260   -0.1870    0.5900 n         1 4PB     -0.372400
      6 O1          3.7100    0.8080   -1.3960 o         1 4PB     -0.667100
      7 ON          4.1380   -1.0500    0.4210 oh        1 4PB     -0.458100
      8 P          -2.1100   -0.1330    0.6130 p5        1 4PB      1.212700
      9 O1P        -1.5940   -0.0700    2.0350 o         1 4PB     -0.955833
     10 O2P        -3.4920    0.4350    0.3970 o         1 4PB     -0.955833
     11 O3P        -1.8230   -1.4410   -0.0910 o         1 4PB     -0.955833
     12 H21         1.5520    2.2590   -0.0500 hc        1 4PB      0.053200
     13 H22         1.2460    1.5180   -1.6760 hc        1 4PB      0.053200
     14 H31         0.3280   -0.5770   -0.4330 hc        1 4PB      0.074200
     15 H32         0.4400    0.3790    1.1090 hc        1 4PB      0.074200
     16 H41        -1.1450    2.0520    0.1770 hc        1 4PB      0.015200
     17 H42        -1.2880    1.0660   -1.3340 hc        1 4PB      0.015200
     18 HN          2.3270   -0.7060    0.9510 hn        1 4PB      0.340500
     19 HON         4.8940   -0.5160    0.1110 ho        1 4PB      0.411000
@<TRIPOS>BOND
     1    1    2 1   
     2    1    5 1   
     3    1    6 2   
     4    2    3 1   
     5    2   12 1   
     6    2   13 1   
     7    3    4 1   
     8    3   14 1   
     9    3   15 1   
    10    4    8 1   
    11    4   16 1   
    12    4   17 1   
    13    5    7 1   
    14    5   18 1   
    15    7   19 1   
    16    8    9 1   
    17    8   10 1   
    18    8   11 1   
@<TRIPOS>SUBSTRUCTURE
     1 4PB         1 TEMP              0 ****  ****    0 ROOT
