@<TRIPOS>MOLECULE
4PB
   19    17     1     0     0
SMALL
bcc


@<TRIPOS>ATOM
      1 C1         -1.6910    0.2860   -0.9270 c1        1 4PB      0.254000
      2 C2         -0.1770    0.1510   -0.8730 c2        1 4PB     -0.171000
      3 C3          0.2660    0.0040    0.5700 c3        1 4PB     -0.150000
      4 C4          1.8050   -0.0740    0.6290 c3        1 4PB     -0.760000
      5 N          -2.4080   -0.1210   -2.1040 n3        1 4PB     -0.207000
      6 O1         -2.3010    0.7110    0.0430 o         1 4PB     -0.418000
      7 ON         -3.7790    0.0500   -2.1710 oh        1 4PB     -0.256000
      8 P           2.3440   -0.1110    2.3580 p5        1 4PB      1.619500
      9 O1P         1.8120   -1.3560    3.0250 o         1 4PB     -0.954500
     10 O2P         3.8590   -0.1150    2.4130 o         1 4PB     -0.954500
     11 O3P         1.8190    1.1050    3.0740 o         1 4PB     -0.954500
     12 H21         0.2350    0.9470   -1.2600 ha        1 4PB      0.092500
     13 H22         0.0970   -0.6310   -1.3770 ha        1 4PB      0.092500
     14 H31        -0.0400    0.7730    1.0810 hc        1 4PB      0.113000
     15 H32        -0.1190   -0.8140    0.9490 hc        1 4PB      0.113000
     16 H41         2.1050   -0.8830    0.1780 hc        1 4PB      0.055500
     17 H42         2.1900    0.7100    0.1830 hc        1 4PB      0.055500
     18 HN         -1.9600   -0.4910   -2.8040 hn        1 4PB      0.234000
     19 HON        -4.0590   -0.1430   -2.9880 ho        1 4PB      0.195000
@<TRIPOS>BOND
     1    1    5 1   
     2    1    6 1   
     3    2    3 1   
     4    2   12 1   
     5    2   13 1   
     6    3    4 1   
     7    3   14 1   
     8    3   15 1   
     9    4    8 1   
    10    4   16 1   
    11    4   17 1   
    12    5    7 1   
    13    5   18 1   
    14    7   19 1   
    15    8    9 1   
    16    8   10 1   
    17    8   11 1   
@<TRIPOS>SUBSTRUCTURE
     1 4PB         1 TEMP              0 ****  ****    0 ROOT
