@<TRIPOS>MOLECULE
4PC
   37    39     1     0     0
SMALL
bcc


@<TRIPOS>ATOM
      1 P          -3.5580    0.5350    4.6750 p5        1 4PC      1.438800
      2 OP1        -3.9240    0.9170    6.0550 o         1 4PC     -0.849000
      3 OP2        -4.6160   -0.6670    4.3390 oh        1 4PC     -0.785400
      4 O5'        -2.1760   -0.3580    4.7290 os        1 4PC     -0.586200
      5 C5'        -1.7790   -0.9960    3.5500 c3        1 4PC      0.191400
      6 C4'        -0.6210   -0.2480    2.8700 c3        1 4PC      0.088100
      7 O4'         0.4340   -1.1810    2.6080 os        1 4PC     -0.428600
      8 C3'        -1.0110    0.4190    1.5350 c3        1 4PC      0.139100
      9 O3'        -1.0970    1.8270    1.6580 oh        1 4PC     -0.646800
     10 C2'         0.1230    0.0810    0.5670 c3        1 4PC     -0.104400
     11 C1'         1.0110   -0.9500    1.2990 c3        1 4PC      0.315500
     12 N1          1.1930   -2.2100    0.5880 n         1 4PC     -0.334400
     13 C2          2.4890   -2.8590    0.6830 c         1 4PC      0.751500
     14 O2          3.4190   -2.2710    1.3010 o         1 4PC     -0.687100
     15 N3          2.7270   -4.1050    0.0830 ne        1 4PC     -0.775100
     16 C4          1.6890   -4.6080   -0.6150 cd        1 4PC      0.641500
     17 C5          0.3860   -3.9710   -0.7470 cd        1 4PC     -0.488700
     18 C6          0.1520   -2.7320   -0.1110 c1        1 4PC     -0.032900
     19 C14        -0.4280   -4.8590   -1.5240 cd        1 4PC     -0.046000
     20 C15         0.3360   -5.9730   -1.8500 cc        1 4PC     -0.147200
     21 C16        -0.0720   -7.1570   -2.6190 c3        1 4PC      0.007100
     22 N17         1.6860   -5.8010   -1.3950 na        1 4PC     -0.640000
     23 OP3        -3.4390    1.4380    3.5090 o         1 4PC     -0.849000
     24 H5'        -1.4220   -2.0270    3.8290 h1        1 4PC      0.038700
     25 H5''       -2.6580   -1.0820    2.8540 h1        1 4PC      0.038700
     26 H4'        -0.2040    0.5240    3.5750 h1        1 4PC      0.058700
     27 H3'        -1.9910    0.0150    1.1610 h1        1 4PC      0.054700
     28 HO3'       -1.8800    2.0060    2.2070 ho        1 4PC      0.458000
     29 H2'        -0.2940   -0.3320   -0.3840 hc        1 4PC      0.062200
     30 H2''        0.7250    0.9930    0.3340 hc        1 4PC      0.062200
     31 H1'         2.0390   -0.5200    1.5040 h2        1 4PC      0.074700
     32 H6         -5.0100   -1.0160    5.1300 ho        1 4PC      0.421000
     33 H14        -1.4640   -4.6810   -1.7980 ha        1 4PC      0.127000
     34 H161       -1.1610   -7.0880   -2.8620 hc        1 4PC      0.013033
     35 H162        0.1000   -8.1000   -2.0390 hc        1 4PC      0.013033
     36 H163        0.4990   -7.2380   -3.5780 hc        1 4PC      0.013033
     37 H17         2.1710   -6.5980   -1.0600 hn        1 4PC      0.392800
@<TRIPOS>BOND
     1    1    2 1   
     2    1    3 1   
     3    1    4 1   
     4    1   23 1   
     5    3   32 1   
     6    4    5 1   
     7    5    6 1   
     8    5   24 1   
     9    5   25 1   
    10    6    7 1   
    11    6    8 1   
    12    6   26 1   
    13    7   11 1   
    14    8    9 1   
    15    8   10 1   
    16    8   27 1   
    17    9   28 1   
    18   10   11 1   
    19   10   29 1   
    20   10   30 1   
    21   11   12 1   
    22   11   31 1   
    23   12   13 1   
    24   12   18 2   
    25   13   14 2   
    26   13   15 1   
    27   15   16 2   
    28   16   17 1   
    29   16   22 1   
    30   17   18 2   
    31   17   19 1   
    32   19   20 2   
    33   19   33 1   
    34   20   21 1   
    35   20   22 1   
    36   21   34 1   
    37   21   35 1   
    38   21   36 1   
    39   22   37 1   
@<TRIPOS>SUBSTRUCTURE
     1 4PC         1 TEMP              0 ****  ****    0 ROOT
