@<TRIPOS>MOLECULE
4PC
   37    36     1     0     0
SMALL
bcc


@<TRIPOS>ATOM
      1 P           0.8430   -1.3090    5.7170 p3        1 4PC      2.533000
      2 OP1         0.2330   -2.6210    5.2850 o         1 4PC     -1.257000
      3 OP2         2.1410   -1.5710    6.4430 os        1 4PC     -1.217000
      4 O5'         1.1240   -0.4150    4.4440 os        1 4PC     -0.730000
      5 C5'         0.0710   -0.1920    3.5360 c3        1 4PC      0.073000
      6 C4'         0.4120    1.0010    2.6430 c3        1 4PC     -0.050000
      7 O4'         1.1090    0.6190    1.6360 os        1 4PC     -0.296000
      8 C3'        -0.9040    1.6150    2.0240 c3        1 4PC     -0.004000
      9 O3'        -1.1570    2.8300    2.5690 oh        1 4PC     -0.379000
     10 C2'        -0.6320    1.7520    0.5540 c3        1 4PC     -0.199000
     11 C1'         0.6800    1.5480    0.4240 c3        1 4PC      0.139000
     12 N1          0.9500    0.9060   -0.7970 n         1 4PC     -0.255000
     13 C2          2.0610   -0.2190   -0.8700 c2        1 4PC      0.332000
     14 O2          2.6980   -0.5090    0.1230 o         1 4PC     -0.415000
     15 N3          2.0440   -1.1450   -2.0450 n2        1 4PC     -0.307000
     16 C4          1.0140   -0.9960   -2.9350 c1        1 4PC      0.136000
     17 C5         -0.0890   -0.0560   -2.7670 c1        1 4PC     -0.285000
     18 C6         -0.0390    0.9940   -1.9280 c2        1 4PC      0.126000
     19 C14        -0.9150   -0.1890   -3.9300 c2        1 4PC     -0.038000
     20 C15        -0.4140   -1.1630   -4.7950 c1        1 4PC     -0.168000
     21 C16        -1.3590   -1.9500   -5.6750 c2        1 4PC     -0.133000
     22 N17         0.7600   -1.7980   -4.2470 n3        1 4PC     -0.212000
     23 OP3        -0.1120   -0.5880    6.6380 o         1 4PC     -1.257000
     24 H5'        -0.0550   -0.9890    2.9810 h1        1 4PC      0.036500
     25 H5''       -0.7530   -0.0050    4.0300 h1        1 4PC      0.036500
     26 H4'         0.8960    1.6810    3.1530 h1        1 4PC      0.086000
     27 H3'        -1.6600    1.0130    2.1730 h1        1 4PC      0.186000
     28 HO3'       -2.0170    2.8800    2.7960 ho        1 4PC      0.276000
     29 H2'        -0.8690    2.6510    0.2460 hc        1 4PC      0.091000
     30 H2''       -1.1320    1.0760    0.0510 hc        1 4PC      0.091000
     31 H1'         1.1580    2.4020    0.4690 h2        1 4PC      0.136000
     32 H6         -0.7950    1.6080   -1.8680 h4        1 4PC      0.313000
     33 H14        -1.8780   -0.0430   -3.8640 ha        1 4PC      0.204000
     34 H161       -0.8530   -2.3740   -6.4000 ha        1 4PC      0.067667
     35 H162       -1.8050   -2.6400   -5.1410 ha        1 4PC      0.067667
     36 H163       -2.0300   -1.3460   -6.0560 ha        1 4PC      0.067667
     37 H17         1.2700   -2.4580   -4.6150 hn        1 4PC      0.205000
@<TRIPOS>BOND
     1    1    2 1   
     2    1    4 1   
     3    1   23 1   
     4    4    5 1   
     5    5    6 1   
     6    5   24 1   
     7    5   25 1   
     8    6    7 1   
     9    6    8 1   
    10    6   26 1   
    11    7   11 1   
    12    8    9 1   
    13    8   10 1   
    14    8   27 1   
    15    9   28 1   
    16   10   11 1   
    17   10   29 1   
    18   10   30 1   
    19   11   12 1   
    20   11   31 1   
    21   12   13 1   
    22   12   18 1   
    23   13   14 1   
    24   13   15 1   
    25   15   16 1   
    26   16   22 1   
    27   17   18 1   
    28   17   19 1   
    29   18   32 1   
    30   19   20 1   
    31   19   33 1   
    32   20   22 1   
    33   21   34 1   
    34   21   35 1   
    35   21   36 1   
    36   22   37 1   
@<TRIPOS>SUBSTRUCTURE
     1 4PC         1 TEMP              0 ****  ****    0 ROOT
