@<TRIPOS>MOLECULE
4PD
   37    39     1     0     0
SMALL
bcc


@<TRIPOS>ATOM
      1 P          -3.4700    0.7050    4.7420 p5        1 4PD      1.439800
      2 OP1        -3.7760    1.1350    6.1220 o         1 4PD     -0.848000
      3 OP2        -4.5990   -0.4440    4.4560 oh        1 4PD     -0.785400
      4 O5'        -2.1370   -0.2620    4.7770 os        1 4PD     -0.584200
      5 C5'        -1.8100   -0.9420    3.6010 c3        1 4PD      0.193400
      6 C4'        -0.6460   -0.2600    2.8640 c3        1 4PD      0.086100
      7 O4'         0.3470   -1.2520    2.5680 os        1 4PD     -0.429600
      8 C3'        -1.0550    0.4140    1.5380 c3        1 4PD      0.139100
      9 O3'        -1.0360    1.8250    1.6420 oh        1 4PD     -0.645800
     10 C2'         0.0030   -0.0140    0.5200 c3        1 4PD     -0.107400
     11 C1'         0.9200   -1.0110    1.2610 c3        1 4PD      0.325500
     12 N1          1.1410   -2.2720    0.5600 n         1 4PD     -0.307400
     13 C2          2.3920   -2.9230    0.8150 c         1 4PD      0.716100
     14 O2          3.3090   -2.4160    1.5180 o         1 4PD     -0.701100
     15 N3          2.6510   -4.1620    0.2190 n         1 4PD     -0.439400
     16 C4          1.6920   -4.7480   -0.6120 cc        1 4PD      0.381200
     17 C5          0.4300   -4.0300   -0.8500 cc        1 4PD     -0.441700
     18 C6          0.1690   -2.7940   -0.2420 c1        1 4PD     -0.005900
     19 C14        -0.2890   -4.8880   -1.7390 cc        1 4PD     -0.155000
     20 C15         0.5300   -6.0090   -1.9720 cd        1 4PD     -0.049600
     21 C16         0.1820   -7.1540   -2.8320 c3        1 4PD      0.017100
     22 N17         1.7560   -5.9360   -1.2840 nd        1 4PD     -0.674300
     23 OP3        -3.3280    1.5740    3.5530 o         1 4PD     -0.848000
     24 H5'        -1.4870   -1.9810    3.8910 h1        1 4PD      0.038700
     25 H5''       -2.7150   -1.0050    2.9370 h1        1 4PD      0.038700
     26 H4'        -0.1590    0.4970    3.5420 h1        1 4PD      0.060700
     27 H3'        -2.0790    0.0750    1.2200 h1        1 4PD      0.056700
     28 HO3'       -1.7870    2.0670    2.2110 ho        1 4PD      0.460000
     29 H2'        -0.4860   -0.4850   -0.3690 hc        1 4PD      0.070700
     30 H2''        0.6030    0.8650    0.1810 hc        1 4PD      0.070700
     31 H1'         1.9360   -0.5490    1.4590 h2        1 4PD      0.064700
     32 H19         3.5040   -4.6200    0.4300 hn        1 4PD      0.312500
     33 H6         -4.9950   -0.7530    5.2610 ho        1 4PD      0.422000
     34 H14        -1.2770   -4.7000   -2.1420 ha        1 4PD      0.115000
     35 H161       -0.8350   -7.0030   -3.2730 hc        1 4PD      0.005700
     36 H162        0.1760   -8.1100   -2.2510 hc        1 4PD      0.005700
     37 H163        0.9160   -7.2690   -3.6700 hc        1 4PD      0.005700
@<TRIPOS>BOND
     1    1    2 1   
     2    1    3 1   
     3    1    4 1   
     4    1   23 1   
     5    3   33 1   
     6    4    5 1   
     7    5    6 1   
     8    5   24 1   
     9    5   25 1   
    10    6    7 1   
    11    6    8 1   
    12    6   26 1   
    13    7   11 1   
    14    8    9 1   
    15    8   10 1   
    16    8   27 1   
    17    9   28 1   
    18   10   11 1   
    19   10   29 1   
    20   10   30 1   
    21   11   12 1   
    22   11   31 1   
    23   12   13 1   
    24   12   18 2   
    25   13   14 2   
    26   13   15 1   
    27   15   16 1   
    28   15   32 1   
    29   16   17 1   
    30   16   22 2   
    31   17   18 2   
    32   17   19 1   
    33   19   20 2   
    34   19   34 1   
    35   20   21 1   
    36   20   22 1   
    37   21   35 1   
    38   21   36 1   
    39   21   37 1   
@<TRIPOS>SUBSTRUCTURE
     1 4PD         1 TEMP              0 ****  ****    0 ROOT
