@<TRIPOS>MOLECULE
4PD
   37    37     1     0     0
SMALL
bcc


@<TRIPOS>ATOM
      1 P           0.8470    5.2900    3.0570 p3        1 4PD      2.533000
      2 OP1         2.3370    5.0810    3.0920 o         1 4PD     -1.240000
      3 OP2         0.3290    5.4440    4.4620 os        1 4PD     -1.249000
      4 O5'         0.1500    4.0350    2.3680 os        1 4PD     -0.729000
      5 C5'         0.6490    2.7120    2.6730 c3        1 4PD      0.076000
      6 C4'        -0.4130    1.6590    2.2790 c3        1 4PD     -0.050000
      7 O4'        -0.3590    1.4250    1.0230 os        1 4PD     -0.294000
      8 C3'        -0.0990    0.2670    2.9730 c3        1 4PD     -0.006000
      9 O3'        -1.0250   -0.0020    3.9320 oh        1 4PD     -0.382000
     10 C2'        -0.1720   -0.7520    1.8820 c3        1 4PD     -0.198000
     11 C1'        -0.7230   -0.1100    0.8450 c3        1 4PD      0.151000
     12 N1         -0.1910   -0.5940   -0.3600 n         1 4PD     -0.249000
     13 C2          0.4200    0.4220   -1.4280 c2        1 4PD      0.383000
     14 O2          0.8270    1.5260   -1.0650 o         1 4PD     -0.436000
     15 N3          0.8650   -0.1350   -2.6860 n         1 4PD     -0.279000
     16 C4          0.3440   -1.3840   -3.0480 c2        1 4PD      0.037000
     17 C5         -0.6360   -2.0670   -2.2020 c2        1 4PD     -0.243000
     18 C6         -0.5810   -1.9330   -0.8530 c2        1 4PD      0.132000
     19 C14        -0.8440   -3.3990   -2.9560 c2        1 4PD     -0.108000
     20 C15         0.0120   -3.3710   -4.1990 c1        1 4PD     -0.149000
     21 C16        -0.4930   -4.0100   -5.4880 c2        1 4PD     -0.123000
     22 N17         0.6860   -2.1180   -4.2420 n2        1 4PD     -0.220000
     23 OP3         0.5310    6.5430    2.2600 o         1 4PD     -1.240000
     24 H5'         1.4780    2.5480    2.1650 h1        1 4PD      0.037000
     25 H5''        0.8350    2.6450    3.6330 h1        1 4PD      0.037000
     26 H4'        -1.2920    1.9630    2.5240 h1        1 4PD      0.087000
     27 H3'         0.7980    0.2790    3.3640 h1        1 4PD      0.194000
     28 HO3'       -0.6180   -0.1550    4.7000 ho        1 4PD      0.280000
     29 H2'        -0.7460   -1.5160    2.1600 hc        1 4PD      0.093000
     30 H2''        0.7360   -1.0700    1.6460 hc        1 4PD      0.093000
     31 H1'        -1.6880   -0.2270    0.8550 h2        1 4PD      0.129000
     32 H19         1.2260    0.4170   -3.3320 hn        1 4PD      0.244000
     33 H6         -0.4520   -2.7230   -0.2850 h4        1 4PD      0.319000
     34 H14        -0.9520   -4.2330   -2.4560 ha        1 4PD      0.184000
     35 H161       -1.3530   -3.6410   -5.7140 ha        1 4PD      0.062000
     36 H162        0.1450   -3.8260   -6.2170 ha        1 4PD      0.062000
     37 H163       -0.5770   -4.9920   -5.3610 ha        1 4PD      0.062000
@<TRIPOS>BOND
     1    1    2 1   
     2    1    4 1   
     3    1   23 1   
     4    4    5 1   
     5    5    6 1   
     6    5   24 1   
     7    5   25 1   
     8    6    7 1   
     9    6    8 1   
    10    6   26 1   
    11    7   11 1   
    12    8    9 1   
    13    8   10 1   
    14    8   27 1   
    15    9   28 1   
    16   10   11 1   
    17   10   29 1   
    18   10   30 1   
    19   11   12 1   
    20   11   31 1   
    21   12   13 1   
    22   12   18 1   
    23   13   14 1   
    24   13   15 1   
    25   15   16 1   
    26   15   32 1   
    27   16   17 1   
    28   16   22 1   
    29   17   18 1   
    30   17   19 1   
    31   18   33 1   
    32   19   20 1   
    33   19   34 1   
    34   20   22 1   
    35   21   35 1   
    36   21   36 1   
    37   21   37 1   
@<TRIPOS>SUBSTRUCTURE
     1 4PD         1 TEMP              0 ****  ****    0 ROOT
