@<TRIPOS>MOLECULE
4PE
   37    39     1     0     0
SMALL
bcc


@<TRIPOS>ATOM
      1 P          -3.9730    0.4860    4.2340 p5        1 4PE      1.426800
      2 OP1        -4.2840    1.2810    5.4420 o         1 4PE     -0.841500
      3 OP2        -4.8240   -0.8910    4.4730 oh        1 4PE     -0.780400
      4 O5'        -2.4630   -0.1470    4.4360 os        1 4PE     -0.584200
      5 C5'        -1.8920   -0.8040    3.3450 c3        1 4PE      0.185400
      6 C4'        -0.6610   -0.0270    2.8520 c3        1 4PE      0.084100
      7 O4'         0.4100   -0.9440    2.5760 os        1 4PE     -0.435600
      8 C3'        -0.9270    0.7860    1.5690 c3        1 4PE      0.100100
      9 O3'        -0.3290    2.0730    1.6350 oh        1 4PE     -0.605800
     10 C2'        -0.2950   -0.0530    0.4560 c3        1 4PE     -0.140400
     11 C1'         0.7880   -0.8820    1.1780 c3        1 4PE      0.265800
     12 N1          1.0270   -2.2080    0.6320 nh        1 4PE     -0.169500
     13 C2          2.2190   -2.8850    0.9990 c2        1 4PE      0.572100
     14 O2          3.0430   -2.1780    1.8750 oh        1 4PE     -0.610600
     15 N3          2.6320   -4.0780    0.5730 ne        1 4PE     -0.728000
     16 C5          0.5100   -4.0450   -0.7470 cc        1 4PE     -0.421700
     17 C6          0.1510   -2.7820   -0.2440 c1        1 4PE     -0.038900
     18 C14        -0.0860   -4.9560   -1.6620 cc        1 4PE     -0.181000
     19 C15         0.7940   -6.0590   -1.7560 cd        1 4PE     -0.036600
     20 C16         0.5650   -7.2470   -2.6010 c3        1 4PE      0.013100
     21 N17         1.9290   -5.9170   -0.9550 nd        1 4PE     -0.630300
     22 C4          1.7710   -4.7020   -0.3350 cc        1 4PE      0.538600
     23 OP3        -4.0970    0.9150    2.8270 o         1 4PE     -0.841500
     24 H5'        -1.5480   -1.8210    3.6880 h1        1 4PE      0.045700
     25 H5''       -2.6450   -0.9190    2.5180 h1        1 4PE      0.045700
     26 H4'        -0.2860    0.6380    3.6780 h1        1 4PE      0.066700
     27 H3'        -2.0250    0.9910    1.4160 h1        1 4PE      0.146700
     28 HO3'        0.5980    1.9380    1.8640 ho        1 4PE      0.380000
     29 H2'        -1.0600   -0.7230   -0.0170 hc        1 4PE      0.084200
     30 H2''        0.1650    0.5860   -0.3320 hc        1 4PE      0.084200
     31 H1'         1.7790   -0.3320    1.1690 h2        1 4PE      0.037700
     32 H2          3.7370   -2.7830    2.1750 ho        1 4PE      0.421000
     33 H6         -5.0340   -1.0150    5.3910 ho        1 4PE      0.419000
     34 H14        -1.0310   -4.8270   -2.1760 ha        1 4PE      0.113000
     35 H161        0.5240   -8.1790   -1.9830 hc        1 4PE      0.006033
     36 H162        1.3840   -7.3710   -3.3540 hc        1 4PE      0.006033
     37 H163       -0.4040   -7.1440   -3.1490 hc        1 4PE      0.006033
@<TRIPOS>BOND
     1    1    2 1   
     2    1    3 1   
     3    1    4 1   
     4    1   23 1   
     5    3   33 1   
     6    4    5 1   
     7    5    6 1   
     8    5   24 1   
     9    5   25 1   
    10    6    7 1   
    11    6    8 1   
    12    6   26 1   
    13    7   11 1   
    14    8    9 1   
    15    8   10 1   
    16    8   27 1   
    17    9   28 1   
    18   10   11 1   
    19   10   29 1   
    20   10   30 1   
    21   11   12 1   
    22   11   31 1   
    23   12   13 1   
    24   12   17 2   
    25   13   14 1   
    26   13   15 2   
    27   14   32 1   
    28   15   22 1   
    29   16   17 2   
    30   16   18 1   
    31   16   22 1   
    32   18   19 2   
    33   18   34 1   
    34   19   20 1   
    35   19   21 1   
    36   20   35 1   
    37   20   36 1   
    38   20   37 1   
    39   21   22 2   
@<TRIPOS>SUBSTRUCTURE
     1 4PE         1 TEMP              0 ****  ****    0 ROOT
