@<TRIPOS>MOLECULE
4PE
   37    33     1     0     0
SMALL
bcc


@<TRIPOS>ATOM
      1 P           0.0790    4.8480   -2.7060 p3        1 4PE      2.532000
      2 OP1         0.9370    5.8210   -3.4900 o         1 4PE     -1.232500
      3 OP2         0.0010    5.2950   -1.2680 os        1 4PE     -1.265000
      4 O5'         0.7310    3.3840   -2.7770 os        1 4PE     -0.728000
      5 C5'         0.2460    2.3670   -1.8730 c3        1 4PE      0.076000
      6 C4'         0.0650    1.0510   -2.6340 c3        1 4PE     -0.049000
      7 O4'         0.6780   -0.1470   -1.8080 os        1 4PE     -0.292000
      8 C3'        -1.1760    0.7760   -2.7510 c3        1 4PE     -0.007000
      9 O3'        -1.4110    0.0410   -3.9910 oh        1 4PE     -0.384000
     10 C2'        -1.5590   -0.1540   -1.4650 c3        1 4PE     -0.199000
     11 C1'        -0.5300   -0.9290   -1.2580 c3        1 4PE      0.153000
     12 N1         -0.3620   -1.1790    0.1640 n3        1 4PE     -0.186000
     13 C2         -1.4690   -1.5150    0.8830 c2        1 4PE      0.168000
     14 O2         -2.7070   -2.0660    0.8900 oh        1 4PE     -0.270000
     15 N3         -1.3430   -1.9480    2.1790 n1        1 4PE     -0.220000
     16 C5          0.9900   -1.7100    2.0340 c1        1 4PE     -0.183000
     17 C6          0.8600   -1.2720    0.7240 c1        1 4PE      0.095000
     18 C14         2.0950   -1.8960    2.8470 c1        1 4PE     -0.183000
     19 C15         1.6510   -2.3490    4.0710 c1        1 4PE     -0.071500
     20 C16         2.3210   -2.5870    5.4200 c2        1 4PE     -0.127000
     21 N17         0.2970   -2.4420    4.0180 n2        1 4PE     -0.185000
     22 C4         -0.1140   -2.0440    2.7480 c1        1 4PE     -0.071500
     23 OP3        -1.3090    4.8100   -3.2980 o         1 4PE     -1.232500
     24 H5'        -0.6030    2.6440   -1.5030 h1        1 4PE      0.037500
     25 H5''        0.8950    2.2390   -1.1450 h1        1 4PE      0.037500
     26 H4'         0.4810    1.1060   -3.5040 h1        1 4PE      0.088000
     27 H3'        -1.7150    1.6140   -2.7410 h1        1 4PE      0.199000
     28 HO3'       -2.0300    0.4730   -4.4830 ho        1 4PE      0.282000
     29 H2'        -1.7210    0.4060   -0.6820 hc        1 4PE      0.093500
     30 H2''       -2.3630   -0.7010   -1.6680 hc        1 4PE      0.093500
     31 H1'        -0.6390   -1.7720   -1.7410 h2        1 4PE      0.116000
     32 H2         -3.3130   -1.4260    0.8690 ho        1 4PE      0.237000
     33 H6          1.6490   -1.1470    0.1790 ha        1 4PE      0.315000
     34 H14         2.9980   -1.6660    2.6270 DU        1 4PE      0.175000
     35 H161        3.0990   -3.1740    5.3000 ha        1 4PE      0.062000
     36 H162        1.6800   -3.0140    6.0350 ha        1 4PE      0.062000
     37 H163        2.6120   -1.7320    5.7960 ha        1 4PE      0.062000
@<TRIPOS>BOND
     1    1    2 1   
     2    1    4 1   
     3    1   23 1   
     4    4    5 1   
     5    5    6 1   
     6    5   24 1   
     7    5   25 1   
     8    6    7 1   
     9    6    8 1   
    10    6   26 1   
    11    7   11 1   
    12    8    9 1   
    13    8   10 1   
    14    8   27 1   
    15    9   28 1   
    16   10   11 1   
    17   10   29 1   
    18   10   30 1   
    19   11   12 1   
    20   11   31 1   
    21   12   13 1   
    22   12   17 1   
    23   13   14 1   
    24   13   15 1   
    25   14   32 1   
    26   16   22 1   
    27   17   33 1   
    28   18   19 1   
    29   19   21 1   
    30   20   35 1   
    31   20   36 1   
    32   20   37 1   
    33   21   22 1   
@<TRIPOS>SUBSTRUCTURE
     1 4PE         1 TEMP              0 ****  ****    0 ROOT
