@<TRIPOS>MOLECULE
4PF
   35    34     1     0     0
SMALL
bcc


@<TRIPOS>ATOM
      1 C1          0.6250    2.3640    1.2150 c3        1 4PF      0.111700
      2 O1          1.9840    2.7650    1.3520 os        1 4PF     -0.488600
      3 C2          2.8140    1.7890    1.9740 c3        1 4PF      0.094400
      4 C3          3.4470    0.8710    0.9310 c3        1 4PF      0.096400
      5 O2          4.3160    1.6280    0.0930 os        1 4PF     -0.477600
      6 C4          5.7190    1.4220    0.3060 c3        1 4PF      0.120100
      7 C5          6.1570    1.8300    1.6960 c3        1 4PF     -0.128100
      8 C6          6.4150    2.2610   -0.7740 c3        1 4PF      0.118400
      9 O3          6.1830    3.6460   -0.5020 os        1 4PF     -0.428600
     10 C7          5.6930    4.4180   -1.5790 c3        1 4PF      0.114400
     11 C8          4.1450    4.4600   -1.6210 c3        1 4PF      0.094500
     12 C9          3.5850    3.3460   -2.4920 c3        1 4PF     -0.135100
     13 N1          3.5700    4.4080   -0.2380 nz        1 4PF     -0.833600
     14 H1          0.1240    3.2330    0.7220 h1        1 4PF      0.049367
     15 H2          0.1750    2.1720    2.2200 h1        1 4PF      0.049367
     16 H3          0.5510    1.4500    0.5770 h1        1 4PF      0.049367
     17 H4          3.6040    2.3890    2.5020 h1        1 4PF      0.070700
     18 H5          2.2370    1.1810    2.7180 h1        1 4PF      0.070700
     19 H6          3.9840    0.0270    1.4340 h1        1 4PF      0.072200
     20 H7          2.6630    0.4630    0.2370 h1        1 4PF      0.072200
     21 H8          5.9540    0.3350    0.1230 h1        1 4PF      0.071700
     22 H9          5.9140    2.9050    1.8810 hc        1 4PF      0.056367
     23 H10         7.2610    1.6950    1.7960 hc        1 4PF      0.056367
     24 H11         5.6490    1.2060    2.4700 hc        1 4PF      0.056367
     25 H12         7.5260    2.1100   -0.7000 h1        1 4PF      0.073700
     26 H13         6.0480    1.9690   -1.7900 h1        1 4PF      0.073700
     27 H14         6.0700    4.0550   -2.5710 h1        1 4PF      0.088200
     28 H15         6.0930    5.4510   -1.3790 h1        1 4PF      0.088200
     29 H16         3.8410    5.4570   -2.0650 hx        1 4PF      0.100700
     30 H17         4.0360    3.4270   -3.5120 hc        1 4PF      0.079367
     31 H18         3.8320    2.3390   -2.0670 hc        1 4PF      0.079367
     32 H19         2.4750    3.4320   -2.5960 hc        1 4PF      0.079367
     33 H20         4.0160    3.6280    0.2860 hn        1 4PF      0.467467
     34 H21         2.5620    4.2190   -0.2660 hn        1 4PF      0.467467
     35 H131        3.7510    5.2820    0.2540 hn        1 4PF      0.467467
@<TRIPOS>BOND
     1    1    2 1   
     2    1   14 1   
     3    1   15 1   
     4    1   16 1   
     5    2    3 1   
     6    3    4 1   
     7    3   17 1   
     8    3   18 1   
     9    4    5 1   
    10    4   19 1   
    11    4   20 1   
    12    5    6 1   
    13    6    7 1   
    14    6    8 1   
    15    6   21 1   
    16    7   22 1   
    17    7   23 1   
    18    7   24 1   
    19    8    9 1   
    20    8   25 1   
    21    8   26 1   
    22    9   10 1   
    23   10   11 1   
    24   10   27 1   
    25   10   28 1   
    26   11   12 1   
    27   11   13 1   
    28   11   29 1   
    29   12   30 1   
    30   12   31 1   
    31   12   32 1   
    32   13   33 1   
    33   13   34 1   
    34   13   35 1   
@<TRIPOS>SUBSTRUCTURE
     1 4PF         1 TEMP              0 ****  ****    0 ROOT
