@<TRIPOS>MOLECULE
4PF
   35    34     1     0     0
SMALL
bcc


@<TRIPOS>ATOM
      1 C1          0.6200    2.2650    1.1690 c3        1 4PF      0.111700
      2 O1          1.9720    2.6770    1.3360 os        1 4PF     -0.488600
      3 C2          2.8100    1.6820    1.9190 c3        1 4PF      0.094400
      4 C3          3.4630    0.8230    0.8400 c3        1 4PF      0.096400
      5 O2          4.3280    1.6290    0.0460 os        1 4PF     -0.477600
      6 C4          5.7320    1.4290    0.2620 c3        1 4PF      0.120100
      7 C5          6.1530    1.7780    1.6730 c3        1 4PF     -0.128100
      8 C6          6.4270    2.3270   -0.7720 c3        1 4PF      0.118400
      9 O3          6.1750    3.6950   -0.4370 os        1 4PF     -0.428600
     10 C7          5.6840    4.5100   -1.4820 c3        1 4PF      0.114400
     11 C8          4.1360    4.5360   -1.5350 c3        1 4PF      0.094500
     12 C9          3.5970    3.4560   -2.4620 c3        1 4PF     -0.135100
     13 N1          3.5500    4.4110   -0.1610 n4        1 4PF     -0.833600
     14 H1          0.1120    3.1510    0.7120 h1        1 4PF      0.049367
     15 H2          0.5620    1.3810    0.4870 h1        1 4PF      0.049367
     16 H3          0.1640    2.0210    2.1600 h1        1 4PF      0.049367
     17 H4          3.5880    2.2670    2.4820 h1        1 4PF      0.070700
     18 H5          2.2340    1.0330    2.6280 h1        1 4PF      0.070700
     19 H6          4.0060   -0.0380    1.3070 h1        1 4PF      0.072200
     20 H7          2.6900    0.4370    0.1200 h1        1 4PF      0.072200
     21 H8          5.9830    0.3560    0.0290 h1        1 4PF      0.071700
     22 H9          5.8950    2.8390    1.9060 hc        1 4PF      0.056367
     23 H10         7.2580    1.6510    1.7760 hc        1 4PF      0.056367
     24 H11         5.6470    1.1120    2.4120 hc        1 4PF      0.056367
     25 H12         6.0720    2.0790   -1.8040 h1        1 4PF      0.073700
     26 H13         7.5390    2.1860   -0.6950 h1        1 4PF      0.073700
     27 H14         6.0690    5.5380   -1.2290 h1        1 4PF      0.088200
     28 H15         6.0730    4.1990   -2.4860 h1        1 4PF      0.088200
     29 H16         3.8220    5.5480   -1.9350 hx        1 4PF      0.100700
     30 H17         3.8530    2.4340   -2.0830 hc        1 4PF      0.079367
     31 H18         2.4870    3.5340   -2.5720 hc        1 4PF      0.079367
     32 H19         4.0560    3.5910   -3.4730 hc        1 4PF      0.079367
     33 H20         3.7160    5.2630    0.3730 hn        1 4PF      0.467467
     34 H21         4.0020    3.6130    0.3300 hn        1 4PF      0.467467
     35 H131        2.5450    4.2120   -0.2060 hn        1 4PF      0.467467
@<TRIPOS>BOND
     1    1    2 1   
     2    1   14 1   
     3    1   15 1   
     4    1   16 1   
     5    2    3 1   
     6    3    4 1   
     7    3   17 1   
     8    3   18 1   
     9    4    5 1   
    10    4   19 1   
    11    4   20 1   
    12    5    6 1   
    13    6    7 1   
    14    6    8 1   
    15    6   21 1   
    16    7   22 1   
    17    7   23 1   
    18    7   24 1   
    19    8    9 1   
    20    8   25 1   
    21    8   26 1   
    22    9   10 1   
    23   10   11 1   
    24   10   27 1   
    25   10   28 1   
    26   11   12 1   
    27   11   13 1   
    28   11   29 1   
    29   12   30 1   
    30   12   31 1   
    31   12   32 1   
    32   13   33 1   
    33   13   34 1   
    34   13   35 1   
@<TRIPOS>SUBSTRUCTURE
     1 4PF         1 TEMP              0 ****  ****    0 ROOT
