@<TRIPOS>MOLECULE
4PG
   35    34     1     0     0
SMALL
bcc


@<TRIPOS>ATOM
      1 C1          2.9510    1.4120   -0.6540 c1        1 4PG      0.425600
      2 C2          2.4720    1.7700   -2.9770 c2        1 4PG      0.005900
      3 C3          1.8780   -1.0590    2.9510 c3        1 4PG      0.160000
      4 C7          2.4460    0.5120   -3.3430 c1        1 4PG     -0.102800
      5 C9          4.4740   -2.0900    6.0730 c         1 4PG      0.621500
      6 C10         5.1520   -2.2760    7.3320 ce        1 4PG     -0.281500
      7 C11         4.4390   -2.6700    8.6060 c3        1 4PG     -0.008000
      8 C12         4.9930   -1.8900    9.7720 c2        1 4PG     -0.139200
      9 C13         6.2250   -1.3320    9.7930 ce        1 4PG     -0.141000
     10 C14         7.1320   -1.6930    8.6870 ce        1 4PG     -0.135100
     11 C15         6.4200   -1.9480    7.5980 c1        1 4PG      0.113200
     12 N1          2.6920    2.2670   -1.6730 nu        1 4PG     -0.532600
     13 N2          3.3420   -1.0420    2.6330 nz        1 4PG     -0.841600
     14 N3          3.0840    0.6990    0.2640 n1        1 4PG     -0.548800
     15 C4          1.6620   -0.8590    4.4190 c2        1 4PG     -0.235300
     16 C5          2.2480   -1.6610    5.2660 c1        1 4PG      0.032200
     17 C6          2.3890   -0.7080   -3.7760 c2        1 4PG     -0.166100
     18 O1          5.0330   -1.7300    5.0170 o         1 4PG     -0.605100
     19 H3          1.0230   -0.0130    4.7210 ha        1 4PG      0.191000
     20 H7          2.2590    2.5900   -3.6950 h4        1 4PG      0.182000
     21 H81         3.2650   -1.2210   -4.2050 ha        1 4PG      0.142000
     22 H82         2.6720   -3.3260    6.5190 ha        1 4PG      0.192000
     23 H11         4.5190   -3.7660    8.8330 hc        1 4PG      0.081200
     24 H12         3.3510   -2.4180    8.4860 hc        1 4PG      0.081200
     25 H13         4.3230   -1.8250   10.6440 ha        1 4PG      0.155000
     26 H14         6.6130   -0.7310   10.6240 ha        1 4PG      0.165000
     27 H15         8.2060   -1.8230    8.8500 ha        1 4PG      0.188000
     28 HN1         3.2070    3.1280   -1.6290 hn        1 4PG      0.454800
     29 HN21        1.4610   -2.0510    2.6130 hx        1 4PG      0.115200
     30 HN22        3.8710   -1.6130    3.3180 hn        1 4PG      0.469467
     31 HN3         3.5000   -1.4000    1.6870 hn        1 4PG      0.469467
     32 H4          1.3820   -0.2370    2.3590 hx        1 4PG      0.115200
     33 H6          1.4590   -1.2980   -3.7540 ha        1 4PG      0.142000
     34 C8          3.0170   -2.4160    6.0000 ce        1 4PG     -0.233300
     35 H23         3.6990   -0.0830    2.6840 hn        1 4PG      0.469467
@<TRIPOS>BOND
     1    1   12 1   
     2    1   14 3   
     3    2    4 2   
     4    2   12 1   
     5    2   20 1   
     6    3   13 1   
     7    3   15 1   
     8    3   29 1   
     9    3   32 1   
    10    4   17 2   
    11    5    6 1   
    12    5   18 2   
    13    5   34 1   
    14    6    7 1   
    15    6   11 2   
    16    7    8 1   
    17    7   23 1   
    18    7   24 1   
    19    8    9 2   
    20    8   25 1   
    21    9   10 1   
    22    9   26 1   
    23   10   11 2   
    24   10   27 1   
    25   12   28 1   
    26   13   30 1   
    27   13   31 1   
    28   13   35 1   
    29   15   16 2   
    30   15   19 1   
    31   16   34 2   
    32   17   21 1   
    33   17   33 1   
    34   22   34 1   
@<TRIPOS>SUBSTRUCTURE
     1 4PG         1 TEMP              0 ****  ****    0 ROOT
