@<TRIPOS>MOLECULE
4PG
   34    28     1     0     0
SMALL
bcc


@<TRIPOS>ATOM
      1 C1         -3.2050    1.2520   -4.3020 c1        1 4PG      0.187000
      2 C2         -2.0770    0.2710   -2.3390 c1        1 4PG      0.047000
      3 C3         -2.3730   -0.3800   -1.1520 c2        1 4PG     -0.183000
      4 C7         -0.8990    0.9900   -2.4590 c1        1 4PG     -0.139000
      5 C8          0.6160    0.5380    0.9790 c3        1 4PG     -0.164000
      6 C9          1.3410   -0.7730    1.2010 c2        1 4PG      0.275000
      7 C10         2.0920   -1.0130    2.4960 c2        1 4PG     -0.142000
      8 C11         2.0830   -0.0480    3.4920 c2        1 4PG     -0.099000
      9 C12         2.8020   -0.2510    4.6600 c1        1 4PG     -0.139000
     10 C13         3.5290   -1.4190    4.8330 c1        1 4PG     -0.123000
     11 C14         3.5380   -2.3830    3.8370 c1        1 4PG     -0.123000
     12 C15         2.8190   -2.1810    2.6690 c1        1 4PG     -0.080000
     13 N1         -2.9410    0.1310   -3.4600 n2        1 4PG     -0.309000
     14 N2         -2.2030    2.2430   -4.5030 n2        1 4PG     -0.341000
     15 N3         -4.3650    1.3700   -4.8890 n1        1 4PG     -0.344000
     16 C4         -1.4910   -0.3120   -0.0850 c1        1 4PG     -0.099000
     17 C5         -0.3130    0.4070   -0.2060 c1        1 4PG     -0.096000
     18 C6         -0.0170    1.0580   -1.3920 c1        1 4PG     -0.103000
     19 O1          1.3480   -1.6180    0.3290 o         1 4PG     -0.287000
     20 H3         -3.2030   -0.8870   -1.0670 ha        1 4PG      0.130000
     21 H7         -0.6910    1.4470   -3.2920 ha        1 4PG      0.160000
     22 H81         0.0960    0.7630    1.7780 hc        1 4PG      0.110500
     23 H82         1.2680    1.2460    0.8050 hc        1 4PG      0.110500
     24 H11         1.5710    0.7740    3.3710 ha        1 4PG      0.133000
     25 H12         2.7960    0.4280    5.3610 ha        1 4PG      0.135000
     26 H13         4.0350   -1.5620    5.6550 ha        1 4PG      0.136500
     27 H14         4.0500   -3.2060    3.9590 ha        1 4PG      0.136500
     28 H15         2.8250   -2.8590    1.9680 ha        1 4PG      0.149000
     29 HN1        -3.3770   -0.6560   -3.6020 hn        1 4PG      0.213000
     30 HN21       -2.3460    2.9250   -5.0970 hn        1 4PG      0.203000
     31 HN22       -1.4070    2.1820   -4.0630 hn        1 4PG      0.203000
     32 HN3        -5.0100    0.7330   -4.7600 DU        1 4PG      0.154000
     33 H4         -1.7000   -0.7710    0.7510 ha        1 4PG      0.133000
     34 H6          0.8120    1.5640   -1.4770 ha        1 4PG      0.156000
@<TRIPOS>BOND
     1    1   13 1   
     2    1   15 1   
     3    2    3 1   
     4    2    4 1   
     5    3   16 1   
     6    3   20 1   
     7    4   21 1   
     8    5    6 1   
     9    5   17 1   
    10    5   22 1   
    11    5   23 1   
    12    6    7 1   
    13    6   19 1   
    14    7    8 1   
    15    7   12 1   
    16    8    9 1   
    17    8   24 1   
    18    9   25 1   
    19   10   11 1   
    20   10   26 1   
    21   11   27 1   
    22   12   28 1   
    23   13   29 1   
    24   14   30 1   
    25   14   31 1   
    26   16   33 1   
    27   17   18 1   
    28   18   34 1   
@<TRIPOS>SUBSTRUCTURE
     1 4PG         1 TEMP              0 ****  ****    0 ROOT
