@<TRIPOS>MOLECULE
4PG
   35    34     1     0     0
SMALL
bcc


@<TRIPOS>ATOM
      1 C1          0.0390   -0.8320    0.0330 c1        1 4PG      0.228000
      2 C2          2.0200   -0.8250    1.3370 c2        1 4PG     -0.260000
      3 C3          1.8950   -0.8720    2.7150 c2        1 4PG      0.028000
      4 C7          3.1400   -0.1490    0.6920 c2        1 4PG     -0.459000
      5 C9          5.8180   -0.4920    5.5750 c2        1 4PG      0.288000
      6 C10         6.6150   -1.4290    6.3910 c2        1 4PG     -0.242000
      7 C11         7.8610   -1.0860    6.8220 c2        1 4PG      0.012000
      8 C12         8.6730   -2.0080    7.6410 c3        1 4PG     -0.183000
      9 C13         8.0260   -3.3050    7.9370 c2        1 4PG     -0.065000
     10 C14         6.7840   -3.6030    7.4860 c2        1 4PG     -0.206000
     11 C15         6.0120   -2.6920    6.7040 c1        1 4PG     -0.079000
     12 N1          1.0920   -1.5310    0.5240 n3        1 4PG     -0.084000
     13 N2         -3.3060    0.7780   -0.8820 n3        1 4PG     -0.384000
     14 N3         -0.9390   -0.2860   -0.2970 n2        1 4PG     -0.210000
     15 C4          2.6650   -0.2590    3.6130 c1        1 4PG     -0.047000
     16 C5          3.6010    0.1010    4.5810 c3        1 4PG     -0.118000
     17 C6          3.1460    1.0970    0.2700 c1        1 4PG      0.240000
     18 O1          6.2200    0.6380    5.2620 o         1 4PG     -0.326000
     19 H3          4.2590    0.8950    4.0680 hc        1 4PG      0.195500
     20 H7          4.0630   -0.7600    0.5710 ha        1 4PG      0.196000
     21 H81         3.9780   -1.5220    5.9950 hc        1 4PG      0.144500
     22 H82         4.6630   -1.8020    4.3530 hc        1 4PG      0.144500
     23 H11         8.3100   -0.1060    6.5760 ha        1 4PG      0.159000
     24 H12         8.9330   -1.4940    8.6150 hc        1 4PG      0.158500
     25 H13         9.6550   -2.1960    7.1120 hc        1 4PG      0.158500
     26 H14         8.6170   -4.0090    8.5450 ha        1 4PG      0.145000
     27 H15         6.3170   -4.5760    7.7170 ha        1 4PG      0.157000
     28 HN1         1.5390   -2.0890   -0.1920 hn        1 4PG      0.256000
     29 HN21       -3.5170    1.5030   -0.2230 hn        1 4PG      0.185667
     30 HN22       -4.0170    0.0740   -0.8470 hn        1 4PG      0.185667
     31 HN3        -1.9140    0.1450   -0.5300 hn        1 4PG      0.408000
     32 H4          1.0420   -1.4310    3.1780 ha        1 4PG      0.207000
     33 H6          3.1050    0.6710    5.4250 hc        1 4PG      0.195500
     34 C8          4.4790   -1.0100    5.1270 c3        1 4PG     -0.214000
     35 H23        -3.2620    1.1660   -1.8050 hn        1 4PG      0.185667
@<TRIPOS>BOND
     1    1   12 1   
     2    1   14 1   
     3    2    3 1   
     4    2    4 1   
     5    2   12 1   
     6    3   15 1   
     7    3   32 1   
     8    4   17 1   
     9    4   20 1   
    10    5    6 1   
    11    5   18 1   
    12    5   34 1   
    13    6    7 1   
    14    6   11 1   
    15    7    8 1   
    16    7   23 1   
    17    8    9 1   
    18    8   24 1   
    19    8   25 1   
    20    9   10 1   
    21    9   26 1   
    22   10   11 1   
    23   10   27 1   
    24   12   28 1   
    25   13   29 1   
    26   13   30 1   
    27   13   35 1   
    28   14   31 1   
    29   15   16 1   
    30   16   19 1   
    31   16   33 1   
    32   16   34 1   
    33   21   34 1   
    34   22   34 1   
@<TRIPOS>SUBSTRUCTURE
     1 4PG         1 TEMP              0 ****  ****    0 ROOT
