@<TRIPOS>MOLECULE
4PG
   34    35     1     0     0
SMALL
bcc


@<TRIPOS>ATOM
      1 C1         -4.8030   -0.0130    1.0360 c2        1 4PG      0.740100
      2 C2         -2.6550   -0.4250   -0.0820 ca        1 4PG      0.126600
      3 C3         -2.0010    0.6680    0.5270 ca        1 4PG     -0.178500
      4 C7         -2.0360   -1.0470   -1.1920 ca        1 4PG     -0.178500
      5 C9          2.1850   -0.0890   -1.5890 c         1 4PG      0.585700
      6 C10         3.2270   -0.0240   -0.5410 ca        1 4PG     -0.163600
      7 C11         3.8610    1.1800   -0.2160 ca        1 4PG     -0.089500
      8 C12         4.8420    1.2070    0.7740 ca        1 4PG     -0.138000
      9 C13         5.1900    0.0370    1.4480 ca        1 4PG     -0.108000
     10 C14         4.5650   -1.1670    1.1230 ca        1 4PG     -0.138000
     11 C15         3.5930   -1.2010    0.1250 ca        1 4PG     -0.089500
     12 N1         -3.8460   -0.9540    0.4580 nh        1 4PG     -0.716600
     13 N2         -5.1550    1.1140    0.2350 nh        1 4PG     -0.903800
     14 N3         -5.3750   -0.2070    2.1910 n2        1 4PG     -0.825100
     15 C4         -0.7740    1.1110    0.0470 ca        1 4PG     -0.089000
     16 C5         -0.1660    0.4910   -1.0480 ca        1 4PG     -0.113300
     17 C6         -0.8090   -0.5940   -1.6570 ca        1 4PG     -0.089000
     18 O1          2.1660   -0.9930   -2.4330 o         1 4PG     -0.528100
     19 H3         -2.4480    1.1640    1.4030 ha        1 4PG      0.138000
     20 H7         -2.5170   -1.9020   -1.6900 ha        1 4PG      0.138000
     21 H81         1.4820    1.8690   -0.9720 hc        1 4PG      0.070700
     22 H82         0.9800    1.3460   -2.6370 hc        1 4PG      0.070700
     23 H11         3.6010    2.1070   -0.7500 ha        1 4PG      0.141000
     24 H12         5.3410    2.1550    1.0230 ha        1 4PG      0.137000
     25 H13         5.9600    0.0630    2.2340 ha        1 4PG      0.135000
     26 H14         4.8430   -2.0930    1.6480 ha        1 4PG      0.137000
     27 H15         3.1080   -2.1510   -0.1510 ha        1 4PG      0.141000
     28 HN1        -4.2990   -1.6080   -0.1520 hn        1 4PG      0.410800
     29 HN21       -5.7280    1.7830    0.7050 hn        1 4PG      0.401300
     30 HN22       -4.3760    1.5340   -0.2280 hn        1 4PG      0.401300
     31 HN3        -5.1550   -1.0630    2.6520 hn        1 4PG      0.412400
     32 H4         -0.2780    1.9600    0.5430 ha        1 4PG      0.144000
     33 H6         -0.3240   -1.0950   -2.5120 ha        1 4PG      0.144000
     34 C8          1.1300    0.9930   -1.5790 c3        1 4PG     -0.126100
@<TRIPOS>BOND
     1    1   12 1   
     2    1   13 1   
     3    1   14 2   
     4    2    3 ar  
     5    2    4 ar  
     6    2   12 1   
     7    3   15 ar  
     8    3   19 1   
     9    4   17 ar  
    10    4   20 1   
    11    5    6 1   
    12    5   18 2   
    13    5   34 1   
    14    6    7 ar  
    15    6   11 ar  
    16    7    8 ar  
    17    7   23 1   
    18    8    9 ar  
    19    8   24 1   
    20    9   10 ar  
    21    9   25 1   
    22   10   11 ar  
    23   10   26 1   
    24   11   27 1   
    25   12   28 1   
    26   13   29 1   
    27   13   30 1   
    28   14   31 1   
    29   15   16 ar  
    30   15   32 1   
    31   16   17 ar  
    32   16   34 1   
    33   17   33 1   
    34   21   34 1   
    35   22   34 1   
@<TRIPOS>SUBSTRUCTURE
     1 4PG         1 TEMP              0 ****  ****    0 ROOT
