@<TRIPOS>MOLECULE
4PG
   34    33     1     0     0
SMALL
bcc


@<TRIPOS>ATOM
      1 C1          0.3830   -0.3510   -0.2460 c2        1 4PG      0.157000
      2 C2          2.5050   -0.0300    1.0270 c2        1 4PG      0.119000
      3 C3          0.1150   -0.3420    4.5750 c2        1 4PG     -0.085000
      4 C7          3.9500    0.1320    1.1580 c2        1 4PG     -0.228000
      5 C9          4.8710   -0.8230    5.4360 c2        1 4PG      0.330000
      6 C10         5.9740   -1.3820    6.2230 c2        1 4PG     -0.160000
      7 C11         5.7490   -2.0920    7.5390 c3        1 4PG     -0.099000
      8 C12         6.6310   -3.3130    7.6210 c2        1 4PG     -0.147000
      9 C13         7.7720   -3.4700    6.9110 c2        1 4PG     -0.140000
     10 C14         8.2630   -2.2880    6.1810 c2        1 4PG     -0.101000
     11 C15         7.2410   -1.5140    5.8400 c1        1 4PG     -0.059000
     12 N1          1.8740   -0.1890   -0.0990 n3        1 4PG     -0.062000
     13 N2         -0.2540   -0.3880    0.9290 n2        1 4PG     -0.541000
     14 N3          0.0930   -0.4140   -1.5450 n2        1 4PG     -0.541000
     15 C4          1.3000   -0.4040    5.1140 c1        1 4PG     -0.153000
     16 C5          2.4500   -0.4620    5.6350 c1        1 4PG     -0.040000
     17 C6          4.7670    0.5540    0.1910 c2        1 4PG     -0.129000
     18 O1          4.9860   -0.5760    4.2260 o         1 4PG     -0.318000
     19 H3          1.9200   -0.0290    1.9810 h4        1 4PG      0.220000
     20 H7          4.3330   -0.1090    2.1720 ha        1 4PG      0.202000
     21 H81         4.4360    0.8250   -0.8220 ha        1 4PG      0.130500
     22 H82         3.7570   -0.3700    7.2730 ha        1 4PG      0.151000
     23 H11         4.6740   -2.4170    7.5670 hc        1 4PG      0.117000
     24 H12         5.9380   -1.4420    8.4330 hc        1 4PG      0.117000
     25 H13         6.2880   -4.0820    8.3290 ha        1 4PG      0.139000
     26 H14         8.3890   -4.3750    6.9410 ha        1 4PG      0.147000
     27 H15         9.3320   -2.0840    6.0890 ha        1 4PG      0.167000
     28 HN1         2.3750   -0.2020   -0.9740 hn        1 4PG      0.256000
     29 HN21       -0.7830   -0.1220    5.1730 ha        1 4PG      0.159500
     30 HN22       -1.2370   -0.4780    0.8120 hn        1 4PG      0.143000
     31 HN3        -0.8770   -0.5390   -1.7180 hn        1 4PG      0.143000
     32 H4         -0.0520   -0.5020    3.4950 ha        1 4PG      0.159500
     33 H6          5.8470    0.6730    0.3680 ha        1 4PG      0.130500
     34 C8          3.6350   -0.5380    6.1880 c2        1 4PG     -0.185000
@<TRIPOS>BOND
     1    1   12 1   
     2    1   13 1   
     3    1   14 1   
     4    2    4 1   
     5    2   12 1   
     6    2   19 1   
     7    3   15 1   
     8    3   29 1   
     9    3   32 1   
    10    4   17 1   
    11    4   20 1   
    12    5    6 1   
    13    5   18 1   
    14    5   34 1   
    15    6    7 1   
    16    6   11 1   
    17    7    8 1   
    18    7   23 1   
    19    7   24 1   
    20    8    9 1   
    21    8   25 1   
    22    9   10 1   
    23    9   26 1   
    24   10   11 1   
    25   10   27 1   
    26   12   28 1   
    27   13   30 1   
    28   14   31 1   
    29   15   16 1   
    30   16   34 1   
    31   17   21 1   
    32   17   33 1   
    33   22   34 1   
@<TRIPOS>SUBSTRUCTURE
     1 4PG         1 TEMP              0 ****  ****    0 ROOT
