@<TRIPOS>MOLECULE
4PH
   25    25     1     0     0
SMALL
bcc


@<TRIPOS>ATOM
      1 CA         -1.7240   -0.2290    0.4210 c3        1 4PH      0.022500
      2 CB         -0.8450    0.2130   -0.7540 c3        1 4PH     -0.036100
      3 CG          0.6100    0.1630   -0.4470 ca        1 4PH     -0.036300
      4 CD2         1.2960    1.3270   -0.0740 ca        1 4PH     -0.125000
      5 CD1         1.3230   -1.0390   -0.5360 ca        1 4PH     -0.125000
      6 CE2         2.6610    1.2900    0.1960 ca        1 4PH     -0.138000
      7 CE1         2.6880   -1.0760   -0.2650 ca        1 4PH     -0.138000
      8 CZ          3.3720    0.0890    0.1020 ca        1 4PH     -0.113300
      9 C          -3.1820    0.2780    0.1530 c         1 4PH      0.886600
     10 C33         4.8200    0.0450    0.4040 c3        1 4PH     -0.038800
     11 O          -4.1280   -0.5530    0.2670 o         1 4PH     -0.841800
     12 N          -1.6270   -1.6560    0.7010 n3        1 4PH     -0.887800
     13 OXT        -3.3300    1.4960   -0.1430 o         1 4PH     -0.841800
     14 HA         -1.3680    0.3080    1.3480 h1        1 4PH      0.046700
     15 HB2        -1.0590   -0.4260   -1.6520 hc        1 4PH      0.058700
     16 HB3        -1.1520    1.2660   -1.0070 hc        1 4PH      0.058700
     17 HD2         0.7430    2.2750    0.0100 ha        1 4PH      0.137000
     18 HD1         0.7880   -1.9630   -0.8030 ha        1 4PH      0.137000
     19 HE2         3.1860    2.2110    0.4880 ha        1 4PH      0.112500
     20 HE1         3.2340   -2.0280   -0.3350 ha        1 4PH      0.112500
     21 H33         4.9800   -0.1930    1.4860 hc        1 4PH      0.029367
     22 H33A        5.3330   -0.7410   -0.2040 hc        1 4PH      0.029367
     23 H33B        5.3050    1.0290    0.1890 hc        1 4PH      0.029367
     24 H          -2.3330   -1.8710    1.3870 hn        1 4PH      0.329800
     25 H2         -1.8860   -2.1590   -0.1300 hn        1 4PH      0.329800
@<TRIPOS>BOND
     1    1    2 1   
     2    1    9 1   
     3    1   12 1   
     4    1   14 1   
     5    2    3 1   
     6    2   15 1   
     7    2   16 1   
     8    3    4 ar  
     9    3    5 ar  
    10    4    6 ar  
    11    4   17 1   
    12    5    7 ar  
    13    5   18 1   
    14    6    8 ar  
    15    6   19 1   
    16    7    8 ar  
    17    7   20 1   
    18    8   10 1   
    19    9   11 1   
    20    9   13 1   
    21   10   21 1   
    22   10   22 1   
    23   10   23 1   
    24   12   24 1   
    25   12   25 1   
@<TRIPOS>SUBSTRUCTURE
     1 4PH         1 TEMP              0 ****  ****    0 ROOT
