@<TRIPOS>MOLECULE
4PI
   45    46     1     0     0
SMALL
bcc


@<TRIPOS>ATOM
      1 C1         -0.4180   -0.3980   -0.2360 ca        1 4PI     -0.037300
      2 C2          0.6810   -1.1950    0.1110 ca        1 4PI     -0.160000
      3 C3          1.5340   -0.8090    1.1370 ca        1 4PI     -0.065500
      4 C7          4.5050    1.1190    6.1740 c3        1 4PI     -0.081900
      5 C8          5.3930    2.1170    5.5480 c2        1 4PI     -0.173200
      6 C9          5.2450    3.4390    5.6780 c2        1 4PI     -0.179200
      7 C10         1.4750    4.1920    4.1820 c3        1 4PI     -0.170000
      8 C11         1.4010    2.9240    3.4330 c1        1 4PI     -0.088100
      9 C21         5.5490    5.6940    4.7180 ce        1 4PI     -0.029200
     10 C22         5.4860    6.2890    3.4890 c2        1 4PI     -0.160200
     11 C24         4.6540    7.9540    4.9950 cx        1 4PI     -0.133300
     12 C27        -1.3330   -0.8210   -1.3200 c3        1 4PI     -0.061800
     13 N12         2.2940    1.9660    3.5930 ns        1 4PI     -0.384500
     14 C23         4.7990    7.6430    3.5080 c3        1 4PI     -0.042200
     15 C25         3.7190    7.2070    5.8900 cu        1 4PI     -0.140200
     16 C26         4.8470    6.5700    5.6220 ce        1 4PI     -0.134200
     17 O32         3.1310   -0.1060    3.2910 o         1 4PI     -0.577100
     18 C4          1.3070    0.3910    1.8390 ca        1 4PI     -0.156600
     19 C5          0.2110    1.1880    1.4940 ca        1 4PI     -0.065500
     20 C6         -0.6420    0.7920    0.4640 ca        1 4PI     -0.160000
     21 H2          0.8690   -2.1330   -0.4330 ha        1 4PI      0.137000
     22 H3          2.3950   -1.4400    1.4120 ha        1 4PI      0.176000
     23 H71         3.0720    2.0420    4.2380 hn        1 4PI      0.279500
     24 H72         4.1360    0.3920    5.4040 hc        1 4PI      0.049367
     25 H81         3.6230    1.5950    6.6690 hc        1 4PI      0.049367
     26 H82         5.0710    0.5420    6.9490 hc        1 4PI      0.049367
     27 H9          6.2220    1.6950    4.9540 ha        1 4PI      0.123000
     28 H101        2.3260    4.3020    4.9020 hc        1 4PI      0.059033
     29 H102        4.4210    3.8750    6.2660 ha        1 4PI      0.128000
     30 H111        1.5360    5.0210    3.4300 hc        1 4PI      0.059033
     31 H112        0.5120    4.3050    4.7440 hc        1 4PI      0.059033
     32 H22         5.8490    5.8660    2.5520 ha        1 4PI      0.146000
     33 H24         3.8160    7.5820    2.9790 hc        1 4PI      0.062200
     34 H271       -0.7690   -1.3270   -2.1420 hc        1 4PI      0.048700
     35 H272       -1.8810    0.0530   -1.7510 hc        1 4PI      0.048700
     36 H273       -2.0880   -1.5440   -0.9180 hc        1 4PI      0.048700
     37 H23         5.4290    8.4150    3.0050 hc        1 4PI      0.062200
     38 H25         2.7980    7.2810    6.4290 ha        1 4PI      0.191000
     39 H26         5.1310    8.8810    5.3400 hc        1 4PI      0.085700
     40 H5          0.0180    2.1380    2.0320 ha        1 4PI      0.176000
     41 H6         -1.5010    1.4270    0.2010 ha        1 4PI      0.137000
     42 C31         2.2670    0.7090    2.9160 c         1 4PI      0.696700
     43 C37         6.1910    4.4180    5.0800 c3        1 4PI      0.007000
     44 H371        7.0020    4.6310    5.8350 hc        1 4PI      0.060700
     45 H372        6.6900    3.9770    4.1740 hc        1 4PI      0.060700
@<TRIPOS>BOND
     1    1    2 ar  
     2    1   12 1   
     3    1   20 ar  
     4    2    3 ar  
     5    2   21 1   
     6    3   18 ar  
     7    3   22 1   
     8    4    5 1   
     9    4   24 1   
    10    4   25 1   
    11    4   26 1   
    12    5    6 2   
    13    5   27 1   
    14    6   29 1   
    15    6   43 1   
    16    7    8 1   
    17    7   28 1   
    18    7   30 1   
    19    7   31 1   
    20    8   13 3   
    21    9   10 2   
    22    9   16 1   
    23    9   43 1   
    24   10   14 1   
    25   10   32 1   
    26   11   14 1   
    27   11   15 1   
    28   11   16 1   
    29   11   39 1   
    30   12   34 1   
    31   12   35 1   
    32   12   36 1   
    33   13   23 1   
    34   13   42 1   
    35   14   33 1   
    36   14   37 1   
    37   15   16 2   
    38   15   38 1   
    39   17   42 2   
    40   18   19 ar  
    41   18   42 1   
    42   19   20 ar  
    43   19   40 1   
    44   20   41 1   
    45   43   44 1   
    46   43   45 1   
@<TRIPOS>SUBSTRUCTURE
     1 4PI         1 TEMP              0 ****  ****    0 ROOT
