@<TRIPOS>MOLECULE
4PI
   45    46     1     0     0
SMALL
bcc


@<TRIPOS>ATOM
      1 C1         -0.6320    0.0720   -0.1910 ca        1 4PI     -0.036300
      2 C2          0.5530    0.8090   -0.1170 ca        1 4PI     -0.159500
      3 C3          1.1480    1.0870    1.1140 ca        1 4PI     -0.065500
      4 C7          5.1360    1.9620    6.7710 c3        1 4PI     -0.096100
      5 C8          5.2750    2.0640    5.2740 c3        1 4PI     -0.084400
      6 C9          4.5960    3.3080    4.7130 c3        1 4PI     -0.085700
      7 C10         4.1670    3.0890    3.2690 c3        1 4PI     -0.150300
      8 C11         2.9860    2.2490    2.9790 c1        1 4PI     -0.088100
      9 C21         4.8490    5.8090    4.6350 c2        1 4PI     -0.124400
     10 C22         4.8540    6.4640    3.4520 c2        1 4PI     -0.180200
     11 C24         3.6040    8.1430    4.4250 c1        1 4PI     -0.158100
     12 C27        -1.2700   -0.2070   -1.4970 c3        1 4PI     -0.061800
     13 N12         2.2570    1.6600    3.9030 n         1 4PI     -0.378500
     14 C23         4.1920    7.8090    3.1480 c3        1 4PI      0.065900
     15 C25         3.5970    7.5620    5.4960 c1        1 4PI     -0.162100
     16 C26         4.1720    6.3090    5.9260 c3        1 4PI      0.070900
     17 O32         0.5840    0.3600    4.6650 o         1 4PI     -0.569100
     18 C4          0.5600    0.6240    2.2950 ca        1 4PI     -0.156600
     19 C5         -0.6320   -0.1210    2.2230 ca        1 4PI     -0.065500
     20 C6         -1.2200   -0.3930    0.9950 ca        1 4PI     -0.159500
     21 H2          1.0260    1.1770   -1.0400 ha        1 4PI      0.137000
     22 H3          2.0860    1.6770    1.1480 ha        1 4PI      0.175500
     23 H71         2.4660    1.7260    4.8900 hn        1 4PI      0.272500
     24 H72         5.6690    1.0560    7.1470 hc        1 4PI      0.036033
     25 H81         4.0600    1.8830    7.0630 hc        1 4PI      0.036033
     26 H82         5.5690    2.8600    7.2740 hc        1 4PI      0.036033
     27 H9          6.3620    2.0760    4.9950 hc        1 4PI      0.043700
     28 H101        4.8330    1.1470    4.8010 hc        1 4PI      0.043700
     29 H102        3.6880    3.5430    5.3370 hc        1 4PI      0.049700
     30 H111        3.9420    4.0890    2.7970 hc        1 4PI      0.087200
     31 H112        5.0190    2.6360    2.6880 hc        1 4PI      0.087200
     32 H22         5.3720    6.0380    2.5790 ha        1 4PI      0.135000
     33 H24         3.4310    7.6900    2.3330 hc        1 4PI      0.071700
     34 H271       -0.5250   -0.1570   -2.3290 hc        1 4PI      0.049033
     35 H272       -2.0700    0.5500   -1.6970 hc        1 4PI      0.049033
     36 H273       -1.7410   -1.2210   -1.5020 hc        1 4PI      0.049033
     37 H23         4.9620    8.5520    2.8120 hc        1 4PI      0.071700
     38 H25         3.4040    5.5690    6.2700 hc        1 4PI      0.070700
     39 H26         4.9360    6.4350    6.7350 hc        1 4PI      0.070700
     40 H5         -1.0950   -0.4900    3.1540 ha        1 4PI      0.175500
     41 H6         -2.1520   -0.9760    0.9500 ha        1 4PI      0.137000
     42 C31         1.1050    0.8540    3.6480 c         1 4PI      0.695700
     43 C37         5.5450    4.5030    4.8050 c3        1 4PI     -0.039200
     44 H371        6.3490    4.3890    4.0290 hc        1 4PI      0.051700
     45 H372        6.0500    4.4880    5.8090 hc        1 4PI      0.051700
@<TRIPOS>BOND
     1    1    2 ar  
     2    1   12 1   
     3    1   20 ar  
     4    2    3 ar  
     5    2   21 1   
     6    3   18 ar  
     7    3   22 1   
     8    4    5 1   
     9    4   24 1   
    10    4   25 1   
    11    4   26 1   
    12    5    6 1   
    13    5   27 1   
    14    5   28 1   
    15    6    7 1   
    16    6   29 1   
    17    6   43 1   
    18    7    8 1   
    19    7   30 1   
    20    7   31 1   
    21    8   13 3   
    22    9   10 2   
    23    9   16 1   
    24    9   43 1   
    25   10   14 1   
    26   10   32 1   
    27   11   14 1   
    28   11   15 3   
    29   12   34 1   
    30   12   35 1   
    31   12   36 1   
    32   13   23 1   
    33   13   42 1   
    34   14   33 1   
    35   14   37 1   
    36   15   16 1   
    37   16   38 1   
    38   16   39 1   
    39   17   42 2   
    40   18   19 ar  
    41   18   42 1   
    42   19   20 ar  
    43   19   40 1   
    44   20   41 1   
    45   43   44 1   
    46   43   45 1   
@<TRIPOS>SUBSTRUCTURE
     1 4PI         1 TEMP              0 ****  ****    0 ROOT
