@<TRIPOS>MOLECULE
4PI
   45    40     1     0     0
SMALL
bcc


@<TRIPOS>ATOM
      1 C1         -4.5460    1.2830   -2.9520 c1        1 4PI     -0.051000
      2 C2         -3.2800    0.7240   -2.8830 c2        1 4PI     -0.140000
      3 C3         -2.6760    0.5230   -1.6460 c1        1 4PI     -0.097000
      4 C7         -0.5700    0.0010    2.2750 c3        1 4PI     -0.037500
      5 C8          0.8280    0.6300    2.2640 c3        1 4PI     -0.180000
      6 C9          1.6250    0.2130    1.0750 c3        1 4PI     -0.098000
      7 C10         0.8740    0.4250   -0.2100 c3        1 4PI     -0.180000
      8 C11        -0.5210   -0.2030   -0.1770 c3        1 4PI     -0.037500
      9 C21         3.5490   -1.4630    1.1870 c1        1 4PI     -0.071000
     10 C22         4.3340   -0.8150    2.1450 c1        1 4PI     -0.128000
     11 C24         6.3110   -1.7710    1.1690 c1        1 4PI     -0.129250
     12 C27        -5.1700    1.5520   -4.2800 c2        1 4PI     -0.184000
     13 C31        -2.6210    0.7430    0.9260 c1        1 4PI      0.337000
     14 N12        -1.2840    0.2010    1.0010 n3        1 4PI     -0.309000
     15 C23         5.7130   -0.9720    2.1320 c1        1 4PI     -0.129250
     16 C25         5.5310   -2.4140    0.2180 c1        1 4PI     -0.129250
     17 C26         4.1450   -2.2570    0.2300 c1        1 4PI     -0.129250
     18 O32        -3.2050    1.0570    1.9410 o         1 4PI     -0.356000
     19 C37         1.9840   -1.2960    1.2090 c3        1 4PI     -0.123000
     20 C4         -3.3440    0.8830   -0.4760 c1        1 4PI     -0.118000
     21 C5         -4.6070    1.4400   -0.5470 c1        1 4PI     -0.084000
     22 C6         -5.2120    1.6420   -1.7860 c1        1 4PI     -0.138000
     23 H2         -2.8160    0.4740   -3.6960 ha        1 4PI      0.135000
     24 H3         -1.8140    0.1410   -1.5990 ha        1 4PI      0.142000
     25 H71        -0.4830   -0.9950    2.4520 h1        1 4PI      0.099000
     26 H72        -1.1090    0.4200    3.0200 h1        1 4PI      0.099000
     27 H81         0.7340    1.6410    2.2600 hc        1 4PI      0.092250
     28 H82         1.3050    0.3580    3.0780 hc        1 4PI      0.092250
     29 H9          2.4600    0.7400    1.0500 hc        1 4PI      0.092000
     30 H101        1.3900    0.0220   -0.9520 hc        1 4PI      0.092250
     31 H102        0.7860    1.3870   -0.3700 hc        1 4PI      0.092250
     32 H111       -0.4310   -1.1720   -0.1770 h1        1 4PI      0.099000
     33 H112       -1.0140    0.0730   -0.9860 h1        1 4PI      0.099000
     34 H22         3.9210   -0.2640    2.8090 ha        1 4PI      0.131000
     35 H24         7.2710   -1.8800    1.1600 ha        1 4PI      0.130500
     36 H271       -4.4720    1.7730   -4.9310 ha        1 4PI      0.086333
     37 H272       -5.6590    0.7510   -4.5810 ha        1 4PI      0.086333
     38 H273       -5.7880    2.2970   -4.2020 ha        1 4PI      0.086333
     39 H23         6.2640   -0.5190    2.8030 ha        1 4PI      0.130500
     40 H25         5.9460   -2.9660   -0.4480 ha        1 4PI      0.130500
     41 H26         3.6000   -2.7080   -0.4370 ha        1 4PI      0.130500
     42 H371        1.6330   -1.6390    2.0450 hc        1 4PI      0.090000
     43 H372        1.5960   -1.7870    0.4710 hc        1 4PI      0.090000
     44 H5         -5.0640    1.6870    0.2510 ha        1 4PI      0.147000
     45 H6         -6.1140    2.0390   -1.8360 ha        1 4PI      0.137000
@<TRIPOS>BOND
     1    1    2 1   
     2    1   22 1   
     3    2    3 1   
     4    2   23 1   
     5    3   24 1   
     6    4    5 1   
     7    4   14 1   
     8    4   25 1   
     9    4   26 1   
    10    5    6 1   
    11    5   27 1   
    12    5   28 1   
    13    6    7 1   
    14    6   19 1   
    15    6   29 1   
    16    7    8 1   
    17    7   30 1   
    18    7   31 1   
    19    8   14 1   
    20    8   32 1   
    21    8   33 1   
    22    9   10 1   
    23    9   19 1   
    24   10   34 1   
    25   11   15 1   
    26   11   35 1   
    27   12   36 1   
    28   12   37 1   
    29   12   38 1   
    30   13   14 1   
    31   13   18 1   
    32   15   39 1   
    33   16   17 1   
    34   16   40 1   
    35   17   41 1   
    36   19   42 1   
    37   19   43 1   
    38   20   21 1   
    39   21   44 1   
    40   22   45 1   
@<TRIPOS>SUBSTRUCTURE
     1 4PI         1 TEMP              0 ****  ****    0 ROOT
