@<TRIPOS>MOLECULE
4PI
   45    47     1     0     0
SMALL
bcc


@<TRIPOS>ATOM
      1 C1         -6.0970   -4.5140   -3.6130 ca        1 4PI     -0.058300
      2 C2         -6.4390   -3.5990   -2.6100 ca        1 4PI     -0.139000
      3 C3         -5.5400   -2.6090   -2.2210 ca        1 4PI     -0.090500
      4 C7         -1.1590   -0.6690   -1.6470 c3        1 4PI      0.078500
      5 C8         -0.8670   -0.6520   -0.1450 c3        1 4PI     -0.101900
      6 C9         -0.3970   -2.0180    0.3340 c3        1 4PI     -0.061700
      7 C10        -1.4080   -3.0820   -0.0640 c3        1 4PI     -0.101900
      8 C11        -1.6780   -3.0440   -1.5690 c3        1 4PI      0.078500
      9 C21         0.5820   -3.1870    2.3220 ca        1 4PI     -0.078300
     10 C22        -0.0480   -4.1710    3.0930 ca        1 4PI     -0.129000
     11 C24         2.0280   -5.3990    3.2520 ca        1 4PI     -0.133000
     12 C27        -7.0630   -5.5520   -4.0400 c3        1 4PI     -0.058800
     13 N12        -2.0430   -1.7380   -2.0730 n         1 4PI     -0.451800
     14 C23         0.6730   -5.2720    3.5550 ca        1 4PI     -0.127500
     15 C25         2.6620   -4.4220    2.4840 ca        1 4PI     -0.127500
     16 C26         1.9440   -3.3210    2.0220 ca        1 4PI     -0.129000
     17 O32        -3.7400   -0.2420   -2.4830 o         1 4PI     -0.595100
     18 C4         -4.2800   -2.5340   -2.8240 ca        1 4PI     -0.138600
     19 C5         -3.9330   -3.4410   -3.8300 ca        1 4PI     -0.090500
     20 C6         -4.8390   -4.4240   -4.2210 ca        1 4PI     -0.139000
     21 H2         -7.4280   -3.6580   -2.1300 ha        1 4PI      0.136500
     22 H3         -5.8190   -1.8740   -1.4500 ha        1 4PI      0.145000
     23 H71        -1.5990    0.3230   -1.9480 h1        1 4PI      0.060450
     24 H72        -0.1870   -0.8100   -2.2020 h1        1 4PI      0.060450
     25 H81        -0.0760    0.1160    0.0510 hc        1 4PI      0.052200
     26 H82        -1.7860   -0.3490    0.4200 hc        1 4PI      0.052200
     27 H9          0.5840   -2.2530   -0.1680 hc        1 4PI      0.052700
     28 H101       -2.3630   -2.9260    0.5010 hc        1 4PI      0.052200
     29 H102       -1.0140   -4.0960    0.2040 hc        1 4PI      0.052200
     30 H111       -0.7370   -3.3550   -2.1110 h1        1 4PI      0.060450
     31 H112       -2.4810   -3.7940   -1.8130 h1        1 4PI      0.060450
     32 H22        -1.1160   -4.0740    3.3370 ha        1 4PI      0.131000
     33 H24         2.5950   -6.2670    3.6170 ha        1 4PI      0.131000
     34 H271       -6.5340   -6.4630   -4.4140 hc        1 4PI      0.047367
     35 H272       -7.7300   -5.8510   -3.1940 hc        1 4PI      0.047367
     36 H273       -7.7040   -5.1560   -4.8680 hc        1 4PI      0.047367
     37 H23         0.1700   -6.0390    4.1610 ha        1 4PI      0.131000
     38 H25         3.7310   -4.5190    2.2450 ha        1 4PI      0.131000
     39 H26         2.4460   -2.5490    1.4200 ha        1 4PI      0.131000
     40 H5         -2.9480   -3.3740   -4.3160 ha        1 4PI      0.145000
     41 H6         -4.5650   -5.1340   -5.0160 ha        1 4PI      0.136500
     42 C31        -3.3590   -1.4290   -2.4270 c         1 4PI      0.664700
     43 C37        -0.1760   -2.0000    1.8410 c3        1 4PI     -0.035100
     44 H371       -1.1700   -1.9390    2.3600 hc        1 4PI      0.050700
     45 H372        0.3970   -1.0710    2.1110 hc        1 4PI      0.050700
@<TRIPOS>BOND
     1    1    2 ar  
     2    1   12 1   
     3    1   20 ar  
     4    2    3 ar  
     5    2   21 1   
     6    3   18 ar  
     7    3   22 1   
     8    4    5 1   
     9    4   13 1   
    10    4   23 1   
    11    4   24 1   
    12    5    6 1   
    13    5   25 1   
    14    5   26 1   
    15    6    7 1   
    16    6   27 1   
    17    6   43 1   
    18    7    8 1   
    19    7   28 1   
    20    7   29 1   
    21    8   13 1   
    22    8   30 1   
    23    8   31 1   
    24    9   10 ar  
    25    9   16 ar  
    26    9   43 1   
    27   10   14 ar  
    28   10   32 1   
    29   11   14 ar  
    30   11   15 ar  
    31   11   33 1   
    32   12   34 1   
    33   12   35 1   
    34   12   36 1   
    35   13   42 1   
    36   14   37 1   
    37   15   16 ar  
    38   15   38 1   
    39   16   39 1   
    40   17   42 2   
    41   18   19 ar  
    42   18   42 1   
    43   19   20 ar  
    44   19   40 1   
    45   20   41 1   
    46   43   44 1   
    47   43   45 1   
@<TRIPOS>SUBSTRUCTURE
     1 4PI         1 TEMP              0 ****  ****    0 ROOT
