@<TRIPOS>MOLECULE
4PI
   45    46     1     0     0
SMALL
bcc


@<TRIPOS>ATOM
      1 C1         -0.6250    0.0730   -0.2170 ca        1 4PI     -0.031000
      2 C2          0.6150    0.7160   -0.1520 ca        1 4PI     -0.160000
      3 C3          1.2350    0.9530    1.0750 ca        1 4PI     -0.066000
      4 C7          5.2440    1.7800    6.7130 c3        1 4PI     -0.212000
      5 C8          5.3820    1.8960    5.2160 c3        1 4PI     -0.159000
      6 C9          4.7000    3.1450    4.6700 c3        1 4PI     -0.129000
      7 C10         4.2680    2.9380    3.2260 c3        1 4PI     -0.198000
      8 C11         3.0740    2.1160    2.9360 c1        1 4PI     -0.119000
      9 C21         4.9230    5.6410    4.6210 c2        1 4PI     -0.184000
     10 C22         5.2690    6.5320    3.6600 c2        1 4PI     -0.083000
     11 C24         3.5700    8.1880    4.4990 c1        1 4PI     -0.058000
     12 C27        -1.2750   -0.1890   -1.5210 c3        1 4PI     -0.187000
     13 N12         2.3500    1.5240    3.8640 n         1 4PI     -0.224000
     14 C23         4.6020    7.8500    3.5280 c3        1 4PI     -0.232000
     15 C25         3.2010    7.2030    5.5070 c3        1 4PI     -0.297000
     16 C26         3.8520    5.8950    5.5440 c1        1 4PI     -0.059000
     17 O32         0.6780    0.2170    4.6220 o         1 4PI     -0.330000
     18 C4          0.6170    0.5430    2.2610 ca        1 4PI     -0.135000
     19 C5         -0.6300   -0.1060    2.1980 ca        1 4PI     -0.066000
     20 C6         -1.2430   -0.3360    0.9730 ca        1 4PI     -0.160000
     21 H2          1.1100    1.0430   -1.0780 ha        1 4PI      0.136500
     22 H3          2.2130    1.4720    1.1040 ha        1 4PI      0.175500
     23 H71         2.5710    1.5790    4.8490 hn        1 4PI      0.192000
     24 H72         5.7870    0.8780    7.0830 hc        1 4PI      0.075667
     25 H81         5.6650    2.6810    7.2220 hc        1 4PI      0.075667
     26 H82         4.1680    1.6890    7.0020 hc        1 4PI      0.075667
     27 H9          6.4690    1.9130    4.9370 hc        1 4PI      0.077500
     28 H101        4.9410    0.9830    4.7350 hc        1 4PI      0.077500
     29 H102        3.7970    3.3830    5.3050 hc        1 4PI      0.119000
     30 H111        5.1110    2.4770    2.6400 hc        1 4PI      0.119000
     31 H112        4.0530    3.9420    2.7580 hc        1 4PI      0.119000
     32 H22         6.0680    6.3170    2.9320 ha        1 4PI      0.130000
     33 H24         4.1270    7.9360    2.5040 hc        1 4PI      0.161500
     34 H271       -0.8960    0.5090   -2.3080 hc        1 4PI      0.087667
     35 H272       -2.3840   -0.0680   -1.4440 hc        1 4PI      0.087667
     36 H273       -1.0590   -1.2380   -1.8480 hc        1 4PI      0.087667
     37 H23         5.3790    8.6710    3.5700 hc        1 4PI      0.161500
     38 H25         2.0810    7.0330    5.4290 hc        1 4PI      0.190000
     39 H26         3.3300    7.6820    6.5290 hc        1 4PI      0.190000
     40 H5         -1.1150   -0.4330    3.1330 ha        1 4PI      0.175500
     41 H6         -2.2190   -0.8420    0.9350 ha        1 4PI      0.136500
     42 C31         1.1880    0.7330    3.6110 c2        1 4PI      0.367000
     43 C37         5.6420    4.3420    4.7710 c3        1 4PI     -0.098000
     44 H371        6.1320    4.3300    5.7830 hc        1 4PI      0.085000
     45 H372        6.4520    4.2480    4.0000 hc        1 4PI      0.085000
@<TRIPOS>BOND
     1    1    2 1   
     2    1   12 1   
     3    1   20 1   
     4    2    3 1   
     5    2   21 1   
     6    3   18 1   
     7    3   22 1   
     8    4    5 1   
     9    4   24 1   
    10    4   25 1   
    11    4   26 1   
    12    5    6 1   
    13    5   27 1   
    14    5   28 1   
    15    6    7 1   
    16    6   29 1   
    17    6   43 1   
    18    7    8 1   
    19    7   30 1   
    20    7   31 1   
    21    8   13 1   
    22    9   10 1   
    23    9   16 1   
    24    9   43 1   
    25   10   14 1   
    26   10   32 1   
    27   11   14 1   
    28   11   15 1   
    29   12   34 1   
    30   12   35 1   
    31   12   36 1   
    32   13   23 1   
    33   13   42 1   
    34   14   33 1   
    35   14   37 1   
    36   15   16 1   
    37   15   38 1   
    38   15   39 1   
    39   17   42 1   
    40   18   19 1   
    41   18   42 1   
    42   19   20 1   
    43   19   40 1   
    44   20   41 1   
    45   43   44 1   
    46   43   45 1   
@<TRIPOS>SUBSTRUCTURE
     1 4PI         1 TEMP              0 ****  ****    0 ROOT
