@<TRIPOS>MOLECULE
4PL
   19    18     1     0     0
SMALL
bcc


@<TRIPOS>ATOM
      1 CAA        -2.3300    0.0380   -1.9160 c3        1 4PL     -0.170000
      2 OAB        -0.1600    0.1250    3.2440 o         1 4PL     -0.295000
      3 OAC        -2.1530    0.0510    0.9250 oh        1 4PL     -0.228000
      4 CAD         1.3630    0.0380   -1.2720 c1        1 4PL     -0.078000
      5 CAE         2.5690    0.0380    1.1100 c3        1 4PL      0.015000
      6 NAF         0.1620    0.0380   -1.9160 n1        1 4PL     -0.098000
      7 OAG         2.0340    0.0380    2.4220 os        1 4PL     -0.241000
      8 CAH         0.6230    0.0380    2.3200 c2        1 4PL      0.356000
      9 CAI        -0.9970    0.0380   -1.1990 c1        1 4PL     -0.018000
     10 CAJ         1.4080    0.0380    0.1280 c1        1 4PL     -0.114000
     11 CAK        -0.9560    0.0380    0.1860 c2        1 4PL      0.117000
     12 CAL         0.2590    0.0380    0.8400 c2        1 4PL     -0.229000
     13 HAA        -2.8550    0.8070   -1.6260 hc        1 4PL      0.102667
     14 HAAA       -2.1810    0.0900   -2.8790 hc        1 4PL      0.102667
     15 HAAB       -2.8120   -0.7840   -1.7060 hc        1 4PL      0.102667
     16 HOAC       -2.3620   -0.7780    1.1660 ho        1 4PL      0.252000
     17 HAD         2.1930    0.0380   -1.7870 ha        1 4PL      0.173000
     18 HAE         3.0980    0.8480    0.9800 h1        1 4PL      0.125000
     19 HAEA        3.0980   -0.7720    0.9800 h1        1 4PL      0.125000
@<TRIPOS>BOND
     1    1    9 1   
     2    1   13 1   
     3    1   14 1   
     4    1   15 1   
     5    2    8 1   
     6    3   11 1   
     7    3   16 1   
     8    4    6 1   
     9    4   17 1   
    10    5    7 1   
    11    5   10 1   
    12    5   18 1   
    13    5   19 1   
    14    7    8 1   
    15    8   12 1   
    16    9   11 1   
    17   10   12 1   
    18   11   12 1   
@<TRIPOS>SUBSTRUCTURE
     1 4PL         1 TEMP              0 ****  ****    0 ROOT
