@<TRIPOS>MOLECULE
4PL
   19    20     1     0     0
SMALL
bcc


@<TRIPOS>ATOM
      1 CAA        -0.2140   -0.0520    0.2550 c3        1 4PL     -0.161400
      2 OAC         0.2490    0.4270    3.0940 oh        1 4PL     -0.459100
      3 CAD         3.4450   -0.4670    0.6060 ca        1 4PL      0.381200
      4 CAE         4.9160   -0.2450    2.7860 c3        1 4PL      0.170700
      5 NAF         2.2050   -0.4060    0.0670 nb        1 4PL     -0.615000
      6 OAG         4.4890    0.0680    4.1370 os        1 4PL     -0.416900
      7 CAH         3.1050    0.2560    4.1700 c         1 4PL      0.742200
      8 CAI         1.1540   -0.1180    0.8540 ca        1 4PL      0.343600
      9 CAJ         3.6690   -0.2390    1.9580 ca        1 4PL     -0.184600
     10 CAK         1.2930    0.1320    2.2660 ca        1 4PL      0.090800
     11 CAL         2.5710    0.0670    2.8070 ca        1 4PL     -0.176600
     12 HAA        -0.8770   -0.8080    0.7470 hc        1 4PL      0.061033
     13 HAAA       -0.6430    0.9700    0.4100 hc        1 4PL      0.061033
     14 HAAB       -0.2010   -0.2630   -0.8430 hc        1 4PL      0.061033
     15 HOAC       -0.5700    0.4350    2.5740 ho        1 4PL      0.432000
     16 HAD         4.2610   -0.7070   -0.0980 h4        1 4PL      0.037100
     17 HAE         5.6450    0.5480    2.4830 h1        1 4PL      0.083700
     18 HAEA        5.4080   -1.2500    2.8240 h1        1 4PL      0.083700
     19 OAB         2.6260    0.5260    5.2600 o         1 4PL     -0.533500
@<TRIPOS>BOND
     1    1    8 1   
     2    1   12 1   
     3    1   13 1   
     4    1   14 1   
     5    2   10 1   
     6    2   15 1   
     7    3    5 ar  
     8    3    9 ar  
     9    3   16 1   
    10    4    6 1   
    11    4    9 1   
    12    4   17 1   
    13    4   18 1   
    14    5    8 ar  
    15    6    7 1   
    16    7   11 1   
    17    7   19 2   
    18    8   10 ar  
    19    9   11 ar  
    20   10   11 ar  
@<TRIPOS>SUBSTRUCTURE
     1 4PL         1 TEMP              0 ****  ****    0 ROOT
