@<TRIPOS>MOLECULE
4PL
   19    20     1     0     0
SMALL
bcc


@<TRIPOS>ATOM
      1 CAA         3.4160   -0.3890    0.0040 c3        1 4PL     -0.146400
      2 OAC         1.2110   -2.0380    0.2060 oh        1 4PL     -0.474100
      3 CAD         0.6130    2.0460   -0.1160 ca        1 4PL      0.387200
      4 CAE        -1.9790    1.5330    0.0030 c3        1 4PL      0.172700
      5 NAF         1.8710    1.5300   -0.1100 nb        1 4PL     -0.624000
      6 OAG        -2.6360    0.2370    0.1300 os        1 4PL     -0.402900
      7 CAH        -1.6810   -0.7690    0.1850 c         1 4PL      0.742200
      8 CAI         2.0470    0.2050   -0.0050 ca        1 4PL      0.404600
      9 CAJ        -0.5110    1.2420   -0.0160 ca        1 4PL     -0.186600
     10 CAK         0.9310   -0.7090    0.1040 ca        1 4PL      0.096800
     11 CAL        -0.3420   -0.1670    0.0960 ca        1 4PL     -0.249600
     12 HAA         3.5580   -0.9580    0.9570 hc        1 4PL      0.063367
     13 HAAA        3.5050   -1.1080   -0.8490 hc        1 4PL      0.063367
     14 HAAB        4.2160    0.3840   -0.0830 hc        1 4PL      0.063367
     15 HOAC        0.3670   -2.5220    0.2710 ho        1 4PL      0.453000
     16 HAD         0.5540    3.1450   -0.2050 h4        1 4PL      0.036100
     17 HAE        -2.3490    1.9860   -0.9510 h1        1 4PL      0.085700
     18 HAEA       -2.2950    2.1390    0.8880 h1        1 4PL      0.085700
     19 OAB        -2.0770   -1.9230    0.2930 o         1 4PL     -0.570500
@<TRIPOS>BOND
     1    1    8 1   
     2    1   12 1   
     3    1   13 1   
     4    1   14 1   
     5    2   10 1   
     6    2   15 1   
     7    3    5 ar  
     8    3    9 ar  
     9    3   16 1   
    10    4    6 1   
    11    4    9 1   
    12    4   17 1   
    13    4   18 1   
    14    5    8 ar  
    15    6    7 1   
    16    7   11 1   
    17    7   19 2   
    18    8   10 ar  
    19    9   11 ar  
    20   10   11 ar  
@<TRIPOS>SUBSTRUCTURE
     1 4PL         1 TEMP              0 ****  ****    0 ROOT
