@<TRIPOS>MOLECULE
4PL
   19    20     1     0     0
SMALL
bcc


@<TRIPOS>ATOM
      1 CAA        -0.0780   -0.0520    0.2400 c3        1 4PL     -0.068900
      2 OAC         0.3120    0.0450    3.1490 oh        1 4PL     -0.460100
      3 CAD         3.6720   -0.1370    0.6030 c1        1 4PL     -0.053900
      4 CAE         5.0230   -0.0890    2.8700 c3        1 4PL      0.174600
      5 NAF         2.4200   -0.1220    0.1220 nu        1 4PL     -0.096600
      6 OAG         4.5460   -0.0260    4.2450 os        1 4PL     -0.418900
      7 CAH         3.1520    0.0110    4.2600 c2        1 4PL      0.438100
      8 CAI         1.2600   -0.0630    0.8930 c2        1 4PL     -0.170300
      9 CAJ         3.7890   -0.0880    2.0250 ce        1 4PL     -0.203300
     10 CAK         1.3770   -0.0150    2.2900 ce        1 4PL      0.133100
     11 CAL         2.6720   -0.0280    2.8580 ce        1 4PL     -0.113000
     12 HAA        -0.6280    0.8830    0.5180 hc        1 4PL      0.060700
     13 HAAA       -0.0120   -0.0940   -0.8750 hc        1 4PL      0.060700
     14 HAAB       -0.6750   -0.9350    0.5840 hc        1 4PL      0.060700
     15 HOAC       -0.5070    0.0460    2.6300 ho        1 4PL      0.424000
     16 HAD         2.3060   -0.1550   -0.8720 hn        1 4PL      0.308700
     17 HAE         5.6660    0.8120    2.7050 h1        1 4PL      0.090700
     18 HAEA        5.6180   -1.0320    2.7730 h1        1 4PL      0.090700
     19 OAB         2.6200    0.0650    5.3570 o         1 4PL     -0.258000
@<TRIPOS>BOND
     1    1    8 1   
     2    1   12 1   
     3    1   13 1   
     4    1   14 1   
     5    2   10 1   
     6    2   15 1   
     7    3    5 2   
     8    3    9 2   
     9    4    6 1   
    10    4    9 1   
    11    4   17 1   
    12    4   18 1   
    13    5    8 1   
    14    5   16 1   
    15    6    7 1   
    16    7   11 2   
    17    7   19 1   
    18    8   10 2   
    19    9   11 1   
    20   10   11 1   
@<TRIPOS>SUBSTRUCTURE
     1 4PL         1 TEMP              0 ****  ****    0 ROOT
