@<TRIPOS>MOLECULE
4PN
   32    33     1     0     0
SMALL
bcc


@<TRIPOS>ATOM
      1 C8          0.1230    0.2660   -0.1580 c3        1 4PN      0.174800
      2 C9          1.6460    0.2430   -0.0180 c3        1 4PN     -0.077900
      3 C10         2.0670   -0.0580    1.4030 c3        1 4PN     -0.078400
      4 C11         1.4000    0.9080    2.3580 c3        1 4PN     -0.077900
      5 C12        -0.1150    0.9000    2.1700 c3        1 4PN      0.174800
      6 N7         -0.5300    1.1500    0.7940 n3        1 4PN     -0.734600
      7 C4         -1.9950    1.1980    0.6820 c3        1 4PN      0.190500
      8 C5         -2.5180    2.5970    1.0620 c3        1 4PN     -0.078400
      9 C6         -4.0450    2.6180    1.0360 c3        1 4PN      0.162800
     10 N1         -4.6030    2.1860   -0.2300 n3        1 4PN     -0.819200
     11 C2         -4.0790    0.9160   -0.6920 c3        1 4PN      0.162800
     12 C3         -2.5520    0.8570   -0.7070 c3        1 4PN     -0.078400
     13 H81        -0.2550   -0.7960   -0.0690 h1        1 4PN      0.028200
     14 H82        -0.1210    0.6350   -1.1940 h1        1 4PN      0.028200
     15 H91         2.0670    1.2340   -0.3320 hc        1 4PN      0.046200
     16 H92         2.0500   -0.5360   -0.7140 hc        1 4PN      0.046200
     17 H101        1.7800   -1.1090    1.6680 hc        1 4PN      0.039200
     18 H102        3.1810    0.0210    1.4960 hc        1 4PN      0.039200
     19 H111        1.6260    0.6230    3.4170 hc        1 4PN      0.046200
     20 H112        1.7980    1.9420    2.1880 hc        1 4PN      0.046200
     21 H121       -0.5130   -0.0890    2.5480 h1        1 4PN      0.028200
     22 H122       -0.5610    1.7110    2.8120 h1        1 4PN      0.028200
     23 H4         -2.4570    0.4550    1.4080 h1        1 4PN      0.018700
     24 H51        -2.1090    3.3570    0.3480 hc        1 4PN      0.054450
     25 H52        -2.1840    2.8780    2.0930 hc        1 4PN      0.054450
     26 H61        -4.4210    1.9900    1.8990 h1        1 4PN      0.026200
     27 H62        -4.3950    3.6750    1.2090 h1        1 4PN      0.026200
     28 H1         -5.6030    2.1410   -0.1670 hn        1 4PN      0.361800
     29 H21        -4.4570    0.0510   -0.0700 h1        1 4PN      0.026200
     30 H22        -4.4550    0.7650   -1.7440 h1        1 4PN      0.026200
     31 H31        -2.1520    1.5770   -1.4670 hc        1 4PN      0.054450
     32 H32        -2.2560   -0.1790   -1.0100 hc        1 4PN      0.054450
@<TRIPOS>BOND
     1    1    2 1   
     2    1    6 1   
     3    1   13 1   
     4    1   14 1   
     5    2    3 1   
     6    2   15 1   
     7    2   16 1   
     8    3    4 1   
     9    3   17 1   
    10    3   18 1   
    11    4    5 1   
    12    4   19 1   
    13    4   20 1   
    14    5    6 1   
    15    5   21 1   
    16    5   22 1   
    17    6    7 1   
    18    7    8 1   
    19    7   12 1   
    20    7   23 1   
    21    8    9 1   
    22    8   24 1   
    23    8   25 1   
    24    9   10 1   
    25    9   26 1   
    26    9   27 1   
    27   10   11 1   
    28   10   28 1   
    29   11   12 1   
    30   11   29 1   
    31   11   30 1   
    32   12   31 1   
    33   12   32 1   
@<TRIPOS>SUBSTRUCTURE
     1 4PN         1 TEMP              0 ****  ****    0 ROOT
