@<TRIPOS>MOLECULE
4PN
   32    33     1     0     0
SMALL
bcc


@<TRIPOS>ATOM
      1 C8          0.1240    0.2690   -0.1600 c3        1 4PN      0.174800
      2 C9          1.6460    0.2460   -0.0190 c3        1 4PN     -0.077900
      3 C10         2.0660   -0.0610    1.4010 c3        1 4PN     -0.078400
      4 C11         1.3990    0.9010    2.3600 c3        1 4PN     -0.077900
      5 C12        -0.1170    0.8940    2.1700 c3        1 4PN      0.174800
      6 N7         -0.5310    1.1490    0.7950 n3        1 4PN     -0.734600
      7 C4         -1.9950    1.1990    0.6820 c3        1 4PN      0.190500
      8 C5         -2.5180    2.5970    1.0650 c3        1 4PN     -0.078400
      9 C6         -4.0440    2.6180    1.0380 c3        1 4PN      0.162800
     10 N1         -4.6010    2.1890   -0.2290 n7        1 4PN     -0.819200
     11 C2         -4.0790    0.9210   -0.6940 c3        1 4PN      0.162800
     12 C3         -2.5520    0.8610   -0.7080 c3        1 4PN     -0.078400
     13 H81        -0.2550   -0.7930   -0.0750 h1        1 4PN      0.028200
     14 H82        -0.1190    0.6420   -1.1950 h1        1 4PN      0.028200
     15 H91         2.0510   -0.5310   -0.7180 hc        1 4PN      0.046200
     16 H92         2.0670    1.2380   -0.3290 hc        1 4PN      0.046200
     17 H101        1.7800   -1.1130    1.6610 hc        1 4PN      0.039200
     18 H102        3.1800    0.0180    1.4950 hc        1 4PN      0.039200
     19 H111        1.7960    1.9360    2.1940 hc        1 4PN      0.046200
     20 H112        1.6230    0.6120    3.4180 hc        1 4PN      0.046200
     21 H121       -0.5150   -0.0970    2.5440 h1        1 4PN      0.028200
     22 H122       -0.5630    1.7020    2.8150 h1        1 4PN      0.028200
     23 H4         -2.4580    0.4540    1.4060 h1        1 4PN      0.018700
     24 H51        -2.1080    3.3580    0.3530 hc        1 4PN      0.054450
     25 H52        -2.1840    2.8750    2.0970 hc        1 4PN      0.054450
     26 H61        -4.3940    3.6750    1.2140 h1        1 4PN      0.026200
     27 H62        -4.4210    1.9890    1.8990 h1        1 4PN      0.026200
     28 H1         -5.6020    2.1450   -0.1660 hn        1 4PN      0.361800
     29 H21        -4.4570    0.0540   -0.0730 h1        1 4PN      0.026200
     30 H22        -4.4540    0.7720   -1.7460 h1        1 4PN      0.026200
     31 H31        -2.2550   -0.1750   -1.0140 hc        1 4PN      0.054450
     32 H32        -2.1510    1.5820   -1.4660 hc        1 4PN      0.054450
@<TRIPOS>BOND
     1    1    2 1   
     2    1    6 1   
     3    1   13 1   
     4    1   14 1   
     5    2    3 1   
     6    2   15 1   
     7    2   16 1   
     8    3    4 1   
     9    3   17 1   
    10    3   18 1   
    11    4    5 1   
    12    4   19 1   
    13    4   20 1   
    14    5    6 1   
    15    5   21 1   
    16    5   22 1   
    17    6    7 1   
    18    7    8 1   
    19    7   12 1   
    20    7   23 1   
    21    8    9 1   
    22    8   24 1   
    23    8   25 1   
    24    9   10 1   
    25    9   26 1   
    26    9   27 1   
    27   10   11 1   
    28   10   28 1   
    29   11   12 1   
    30   11   29 1   
    31   11   30 1   
    32   12   31 1   
    33   12   32 1   
@<TRIPOS>SUBSTRUCTURE
     1 4PN         1 TEMP              0 ****  ****    0 ROOT
