@<TRIPOS>MOLECULE
4PN
   32    33     1     0     0
SMALL
bcc


@<TRIPOS>ATOM
      1 C8         -1.1890    0.0950   -1.3990 c3        1 4PN      0.174800
      2 C9         -1.1450    0.5280   -2.8650 c3        1 4PN     -0.077900
      3 C10        -0.0830   -0.2260   -3.6330 c3        1 4PN     -0.078400
      4 C11         1.2540   -0.0950   -2.9370 c3        1 4PN     -0.077900
      5 C12         1.1520   -0.5290   -1.4770 c3        1 4PN      0.174800
      6 N7          0.1030    0.1650   -0.7370 n3        1 4PN     -0.734600
      7 C4          0.0940   -0.2390    0.6750 c3        1 4PN      0.190500
      8 C5          1.1410    0.5620    1.4720 c3        1 4PN     -0.078400
      9 C6          1.1940    0.0750    2.9180 c3        1 4PN      0.162800
     10 N1         -0.0930    0.1060    3.5830 n3        1 4PN     -0.819200
     11 C2         -1.1470   -0.5510    2.8380 c3        1 4PN      0.162800
     12 C3         -1.2550   -0.0760    1.3890 c3        1 4PN     -0.078400
     13 H81        -1.8920    0.7890   -0.8570 h1        1 4PN      0.028200
     14 H82        -1.6260   -0.9470   -1.3530 h1        1 4PN      0.028200
     15 H91        -0.9400    1.6290   -2.9250 hc        1 4PN      0.046200
     16 H92        -2.1530    0.3430   -3.3160 hc        1 4PN      0.046200
     17 H101       -0.3660   -1.3090   -3.7060 hc        1 4PN      0.039200
     18 H102       -0.0100    0.1740   -4.6780 hc        1 4PN      0.039200
     19 H111        2.0200   -0.7380   -3.4430 hc        1 4PN      0.046200
     20 H112        1.6070    0.9680   -2.9940 hc        1 4PN      0.046200
     21 H121        2.1320   -0.3070   -0.9670 h1        1 4PN      0.028200
     22 H122        1.0030   -1.6500   -1.4500 h1        1 4PN      0.028200
     23 H4          0.3730   -1.3380    0.7590 h1        1 4PN      0.018700
     24 H51         2.1600    0.4370    1.0250 hc        1 4PN      0.054450
     25 H52         0.8830    1.6520    1.4420 hc        1 4PN      0.054450
     26 H61         1.6470   -0.9620    2.9240 h1        1 4PN      0.026200
     27 H62         1.8850    0.7480    3.5010 h1        1 4PN      0.026200
     28 H1         -0.0170   -0.2980    4.4970 hn        1 4PN      0.361800
     29 H21        -1.0220   -1.6750    2.8290 h1        1 4PN      0.026200
     30 H22        -2.1180   -0.3240    3.3640 h1        1 4PN      0.026200
     31 H31        -1.5740    0.9980    1.3650 hc        1 4PN      0.054450
     32 H32        -2.0460   -0.6910    0.8880 hc        1 4PN      0.054450
@<TRIPOS>BOND
     1    1    2 1   
     2    1    6 1   
     3    1   13 1   
     4    1   14 1   
     5    2    3 1   
     6    2   15 1   
     7    2   16 1   
     8    3    4 1   
     9    3   17 1   
    10    3   18 1   
    11    4    5 1   
    12    4   19 1   
    13    4   20 1   
    14    5    6 1   
    15    5   21 1   
    16    5   22 1   
    17    6    7 1   
    18    7    8 1   
    19    7   12 1   
    20    7   23 1   
    21    8    9 1   
    22    8   24 1   
    23    8   25 1   
    24    9   10 1   
    25    9   26 1   
    26    9   27 1   
    27   10   11 1   
    28   10   28 1   
    29   11   12 1   
    30   11   29 1   
    31   11   30 1   
    32   12   31 1   
    33   12   32 1   
@<TRIPOS>SUBSTRUCTURE
     1 4PN         1 TEMP              0 ****  ****    0 ROOT
