@<TRIPOS>MOLECULE
4PN
   32    33     1     0     0
SMALL
bcc


@<TRIPOS>ATOM
      1 C8          0.1250    0.2680   -0.1570 c3        1 4PN      0.174800
      2 C9          1.6480    0.2470   -0.0160 c3        1 4PN     -0.077900
      3 C10         2.0670   -0.0560    1.4050 c3        1 4PN     -0.078400
      4 C11         1.3980    0.9060    2.3620 c3        1 4PN     -0.077900
      5 C12        -0.1170    0.8980    2.1710 c3        1 4PN      0.174800
      6 N7         -0.5310    1.1490    0.7950 n3        1 4PN     -0.734600
      7 C4         -1.9950    1.1980    0.6820 c3        1 4PN      0.190500
      8 C5         -2.5190    2.5960    1.0610 c3        1 4PN     -0.078400
      9 C6         -4.0450    2.6160    1.0330 c3        1 4PN      0.162800
     10 N1         -4.6020    2.1840   -0.2330 n3        1 4PN     -0.819200
     11 C2         -4.0780    0.9150   -0.6950 c3        1 4PN      0.162800
     12 C3         -2.5500    0.8570   -0.7080 c3        1 4PN     -0.078400
     13 H81        -0.1180    0.6390   -1.1930 h1        1 4PN      0.028200
     14 H82        -0.2520   -0.7940   -0.0710 h1        1 4PN      0.028200
     15 H91         2.0680    1.2390   -0.3270 hc        1 4PN      0.046200
     16 H92         2.0540   -0.5300   -0.7130 hc        1 4PN      0.046200
     17 H101        1.7820   -1.1090    1.6680 hc        1 4PN      0.039200
     18 H102        3.1810    0.0240    1.5000 hc        1 4PN      0.039200
     19 H111        1.7950    1.9410    2.1950 hc        1 4PN      0.046200
     20 H112        1.6220    0.6190    3.4210 hc        1 4PN      0.046200
     21 H121       -0.5650    1.7070    2.8140 h1        1 4PN      0.028200
     22 H122       -0.5150   -0.0930    2.5470 h1        1 4PN      0.028200
     23 H4         -2.4580    0.4540    1.4070 h1        1 4PN      0.018700
     24 H51        -2.1100    3.3570    0.3480 hc        1 4PN      0.054450
     25 H52        -2.1860    2.8770    2.0930 hc        1 4PN      0.054450
     26 H61        -4.4220    1.9890    1.8960 h1        1 4PN      0.026200
     27 H62        -4.3960    3.6730    1.2060 h1        1 4PN      0.026200
     28 H1         -5.6020    2.1390   -0.1710 hn        1 4PN      0.361800
     29 H21        -4.4520    0.7630   -1.7470 h1        1 4PN      0.026200
     30 H22        -4.4560    0.0490   -0.0730 h1        1 4PN      0.026200
     31 H31        -2.1500    1.5760   -1.4680 hc        1 4PN      0.054450
     32 H32        -2.2530   -0.1800   -1.0110 hc        1 4PN      0.054450
@<TRIPOS>BOND
     1    1    2 1   
     2    1    6 1   
     3    1   13 1   
     4    1   14 1   
     5    2    3 1   
     6    2   15 1   
     7    2   16 1   
     8    3    4 1   
     9    3   17 1   
    10    3   18 1   
    11    4    5 1   
    12    4   19 1   
    13    4   20 1   
    14    5    6 1   
    15    5   21 1   
    16    5   22 1   
    17    6    7 1   
    18    7    8 1   
    19    7   12 1   
    20    7   23 1   
    21    8    9 1   
    22    8   24 1   
    23    8   25 1   
    24    9   10 1   
    25    9   26 1   
    26    9   27 1   
    27   10   11 1   
    28   10   28 1   
    29   11   12 1   
    30   11   29 1   
    31   11   30 1   
    32   12   31 1   
    33   12   32 1   
@<TRIPOS>SUBSTRUCTURE
     1 4PN         1 TEMP              0 ****  ****    0 ROOT
