@<TRIPOS>MOLECULE
4PN
   32    33     1     0     0
SMALL
bcc


@<TRIPOS>ATOM
      1 C8          1.6380   -0.8210   -0.2420 c3        1 4PN      0.171300
      2 C9          2.3430   -1.8850    0.5700 c3        1 4PN     -0.078900
      3 C10         1.5200   -2.4670    1.4340 c3        1 4PN     -0.070400
      4 C11         0.2540   -2.7810    1.1910 c3        1 4PN     -0.078900
      5 C12        -0.4390   -1.7120    0.3760 c3        1 4PN      0.171300
      6 N7          0.2980   -0.3180    0.4230 n3        1 4PN     -0.731600
      7 C4         -0.2900    0.5050   -0.3690 c3        1 4PN      0.195500
      8 C5         -1.7090    0.9150    0.1610 c3        1 4PN     -0.081900
      9 C6         -2.4020    1.9170   -0.7400 c3        1 4PN      0.164300
     10 N1         -1.5480    2.5240   -1.5140 n3        1 4PN     -0.822200
     11 C2         -0.3500    2.9410   -1.1960 c3        1 4PN      0.164300
     12 C3          0.3520    1.9520   -0.3000 c3        1 4PN     -0.081900
     13 H81         1.4310   -1.1860   -1.1260 h1        1 4PN      0.030700
     14 H82         2.2400   -0.0580   -0.3500 h1        1 4PN      0.030700
     15 H91         2.7020   -2.5650   -0.0380 hc        1 4PN      0.041950
     16 H92         3.0840   -1.4730    1.0620 hc        1 4PN      0.041950
     17 H101        1.5070   -1.8860    2.2260 hc        1 4PN      0.041700
     18 H102        1.9580   -3.3020    1.7020 hc        1 4PN      0.041700
     19 H111        0.2230   -3.6280    0.6990 hc        1 4PN      0.041950
     20 H112       -0.2180   -2.8890    2.0430 hc        1 4PN      0.041950
     21 H121       -1.3490   -1.5970    0.7180 h1        1 4PN      0.030700
     22 H122       -0.4890   -2.0100   -0.5550 h1        1 4PN      0.030700
     23 H4         -0.3300    0.1700   -1.2870 h1        1 4PN      0.027700
     24 H51        -1.6110    1.3060    1.0530 hc        1 4PN      0.050700
     25 H52        -2.2650    0.1120    0.2280 hc        1 4PN      0.050700
     26 H61        -3.0610    1.4490   -1.2950 h1        1 4PN      0.029450
     27 H62        -2.8620    2.5820   -0.1870 h1        1 4PN      0.029450
     28 H1         -1.9800    3.1740   -1.9960 hn        1 4PN      0.360800
     29 H21        -0.4230    3.8010   -0.7300 h1        1 4PN      0.029450
     30 H22         0.1760    3.0620   -2.0140 h1        1 4PN      0.029450
     31 H31         1.2920    1.8940   -0.5690 hc        1 4PN      0.050700
     32 H32         0.3060    2.2740    0.6230 hc        1 4PN      0.050700
@<TRIPOS>BOND
     1    1    2 1   
     2    1    6 1   
     3    1   13 1   
     4    1   14 1   
     5    2    3 1   
     6    2   15 1   
     7    2   16 1   
     8    3    4 1   
     9    3   17 1   
    10    3   18 1   
    11    4    5 1   
    12    4   19 1   
    13    4   20 1   
    14    5    6 1   
    15    5   21 1   
    16    5   22 1   
    17    6    7 1   
    18    7    8 1   
    19    7   12 1   
    20    7   23 1   
    21    8    9 1   
    22    8   24 1   
    23    8   25 1   
    24    9   10 1   
    25    9   26 1   
    26    9   27 1   
    27   10   11 1   
    28   10   28 1   
    29   11   12 1   
    30   11   29 1   
    31   11   30 1   
    32   12   31 1   
    33   12   32 1   
@<TRIPOS>SUBSTRUCTURE
     1 4PN         1 TEMP              0 ****  ****    0 ROOT
