@<TRIPOS>MOLECULE
4PO
   28    24     1     0     0
SMALL
bcc


@<TRIPOS>ATOM
      1 C1          0.1260    0.6890   -2.8060 c3        1 4PO     -0.101433
      2 N1         -0.5150    0.4630   -0.4930 n1        1 4PO     -0.205300
      3 O1         -0.8810    1.4620    0.3590 os        1 4PO     -0.438000
      4 C2         -2.0630    1.5440   -2.0040 c3        1 4PO     -0.101433
      5 N2          1.9150   -0.5920    3.8950 n1        1 4PO     -0.464500
      6 O2          2.4620   -0.6690    5.1430 os        1 4PO     -0.438000
      7 C3         -1.6460   -0.8980   -2.1290 c3        1 4PO     -0.101433
      8 C4         -1.0160    0.4480   -1.8390 c3        1 4PO      0.186500
      9 C5          0.3020   -0.4920   -0.0800 c1        1 4PO      0.152300
     10 C6          0.8380   -0.4760    1.3590 cg        1 4PO     -0.090300
     11 C7          0.2610   -1.2690    2.3120 ce        1 4PO     -0.055700
     12 C8          0.8050   -1.3260    3.5900 cf        1 4PO      0.292700
     13 C9          2.4910    0.2000    2.9460 c1        1 4PO      0.186300
     14 C10         1.9500    0.2600    1.6660 c1        1 4PO     -0.014500
     15 H1          0.6240   -0.1430   -2.9370 hc        1 4PO      0.055700
     16 H1A         0.7230    1.3730   -2.4420 hc        1 4PO      0.055700
     17 H1B        -0.2340    0.9940   -3.6680 hc        1 4PO      0.055700
     18 H2         -1.6470    2.4170   -1.8540 hc        1 4PO      0.055700
     19 H2A        -2.4330    1.5100   -2.9170 hc        1 4PO      0.055700
     20 H2B        -2.7820    1.4090   -1.3550 hc        1 4PO      0.055700
     21 H3         -2.3120   -1.1020   -1.4390 hc        1 4PO      0.055700
     22 H3A        -0.9540   -1.5890   -2.1290 hc        1 4PO      0.055700
     23 H3B        -2.0830   -0.8720   -3.0070 hc        1 4PO      0.055700
     24 H5          0.5640   -1.2090   -0.6910 ha        1 4PO      0.098500
     25 H7         -0.5330   -1.7940    2.0950 ha        1 4PO      0.147000
     26 H8          0.3930   -1.8920    4.2710 h4        1 4PO      0.184000
     27 H9          3.2860    0.7250    3.1660 ha        1 4PO      0.129500
     28 H10         2.3630    0.8260    0.9880 ha        1 4PO      0.133500
@<TRIPOS>BOND
     1    1    8 1   
     2    1   15 1   
     3    1   16 1   
     4    1   17 1   
     5    2    8 1   
     6    2    9 3   
     7    4    8 1   
     8    4   18 1   
     9    4   19 1   
    10    4   20 1   
    11    5   12 1   
    12    5   13 3   
    13    7    8 1   
    14    7   21 1   
    15    7   22 1   
    16    7   23 1   
    17    9   24 1   
    18   10   11 1   
    19   10   14 3   
    20   11   12 2   
    21   11   25 1   
    22   12   26 1   
    23   13   27 1   
    24   14   28 1   
@<TRIPOS>SUBSTRUCTURE
     1 4PO         1 TEMP              0 ****  ****    0 ROOT
