@<TRIPOS>MOLECULE
4PO
   28    28     1     0     0
SMALL
bcc


@<TRIPOS>ATOM
      1 C1         -0.0100   -0.1210   -0.0720 c3        1 4PO     -0.101433
      2 N1          2.0030    0.2330    1.3870 nh        1 4PO      0.117600
      3 O1          2.5940    1.2710    1.6340 o         1 4PO     -0.288000
      4 C2          2.1600   -1.2160   -0.6580 c3        1 4PO     -0.101433
      5 N2          2.7710   -0.9420    6.4250 na        1 4PO      0.249600
      6 O2          3.0530   -1.0190    7.6130 o         1 4PO     -0.288000
      7 C3          1.8950    1.2440   -0.9040 c3        1 4PO     -0.101433
      8 C4          1.5140    0.0310   -0.0490 c3        1 4PO     -0.015300
      9 C5          1.7450   -0.7470    2.2600 ce        1 4PO      0.036800
     10 C6          2.1120   -0.7670    3.6610 ca        1 4PO     -0.140900
     11 C7          2.8080    0.2650    4.3060 ca        1 4PO     -0.080500
     12 C8          3.1230    0.1650    5.6600 ca        1 4PO     -0.221300
     13 C9          2.0800   -1.9640    5.7760 ca        1 4PO     -0.221300
     14 C10         1.7530   -1.8900    4.4270 ca        1 4PO     -0.080500
     15 H1         -0.5040    0.7760    0.3730 hc        1 4PO      0.055700
     16 H1A        -0.3400   -0.2190   -1.1340 hc        1 4PO      0.055700
     17 H1B        -0.3390   -1.0290    0.4860 hc        1 4PO      0.055700
     18 H2          3.2740   -1.1300   -0.6480 hc        1 4PO      0.055700
     19 H2A         1.8630   -2.1410   -0.1090 hc        1 4PO      0.055700
     20 H2B         1.8210   -1.3090   -1.7180 hc        1 4PO      0.055700
     21 H3          3.0030    1.3810   -0.9190 hc        1 4PO      0.055700
     22 H3A         1.5300    1.0780   -1.9450 hc        1 4PO      0.055700
     23 H3B         1.4320    2.1740   -0.4940 hc        1 4PO      0.055700
     24 H5          1.1980   -1.6270    1.8790 h4        1 4PO      0.026800
     25 H7          3.1180    1.1730    3.7610 ha        1 4PO      0.169000
     26 H8          3.6690    0.9580    6.2000 h4        1 4PO      0.185500
     27 H9          1.8150   -2.8290    6.4080 h4        1 4PO      0.185500
     28 H10         1.2060   -2.7310    3.9740 ha        1 4PO      0.169000
@<TRIPOS>BOND
     1    1    8 1   
     2    1   15 1   
     3    1   16 1   
     4    1   17 1   
     5    2    3 1   
     6    2    8 1   
     7    2    9 2   
     8    4    8 1   
     9    4   18 1   
    10    4   19 1   
    11    4   20 1   
    12    5    6 1   
    13    5   12 1   
    14    5   13 2   
    15    7    8 1   
    16    7   21 1   
    17    7   22 1   
    18    7   23 1   
    19    9   10 1   
    20    9   24 1   
    21   10   11 ar  
    22   10   14 ar  
    23   11   12 ar  
    24   11   25 1   
    25   12   26 1   
    26   13   14 ar  
    27   13   27 1   
    28   14   28 1   
@<TRIPOS>SUBSTRUCTURE
     1 4PO         1 TEMP              0 ****  ****    0 ROOT
