@<TRIPOS>MOLECULE
4PO
   28    28     1     0     0
SMALL
bcc


@<TRIPOS>ATOM
      1 C1         -3.3090   -0.8020    1.3660 c3        1 4PO     -0.101433
      2 N1         -1.5900    0.4220    0.0040 nh        1 4PO      0.117600
      3 O1         -1.4010    1.6230   -0.0850 o         1 4PO     -0.288000
      4 C2         -3.3390   -0.9800   -1.1280 c3        1 4PO     -0.101433
      5 N2          3.6220   -0.0040   -0.0290 na        1 4PO      0.249600
      6 O2          4.8390    0.1190   -0.0520 o         1 4PO     -0.288000
      7 C3         -3.9900    1.1480   -0.0190 c3        1 4PO     -0.101433
      8 C4         -3.0430   -0.0550    0.0560 c3        1 4PO     -0.015300
      9 C5         -0.6410   -0.5170    0.0600 ce        1 4PO      0.036800
     10 C6          0.7900   -0.2950    0.0260 ca        1 4PO     -0.140900
     11 C7          1.3870    0.9700   -0.0710 ca        1 4PO     -0.080500
     12 C8          2.7750    1.0970   -0.0970 ca        1 4PO     -0.221300
     13 C9          3.0220   -1.2580    0.0680 ca        1 4PO     -0.221300
     14 C10         1.6410   -1.4130    0.0960 ca        1 4PO     -0.080500
     15 H1         -3.0950   -0.1470    2.2450 hc        1 4PO      0.055700
     16 H1A        -4.3860   -1.0960    1.3950 hc        1 4PO      0.055700
     17 H1B        -2.6880   -1.7260    1.4430 hc        1 4PO      0.055700
     18 H2         -4.4160   -1.2740   -1.0890 hc        1 4PO      0.055700
     19 H2A        -3.1480   -0.4580   -2.0960 hc        1 4PO      0.055700
     20 H2B        -2.7190   -1.9070   -1.0880 hc        1 4PO      0.055700
     21 H3         -3.8090    1.8420    0.8360 hc        1 4PO      0.055700
     22 H3A        -3.8310    1.7130   -0.9690 hc        1 4PO      0.055700
     23 H3B        -5.0420    0.7800    0.0200 hc        1 4PO      0.055700
     24 H5         -0.9760   -1.5660    0.1390 h4        1 4PO      0.026800
     25 H7          0.7750    1.8870   -0.1300 ha        1 4PO      0.169000
     26 H8          3.2780    2.0760   -0.1730 h4        1 4PO      0.185500
     27 H9          3.7190   -2.1120    0.1210 h4        1 4PO      0.185500
     28 H10         1.2280   -2.4300    0.1740 ha        1 4PO      0.169000
@<TRIPOS>BOND
     1    1    8 1   
     2    1   15 1   
     3    1   16 1   
     4    1   17 1   
     5    2    3 1   
     6    2    8 1   
     7    2    9 2   
     8    4    8 1   
     9    4   18 1   
    10    4   19 1   
    11    4   20 1   
    12    5    6 1   
    13    5   12 1   
    14    5   13 2   
    15    7    8 1   
    16    7   21 1   
    17    7   22 1   
    18    7   23 1   
    19    9   10 1   
    20    9   24 1   
    21   10   11 ar  
    22   10   14 ar  
    23   11   12 ar  
    24   11   25 1   
    25   12   26 1   
    26   13   14 ar  
    27   13   27 1   
    28   14   28 1   
@<TRIPOS>SUBSTRUCTURE
     1 4PO         1 TEMP              0 ****  ****    0 ROOT
