@<TRIPOS>MOLECULE
4PP
   53    55     1     0     0
SMALL
bcc


@<TRIPOS>ATOM
      1 C1C        -0.1530   -0.3130    0.1790 c         1 4PP      0.924600
      2 O2         -0.8470    0.5760   -0.3750 o         1 4PP     -0.814800
      3 O3         -0.5870   -1.2550    0.8960 o         1 4PP     -0.814800
      4 N1P         2.7520    3.2020    8.1420 nb        1 4PP     -0.711000
      5 C2P         1.9420    4.0220    7.4410 ca        1 4PP      0.421700
      6 C3P         1.6240    3.8500    6.0910 ca        1 4PP     -0.320300
      7 C4P         2.1860    2.7510    5.3860 ca        1 4PP      0.205600
      8 C5P         3.0280    1.8790    6.1230 ca        1 4PP     -0.320300
      9 C6P         3.2710    2.1550    7.4740 ca        1 4PP      0.421700
     10 N1          1.9740    2.6080    4.0220 nh        1 4PP     -0.741600
     11 C1          1.4010   -0.2130   -0.0250 c3        1 4PP     -0.187400
     12 C2          2.0660   -0.0660    1.3350 c3        1 4PP     -0.046400
     13 C3          1.7030    1.2660    1.9560 c3        1 4PP     -0.093400
     14 C4          2.2480    1.3430    3.3810 c3        1 4PP      0.192800
     15 N1A         7.3620   -4.2280   -6.3910 n2        1 4PP     -0.691100
     16 N2A         7.9710   -3.2460   -4.1840 n4        1 4PP     -0.899600
     17 C1A         7.0570   -3.5030   -5.4020 ce        1 4PP      0.651800
     18 C1D         2.8560   -3.6770   -2.1070 ca        1 4PP     -0.141000
     19 C2D         2.1110   -3.8210   -0.9380 ca        1 4PP     -0.140000
     20 C3D         1.6350   -2.7010   -0.2610 ca        1 4PP     -0.082000
     21 C4D         1.9050   -1.4090   -0.7460 ca        1 4PP     -0.004300
     22 C5D         2.6260   -1.2690   -1.9360 ca        1 4PP     -0.124000
     23 C6D         3.1060   -2.3970   -2.6180 cp        1 4PP     -0.118000
     24 C1B         4.2180   -1.1070   -5.9790 ca        1 4PP     -0.122000
     25 C2B         3.4690   -1.2860   -4.8200 ca        1 4PP     -0.069000
     26 C3B         3.8690   -2.2220   -3.8460 cp        1 4PP      0.038000
     27 C4B         5.0300   -2.9710   -4.0630 ca        1 4PP     -0.137000
     28 C5B         5.7980   -2.7530   -5.2160 ca        1 4PP     -0.225900
     29 C6B         5.3910   -1.8340   -6.1880 ca        1 4PP     -0.087000
     30 H5P         3.4870    1.0000    5.6530 ha        1 4PP      0.140500
     31 H6P         3.9260    1.4900    8.0650 h4        1 4PP      0.011600
     32 H1N         1.1810    3.0960    3.6630 hn        1 4PP      0.417800
     33 H1          1.5980    0.7100   -0.6350 hc        1 4PP      0.051700
     34 H21         3.1800   -0.1470    1.2370 hc        1 4PP      0.031200
     35 H22         1.7120   -0.9030    1.9960 hc        1 4PP      0.031200
     36 H31         0.5830    1.3710    1.9530 hc        1 4PP      0.064200
     37 H32         2.1210    2.1020    1.3360 hc        1 4PP      0.064200
     38 H41         1.8180    0.4860    3.9800 h1        1 4PP      0.035700
     39 H42         3.3680    1.2080    3.3570 h1        1 4PP      0.035700
     40 HN1         8.2330   -4.6990   -6.4920 hn        1 4PP      0.451400
     41 HN21        8.8220   -3.8070   -4.1910 hn        1 4PP      0.454800
     42 HN22        7.4360   -3.4500   -3.3320 hn        1 4PP      0.454800
     43 H1D         3.2130   -4.5660   -2.6460 ha        1 4PP      0.108000
     44 H2D         1.8830   -4.8270   -0.5570 ha        1 4PP      0.130000
     45 H3D         0.9920   -2.7940    0.6370 ha        1 4PP      0.201000
     46 H5D         2.8150   -0.2630   -2.3400 ha        1 4PP      0.128000
     47 H1B         3.8830   -0.3870   -6.7440 ha        1 4PP      0.158000
     48 H2B         2.5460   -0.7030   -4.6540 ha        1 4PP      0.179000
     49 H4B         5.3020   -3.7450   -3.3290 ha        1 4PP      0.133000
     50 H6B         5.9780   -1.6900   -7.1070 ha        1 4PP      0.146000
     51 H3P         0.9520    4.5580    5.5890 ha        1 4PP      0.140500
     52 H2A3        8.2170   -2.2520   -4.1750 hn        1 4PP      0.454800
     53 H2P         1.5190    4.8720    8.0070 h4        1 4PP      0.011600
@<TRIPOS>BOND
     1    1    2 1   
     2    1    3 1   
     3    1   11 1   
     4    4    5 ar  
     5    4    9 ar  
     6    5    6 ar  
     7    5   53 1   
     8    6    7 ar  
     9    6   51 1   
    10    7    8 ar  
    11    7   10 1   
    12    8    9 ar  
    13    8   30 1   
    14    9   31 1   
    15   10   14 1   
    16   10   32 1   
    17   11   12 1   
    18   11   21 1   
    19   11   33 1   
    20   12   13 1   
    21   12   34 1   
    22   12   35 1   
    23   13   14 1   
    24   13   36 1   
    25   13   37 1   
    26   14   38 1   
    27   14   39 1   
    28   15   17 2   
    29   15   40 1   
    30   16   17 1   
    31   16   41 1   
    32   16   42 1   
    33   16   52 1   
    34   17   28 1   
    35   18   19 ar  
    36   18   23 ar  
    37   18   43 1   
    38   19   20 ar  
    39   19   44 1   
    40   20   21 ar  
    41   20   45 1   
    42   21   22 ar  
    43   22   23 ar  
    44   22   46 1   
    45   23   26 1   
    46   24   25 ar  
    47   24   29 ar  
    48   24   47 1   
    49   25   26 ar  
    50   25   48 1   
    51   26   27 ar  
    52   27   28 ar  
    53   27   49 1   
    54   28   29 ar  
    55   29   50 1   
@<TRIPOS>SUBSTRUCTURE
     1 4PP         1 TEMP              0 ****  ****    0 ROOT
