@<TRIPOS>MOLECULE
4PP
   54    56     1     0     0
SMALL
bcc


@<TRIPOS>ATOM
      1 C1C         1.5180    0.5250    1.2360 c         1 4PP      0.903600
      2 O2          1.0540   -0.4140    1.9580 o         1 4PP     -0.839300
      3 O3          0.9310    1.6440    1.1420 o         1 4PP     -0.839300
      4 N1P        -0.4650    2.5520    7.5060 nb        1 4PP     -0.628000
      5 C2P         0.1230    3.5010    6.7530 ca        1 4PP      0.419200
      6 C3P         0.8010    3.2360    5.5490 ca        1 4PP     -0.229300
      7 C4P         0.8670    1.9000    5.1130 ca        1 4PP      0.029600
      8 C5P         0.2530    0.8950    5.8800 ca        1 4PP     -0.229300
      9 C6P        -0.3980    1.2820    7.0680 ca        1 4PP      0.419200
     10 N1          1.5360    1.5600    3.8650 n4        1 4PP     -0.681400
     11 C1          2.9380    0.4100    0.6600 c3        1 4PP     -0.140400
     12 C2          3.8930    0.5260    1.8500 c3        1 4PP     -0.069400
     13 C3          3.7150    1.8380    2.5940 c3        1 4PP     -0.105400
     14 C4          3.0200    1.7210    3.9490 c3        1 4PP      0.127800
     15 N1A         7.6700   -3.9450   -5.5580 n2        1 4PP     -0.675100
     16 N2A         5.7790   -4.5650   -7.0560 n4        1 4PP     -0.896600
     17 C1A         6.4840   -3.7590   -5.9490 ce        1 4PP      0.641800
     18 C1D         3.5360   -3.1990   -1.5880 ca        1 4PP     -0.119000
     19 C2D         3.0640   -3.2640   -0.2800 ca        1 4PP     -0.132000
     20 C3D         2.8670   -2.0980    0.4580 ca        1 4PP     -0.078000
     21 C4D         3.1570   -0.8480   -0.1070 ca        1 4PP     -0.044300
     22 C5D         3.6260   -0.7840   -1.4230 ca        1 4PP     -0.104000
     23 C6D         3.8090   -1.9550   -2.1730 cp        1 4PP     -0.092000
     24 C1B         4.2200   -0.7610   -5.7250 ca        1 4PP     -0.111000
     25 C2B         3.7980   -0.8420   -4.3980 ca        1 4PP     -0.074000
     26 C3B         4.2560   -1.8720   -3.5600 cp        1 4PP      0.013000
     27 C4B         5.1430   -2.8280   -4.0790 ca        1 4PP     -0.075000
     28 C5B         5.5430   -2.7480   -5.4160 ca        1 4PP     -0.220900
     29 C6B         5.0950   -1.7110   -6.2450 ca        1 4PP     -0.127000
     30 H5P         0.2560   -0.1620    5.5720 ha        1 4PP      0.168500
     31 H6P        -0.8970    0.5240    7.7020 h4        1 4PP      0.048100
     32 H1N         1.3020    0.5710    3.5910 hn        1 4PP      0.508300
     33 H1          3.1010    1.2930   -0.0210 hc        1 4PP      0.068700
     34 H21         3.7200   -0.3450    2.5370 hc        1 4PP      0.051200
     35 H22         4.9480    0.4580    1.4780 hc        1 4PP      0.051200
     36 H31         4.7270    2.2770    2.8100 hc        1 4PP      0.079200
     37 H32         3.1630    2.5710    1.9420 hc        1 4PP      0.079200
     38 H41         3.4250    0.8380    4.5200 hx        1 4PP      0.082700
     39 H42         3.2260    2.6580    4.5420 hx        1 4PP      0.082700
     40 HN1         8.2810   -4.6450   -5.9170 hn        1 4PP      0.460400
     41 HN21        5.0370   -5.1240   -6.6260 hn        1 4PP      0.455467
     42 HN22        5.3450   -3.9030   -7.7090 hn        1 4PP      0.455467
     43 H1D         3.6720   -4.1230   -2.1670 ha        1 4PP      0.116000
     44 H2D         2.8300   -4.2400    0.1700 ha        1 4PP      0.139000
     45 H3D         2.4390   -2.1380    1.4760 ha        1 4PP      0.179000
     46 H5D         3.8490    0.1950   -1.8750 ha        1 4PP      0.133000
     47 H1B         3.8630    0.0620   -6.3640 ha        1 4PP      0.161000
     48 H2B         3.0930   -0.0910   -3.9990 ha        1 4PP      0.171000
     49 H4B         5.5310   -3.6240   -3.4240 ha        1 4PP      0.157000
     50 H6B         5.4480   -1.6190   -7.2830 ha        1 4PP      0.131000
     51 H3P         1.2480    4.0600    4.9760 ha        1 4PP      0.168500
     52 H12         1.1570    2.1450    3.0830 hn        1 4PP      0.508300
     53 H2A3        6.4090   -5.1810   -7.5700 hn        1 4PP      0.455467
     54 H2P         0.0440    4.5380    7.1330 h4        1 4PP      0.048100
@<TRIPOS>BOND
     1    1    2 1   
     2    1    3 1   
     3    1   11 1   
     4    4    5 ar  
     5    4    9 ar  
     6    5    6 ar  
     7    5   54 1   
     8    6    7 ar  
     9    6   51 1   
    10    7    8 ar  
    11    7   10 1   
    12    8    9 ar  
    13    8   30 1   
    14    9   31 1   
    15   10   14 1   
    16   10   32 1   
    17   10   52 1   
    18   11   12 1   
    19   11   21 1   
    20   11   33 1   
    21   12   13 1   
    22   12   34 1   
    23   12   35 1   
    24   13   14 1   
    25   13   36 1   
    26   13   37 1   
    27   14   38 1   
    28   14   39 1   
    29   15   17 2   
    30   15   40 1   
    31   16   17 1   
    32   16   41 1   
    33   16   42 1   
    34   16   53 1   
    35   17   28 1   
    36   18   19 ar  
    37   18   23 ar  
    38   18   43 1   
    39   19   20 ar  
    40   19   44 1   
    41   20   21 ar  
    42   20   45 1   
    43   21   22 ar  
    44   22   23 ar  
    45   22   46 1   
    46   23   26 1   
    47   24   25 ar  
    48   24   29 ar  
    49   24   47 1   
    50   25   26 ar  
    51   25   48 1   
    52   26   27 ar  
    53   27   28 ar  
    54   27   49 1   
    55   28   29 ar  
    56   29   50 1   
@<TRIPOS>SUBSTRUCTURE
     1 4PP         1 TEMP              0 ****  ****    0 ROOT
