@<TRIPOS>MOLECULE
4PP
   52    43     1     0     0
SMALL
bcc


@<TRIPOS>ATOM
      1 C1C        -3.0930    0.3490    0.1570 c1        1 4PP      0.339000
      2 O2         -3.6870   -0.6750    0.5970 o         1 4PP     -0.575000
      3 O3         -3.7590    1.3050   -0.3220 os        1 4PP     -0.559000
      4 N1P         0.0680    4.0350    8.1730 n1        1 4PP     -0.196000
      5 C2P        -0.4710    2.8020    7.9590 c1        1 4PP     -0.137250
      6 C3P        -0.8810    2.4330    6.6820 c1        1 4PP     -0.137250
      7 C4P        -0.7430    3.3070    5.6430 c1        1 4PP      0.133000
      8 C5P        -0.2020    4.5440    5.8590 c1        1 4PP     -0.264000
      9 C6P         0.2070    4.9090    7.1370 c1        1 4PP     -0.045000
     10 N1         -1.2790    2.9710    4.3410 n3        1 4PP     -0.297000
     11 C1         -1.5960    0.3940    0.1340 c3        1 4PP     -0.163000
     12 C2         -1.0630    0.3920    1.5640 c3        1 4PP     -0.128000
     13 C3         -1.5470    1.6600    2.2960 c3        1 4PP     -0.172000
     14 C4         -0.8250    1.7770    3.6550 c3        1 4PP     -0.043000
     15 N1A         4.4730   -0.8220   -5.5860 n1        1 4PP     -0.288000
     16 N2A         4.5730   -3.1560   -5.9820 n3        1 4PP     -0.393000
     17 C1A         3.8490   -1.9720   -5.6580 c2        1 4PP      0.125000
     18 C1D        -0.1500   -3.0470   -2.0020 c1        1 4PP     -0.125500
     19 C2D        -0.7560   -3.2030   -0.7590 c1        1 4PP     -0.137250
     20 C3D        -1.2130   -2.0870   -0.0620 c1        1 4PP     -0.137250
     21 C4D        -1.0630   -0.8200   -0.6080 c1        1 4PP     -0.015000
     22 C5D        -0.4550   -0.6640   -1.8530 c1        1 4PP     -0.125000
     23 C6D        -0.0000   -1.7770   -2.5480 c1        1 4PP     -0.041000
     24 C1B         0.1030   -2.2930   -6.2100 c1        1 4PP     -0.140000
     25 C2B        -0.3830   -2.1430   -4.9190 c1        1 4PP     -0.125500
     26 C3B         0.4970   -1.9430   -3.8660 c1        1 4PP     -0.041000
     27 C4B         1.8640   -1.8930   -4.1030 c1        1 4PP     -0.092000
     28 C5B         2.3500   -2.0430   -5.3950 c2        1 4PP     -0.069000
     29 C6B         1.4700   -2.2430   -6.4480 c2        1 4PP     -0.126000
     30 H2P        -0.5690    2.1780    8.7020 ha        1 4PP      0.148500
     31 H3P        -1.2660    1.5520    6.5300 ha        1 4PP      0.148500
     32 H5P        -0.1760    5.1990    5.1340 ha        1 4PP      0.138000
     33 H6P         0.5950    5.7970    7.2930 ha        1 4PP      0.143000
     34 H1N        -1.9380    3.4850    3.9730 hn        1 4PP      0.215000
     35 H1         -1.3030    1.2070   -0.3210 hc        1 4PP      0.088000
     36 H21        -0.0840    0.3780    1.5470 hc        1 4PP      0.074000
     37 H22        -1.3930   -0.4030    2.0340 hc        1 4PP      0.074000
     38 H31        -1.3460    2.4460    1.7520 hc        1 4PP      0.102000
     39 H32        -2.5120    1.6030    2.4450 hc        1 4PP      0.102000
     40 H41        -1.0270    0.9910    4.2010 h1        1 4PP      0.077500
     41 H42         0.1390    1.8330    3.5080 h1        1 4PP      0.077500
     42 HN1         5.3740   -0.7790   -5.7440 DU        1 4PP      0.128000
     43 HN21        5.4890   -3.1510   -5.9660 hn        1 4PP      0.185500
     44 HN22        4.1240   -3.9130   -6.2300 hn        1 4PP      0.185500
     45 H1D         0.2460   -3.8210   -2.4510 ha        1 4PP      0.129000
     46 H2D        -0.9250   -4.0980   -0.4080 ha        1 4PP      0.148500
     47 H3D        -1.6020   -2.1920    0.8260 ha        1 4PP      0.148500
     48 H5D        -0.3170    0.2290   -2.2190 ha        1 4PP      0.126000
     49 H1B        -0.5220   -2.3970   -6.9600 ha        1 4PP      0.127000
     50 H2B        -1.3430   -2.2200   -4.7470 ha        1 4PP      0.129000
     51 H4B         2.4870   -1.7870   -3.3550 ha        1 4PP      0.148000
     52 H6B         1.5790   -2.2380   -7.4230 ha        1 4PP      0.132000
@<TRIPOS>BOND
     1    1    2 1   
     2    1   11 1   
     3    4    9 1   
     4    5    6 1   
     5    5   30 1   
     6    6   31 1   
     7    7    8 1   
     8    7   10 1   
     9    8   32 1   
    10    9   33 1   
    11   10   14 1   
    12   10   34 1   
    13   11   12 1   
    14   11   21 1   
    15   11   35 1   
    16   12   13 1   
    17   12   36 1   
    18   12   37 1   
    19   13   14 1   
    20   13   38 1   
    21   13   39 1   
    22   14   40 1   
    23   14   41 1   
    24   15   17 1   
    25   16   17 1   
    26   16   43 1   
    27   16   44 1   
    28   17   28 1   
    29   18   23 1   
    30   18   45 1   
    31   19   20 1   
    32   19   46 1   
    33   20   47 1   
    34   21   22 1   
    35   22   48 1   
    36   24   29 1   
    37   24   49 1   
    38   25   26 1   
    39   25   50 1   
    40   27   28 1   
    41   27   51 1   
    42   28   29 1   
    43   29   52 1   
@<TRIPOS>SUBSTRUCTURE
     1 4PP         1 TEMP              0 ****  ****    0 ROOT
