@<TRIPOS>MOLECULE
4PP
   52    54     1     0     0
SMALL
bcc


@<TRIPOS>ATOM
      1 C1C        -2.9180    0.0660   -1.2560 c         1 4PP      0.919600
      2 O2         -3.1840    1.2510   -1.6040 o         1 4PP     -0.831300
      3 O3         -3.6950   -0.9160   -1.3960 o         1 4PP     -0.831300
      4 N1P         2.2560    0.4320   -8.7520 nb        1 4PP     -0.721000
      5 C2P         1.2930   -0.5120   -8.7720 ca        1 4PP      0.420700
      6 C3P         0.6030   -0.9590   -7.6420 ca        1 4PP     -0.324300
      7 C4P         0.9270   -0.4050   -6.3720 ca        1 4PP      0.214600
      8 C5P         1.9320    0.5980   -6.3480 ca        1 4PP     -0.324300
      9 C6P         2.5510    0.9630   -7.5490 ca        1 4PP      0.420700
     10 N1          0.3350   -0.8920   -5.2210 nh        1 4PP     -0.741600
     11 C1         -1.5070   -0.2330   -0.6570 c3        1 4PP     -0.167400
     12 C2         -0.4470    0.1820   -1.6670 c3        1 4PP     -0.049400
     13 C3         -0.5500   -0.6680   -2.9170 c3        1 4PP     -0.093400
     14 C4          0.4010   -0.1400   -3.9880 c3        1 4PP      0.193800
     15 N1A         3.3880    0.6910    6.6440 n2        1 4PP     -0.848100
     16 N2A         1.9460    0.0520    8.4090 nh        1 4PP     -0.894800
     17 C1A         2.2750    0.1430    7.0370 ce        1 4PP      0.641800
     18 C1D        -0.8700    1.7780    3.0860 ca        1 4PP     -0.139000
     19 C2D        -1.3630    2.4790    1.9870 ca        1 4PP     -0.147000
     20 C3D        -1.5780    1.8320    0.7730 ca        1 4PP     -0.102000
     21 C4D        -1.2950    0.4640    0.6420 ca        1 4PP     -0.021300
     22 C5D        -0.8130   -0.2390    1.7520 ca        1 4PP     -0.125000
     23 C6D        -0.6000    0.4080    2.9770 cp        1 4PP     -0.077000
     24 C1B        -0.1060   -2.3610    5.4800 ca        1 4PP     -0.140000
     25 C2B        -0.5680   -1.6470    4.3770 ca        1 4PP     -0.110000
     26 C3B        -0.1100   -0.3430    4.1310 cp        1 4PP     -0.004000
     27 C4B         0.8200    0.2270    5.0110 ca        1 4PP     -0.115000
     28 C5B         1.2750   -0.4900    6.1210 ca        1 4PP     -0.207900
     29 C6B         0.8130   -1.7870    6.3580 ca        1 4PP     -0.114000
     30 H5P         2.2270    1.0810   -5.4090 ha        1 4PP      0.141500
     31 H6P         3.3370    1.7390   -7.5510 h4        1 4PP      0.007100
     32 H1N        -0.5070   -1.4110   -5.3550 hn        1 4PP      0.419800
     33 H1         -1.4460   -1.3450   -0.4970 hc        1 4PP      0.049700
     34 H21        -0.6110    1.2620   -1.9270 hc        1 4PP      0.033700
     35 H22         0.5770    0.0810   -1.2230 hc        1 4PP      0.033700
     36 H31        -0.3030   -1.7340   -2.6730 hc        1 4PP      0.063200
     37 H32        -1.6130   -0.6410   -3.2810 hc        1 4PP      0.063200
     38 H41         0.1700    0.9500   -4.1760 h1        1 4PP      0.038200
     39 H42         1.4620   -0.1990   -3.6080 h1        1 4PP      0.038200
     40 HN1         3.5510    0.6130    5.6630 hn        1 4PP      0.397400
     41 HN21        2.4750    0.6430    9.0130 hn        1 4PP      0.392800
     42 HN22        0.9650    0.1000    8.5740 hn        1 4PP      0.392800
     43 H1D        -0.7110    2.2950    4.0430 ha        1 4PP      0.113000
     44 H2D        -1.5920    3.5500    2.0830 ha        1 4PP      0.118000
     45 H3D        -2.0090    2.3620   -0.0980 ha        1 4PP      0.189000
     46 H5D        -0.5990   -1.3150    1.6600 ha        1 4PP      0.126000
     47 H1B        -0.4700   -3.3820    5.6620 ha        1 4PP      0.129000
     48 H2B        -1.3020   -2.1010    3.6920 ha        1 4PP      0.149000
     49 H4B         1.1900    1.2470    4.8200 ha        1 4PP      0.140000
     50 H6B         1.1770   -2.3540    7.2270 ha        1 4PP      0.137000
     51 H2P         1.0590   -0.9320   -9.7660 h4        1 4PP      0.007100
     52 H3P        -0.1730   -1.7280   -7.7390 ha        1 4PP      0.141500
@<TRIPOS>BOND
     1    1    2 1   
     2    1    3 1   
     3    1   11 1   
     4    4    5 ar  
     5    4    9 ar  
     6    5    6 ar  
     7    5   51 1   
     8    6    7 ar  
     9    6   52 1   
    10    7    8 ar  
    11    7   10 1   
    12    8    9 ar  
    13    8   30 1   
    14    9   31 1   
    15   10   14 1   
    16   10   32 1   
    17   11   12 1   
    18   11   21 1   
    19   11   33 1   
    20   12   13 1   
    21   12   34 1   
    22   12   35 1   
    23   13   14 1   
    24   13   36 1   
    25   13   37 1   
    26   14   38 1   
    27   14   39 1   
    28   15   17 2   
    29   15   40 1   
    30   16   17 1   
    31   16   41 1   
    32   16   42 1   
    33   17   28 1   
    34   18   19 ar  
    35   18   23 ar  
    36   18   43 1   
    37   19   20 ar  
    38   19   44 1   
    39   20   21 ar  
    40   20   45 1   
    41   21   22 ar  
    42   22   23 ar  
    43   22   46 1   
    44   23   26 1   
    45   24   25 ar  
    46   24   29 ar  
    47   24   47 1   
    48   25   26 ar  
    49   25   48 1   
    50   26   27 ar  
    51   27   28 ar  
    52   27   49 1   
    53   28   29 ar  
    54   29   50 1   
@<TRIPOS>SUBSTRUCTURE
     1 4PP         1 TEMP              0 ****  ****    0 ROOT
