@<TRIPOS>MOLECULE
4PR
   82    84     1     0     0
SMALL
bcc


@<TRIPOS>ATOM
      1 C1          0.3030   -0.7820   -0.7460 c3        1 4PR     -0.103100
      2 C2          1.6010   -0.2790   -0.1680 c3        1 4PR     -0.075400
      3 C3          1.4580    0.0380    1.3100 c3        1 4PR     -0.103400
      4 C4          2.7640    0.5610    1.8690 c3        1 4PR     -0.116400
      5 C5          2.8190    0.5040    3.4000 c3        1 4PR      0.148500
      6 N1          1.7920    1.4090    4.0080 ny        1 4PR     -0.650800
      7 C6          1.4650    1.0800    5.4450 c         1 4PR      0.663100
      8 O1          2.2850    0.5580    6.1880 o         1 4PR     -0.458000
      9 O2          0.1680    1.3070    5.6460 os        1 4PR     -0.396900
     10 C7         -0.3730    1.8760    6.8820 c3        1 4PR      0.149100
     11 C8         -1.7720    2.3260    6.3620 c3        1 4PR      0.031000
     12 N2         -1.6310    3.7050    5.8890 n         1 4PR     -0.368800
     13 C9         -0.5870    4.3160    6.7240 c3        1 4PR      0.026000
     14 C10         0.2670    3.1890    7.3910 c3        1 4PR     -0.099000
     15 C11         0.0890    3.2330    8.9020 c3        1 4PR     -0.101600
     16 C12         1.7270    3.3750    7.0540 c3        1 4PR     -0.101600
     17 C13        -1.2870    3.7580    4.4580 c         1 4PR      0.752100
     18 O3         -0.1990    3.2820    4.0250 o         1 4PR     -0.741100
     19 N3         -2.2140    4.3340    3.6230 ns        1 4PR     -0.381100
     20 C14        -2.0040    4.4540    2.2520 cc        1 4PR     -0.254000
     21 C15        -1.8870    3.3520    1.2760 cc        1 4PR      0.323600
     22 C16        -1.9960    1.9190    1.5990 c3        1 4PR     -0.129400
     23 N4         -1.6900    3.8890    0.0580 nd        1 4PR     -0.337300
     24 O4         -1.6840    5.2050    0.1520 os        1 4PR     -0.088100
     25 C17        -1.8690    5.6130    1.4860 cd        1 4PR      0.311000
     26 C18        -1.9210    7.0500    1.7440 c3        1 4PR     -0.156400
     27 C19         4.2410    0.8720    3.9170 c3        1 4PR      0.063100
     28 O5          4.4150    2.2380    3.6200 oh        1 4PR     -0.573800
     29 C20         5.3540    0.0720    3.2330 c         1 4PR      0.483100
     30 O6          6.2840    0.6030    2.6460 o         1 4PR     -0.368100
     31 N5          5.3500   -1.4130    3.3780 ny        1 4PR     -0.681800
     32 C21         6.1600   -2.1500    2.2970 c3        1 4PR      0.214800
     33 C22         5.4890   -2.0390    0.9400 c3        1 4PR     -0.134100
     34 C23         6.3440   -3.5610    2.7500 ca        1 4PR     -0.210300
     35 C24         5.2940   -4.4880    2.6760 ca        1 4PR     -0.101000
     36 C25         5.5040   -5.8090    3.0590 ca        1 4PR     -0.113000
     37 C26         6.7610   -6.2160    3.5160 ca        1 4PR     -0.063000
     38 C27         7.8080   -5.2950    3.5920 ca        1 4PR     -0.113000
     39 C28         7.6020   -3.9690    3.2140 ca        1 4PR     -0.101000
     40 H11         0.4370   -1.0220   -1.8290 hc        1 4PR      0.053367
     41 H12        -0.0370   -1.7060   -0.2200 hc        1 4PR      0.053367
     42 H13        -0.4980   -0.0070   -0.6570 hc        1 4PR      0.053367
     43 H21A        1.9260    0.6440   -0.7180 hc        1 4PR      0.051200
     44 H22         2.4020   -1.0520   -0.3080 hc        1 4PR      0.051200
     45 H31         0.6390    0.8000    1.4330 hc        1 4PR      0.053700
     46 H32         1.1430   -0.8890    1.8590 hc        1 4PR      0.053700
     47 H41         3.6120   -0.0690    1.4790 hc        1 4PR      0.088200
     48 H42         2.9490    1.6120    1.5140 hc        1 4PR      0.088200
     49 H5          2.5720   -0.5410    3.7580 hx        1 4PR      0.096700
     50 HN1         0.9080    1.3830    3.4570 hn        1 4PR      0.507800
     51 H7         -0.3830    1.0550    7.6400 h1        1 4PR      0.113700
     52 H81        -2.4860    2.3310    7.2330 h1        1 4PR      0.106700
     53 H82        -2.1610    1.6400    5.5650 h1        1 4PR      0.106700
     54 H91         0.0650    5.0100    6.1300 h1        1 4PR      0.091200
     55 H92        -1.1200    4.9140    7.5140 h1        1 4PR      0.091200
     56 H111        0.7010    2.4370    9.3910 hc        1 4PR      0.056700
     57 H112       -0.9840    3.0850    9.1760 hc        1 4PR      0.056700
     58 H113        0.4210    4.2250    9.2940 hc        1 4PR      0.056700
     59 H121        2.0860    4.3450    7.4850 hc        1 4PR      0.056700
     60 H122        1.8800    3.4190    5.9480 hc        1 4PR      0.056700
     61 H123        2.3450    2.5540    7.4920 hc        1 4PR      0.056700
     62 HN3        -3.0500    4.7360    3.9960 hn        1 4PR      0.361500
     63 H161       -3.0580    1.6730    1.8550 hc        1 4PR      0.055033
     64 H162       -1.3500    1.6890    2.4850 hc        1 4PR      0.055033
     65 H163       -1.6830    1.2720    0.7410 hc        1 4PR      0.055033
     66 H181       -1.3490    7.6130    0.9630 hc        1 4PR      0.083367
     67 H182       -2.9860    7.4020    1.7170 hc        1 4PR      0.083367
     68 H183       -1.4920    7.2780    2.7510 hc        1 4PR      0.083367
     69 H19         4.3130    0.6900    5.0330 h1        1 4PR      0.120700
     70 HO5         5.3020    2.5210    3.9010 ho        1 4PR      0.473000
     71 HN5         4.3890   -1.7650    3.3540 hn        1 4PR      0.461800
     72 H21         7.1620   -1.6170    2.2560 hx        1 4PR      0.127700
     73 H221        5.4850   -0.9810    0.5800 hc        1 4PR      0.082367
     74 H222        4.4460   -2.4390    0.9410 hc        1 4PR      0.082367
     75 H223        6.0890   -2.6510    0.2140 hc        1 4PR      0.082367
     76 H24         4.3090   -4.1850    2.2920 ha        1 4PR      0.137000
     77 H25         4.6810   -6.5400    2.9910 ha        1 4PR      0.169000
     78 H26         6.9280   -7.2660    3.8090 ha        1 4PR      0.172000
     79 H27         8.8030   -5.6170    3.9430 ha        1 4PR      0.169000
     80 H28         8.4400   -3.2540    3.2610 ha        1 4PR      0.137000
     81 H124        2.1120    2.3950    3.9750 hn        1 4PR      0.507800
     82 H52         5.7620   -1.6600    4.2890 hn        1 4PR      0.461800
@<TRIPOS>BOND
     1    1    2 1   
     2    1   40 1   
     3    1   41 1   
     4    1   42 1   
     5    2    3 1   
     6    2   43 1   
     7    2   44 1   
     8    3    4 1   
     9    3   45 1   
    10    3   46 1   
    11    4    5 1   
    12    4   47 1   
    13    4   48 1   
    14    5    6 1   
    15    5   27 1   
    16    5   49 1   
    17    6    7 1   
    18    6   50 1   
    19    6   81 1   
    20    7    8 2   
    21    7    9 1   
    22    9   10 1   
    23   10   11 1   
    24   10   14 1   
    25   10   51 1   
    26   11   12 1   
    27   11   52 1   
    28   11   53 1   
    29   12   13 1   
    30   12   17 1   
    31   13   14 1   
    32   13   54 1   
    33   13   55 1   
    34   14   15 1   
    35   14   16 1   
    36   15   56 1   
    37   15   57 1   
    38   15   58 1   
    39   16   59 1   
    40   16   60 1   
    41   16   61 1   
    42   17   18 2   
    43   17   19 1   
    44   19   20 1   
    45   19   62 1   
    46   20   21 1   
    47   20   25 2   
    48   21   22 1   
    49   21   23 2   
    50   22   63 1   
    51   22   64 1   
    52   22   65 1   
    53   23   24 1   
    54   24   25 1   
    55   25   26 1   
    56   26   66 1   
    57   26   67 1   
    58   26   68 1   
    59   27   28 1   
    60   27   29 1   
    61   27   69 1   
    62   28   70 1   
    63   29   30 2   
    64   29   31 1   
    65   31   32 1   
    66   31   71 1   
    67   31   82 1   
    68   32   33 1   
    69   32   34 1   
    70   32   72 1   
    71   33   73 1   
    72   33   74 1   
    73   33   75 1   
    74   34   35 ar  
    75   34   39 ar  
    76   35   36 ar  
    77   35   76 1   
    78   36   37 ar  
    79   36   77 1   
    80   37   38 ar  
    81   37   78 1   
    82   38   39 ar  
    83   38   79 1   
    84   39   80 1   
@<TRIPOS>SUBSTRUCTURE
     1 4PR         1 TEMP              0 ****  ****    0 ROOT
