@<TRIPOS>MOLECULE
4PR
   80    82     1     0     0
SMALL
bcc


@<TRIPOS>ATOM
      1 C1          1.0320    4.0540    0.0090 c3        1 4PR     -0.093100
      2 C2         -0.0620    3.5240   -0.8820 c3        1 4PR     -0.080400
      3 C3         -0.5470    2.1670   -0.4170 c3        1 4PR     -0.078400
      4 C4         -1.6570    1.6530   -1.3050 c3        1 4PR     -0.118400
      5 C5         -2.1240    0.2500   -0.8840 c3        1 4PR      0.073700
      6 N1         -1.1830   -0.8040   -1.2120 n         1 4PR     -0.515900
      7 C6         -0.2430   -1.1910   -0.2790 c         1 4PR      0.731100
      8 O1         -0.2760   -1.0520    0.9560 o         1 4PR     -0.592000
      9 O2          0.8200   -1.8730   -0.8460 os        1 4PR     -0.437900
     10 C7          1.7220   -2.5000    0.0790 c3        1 4PR      0.156100
     11 C8          2.6890   -1.4440    0.6670 c3        1 4PR      0.044000
     12 N2          4.0410   -1.8020    0.2770 n         1 4PR     -0.439800
     13 C9          4.0410   -2.9740   -0.5920 c3        1 4PR      0.075000
     14 C10         2.5910   -3.5170   -0.7040 c3        1 4PR     -0.061000
     15 C11         2.4920   -4.8760   -0.0340 c3        1 4PR     -0.084600
     16 C12         2.1920   -3.6360   -2.1610 c3        1 4PR     -0.084600
     17 C13         5.0090   -0.8040    0.0080 c         1 4PR      0.741100
     18 O3          5.9550   -1.0400   -0.7760 o         1 4PR     -0.608100
     19 N3          4.8870    0.4460    0.6700 n         1 4PR     -0.414100
     20 C14         5.9850    1.2970    0.7620 cc        1 4PR     -0.205000
     21 C15         6.6380    2.0270   -0.3470 cc        1 4PR      0.362600
     22 C16         6.2830    1.8920   -1.7700 c3        1 4PR     -0.140400
     23 N4          7.6010    2.8090    0.1750 nd        1 4PR     -0.366300
     24 O4          7.6310    2.6650    1.4870 os        1 4PR     -0.111100
     25 C17         6.6620    1.7280    1.9020 cd        1 4PR      0.231000
     26 C18         6.5670    1.4510    3.3320 c3        1 4PR     -0.135400
     27 C19        -3.4940   -0.0610   -1.5530 c3        1 4PR      0.069100
     28 O5         -3.4360    0.1340   -2.9470 oh        1 4PR     -0.585800
     29 C20        -4.5790    0.8340   -0.9330 c         1 4PR      0.631100
     30 O6         -4.9570    1.8500   -1.5540 o         1 4PR     -0.616100
     31 N5         -5.0690    0.4860    0.2990 n         1 4PR     -0.550900
     32 C21        -6.1740    1.1840    0.9290 c3        1 4PR      0.142000
     33 C22        -5.7880    1.7720    2.2890 c3        1 4PR     -0.103100
     34 C23        -7.3810    0.2890    1.0970 ca        1 4PR     -0.111300
     35 C24        -7.3180   -0.8500    1.9070 ca        1 4PR     -0.118000
     36 C25        -8.4400   -1.6630    2.0610 ca        1 4PR     -0.128500
     37 C26        -9.6300   -1.3430    1.4070 ca        1 4PR     -0.123000
     38 C27        -9.6950   -0.2100    0.5980 ca        1 4PR     -0.128500
     39 C28        -8.5730    0.6030    0.4380 ca        1 4PR     -0.118000
     40 H11         1.3710    5.0560   -0.3500 hc        1 4PR      0.035033
     41 H12         0.6680    4.1600    1.0590 hc        1 4PR      0.035033
     42 H13         1.9090    3.3630    0.0090 hc        1 4PR      0.035033
     43 H21A       -0.9230    4.2450   -0.8930 hc        1 4PR      0.041200
     44 H22         0.3150    3.4460   -1.9360 hc        1 4PR      0.041200
     45 H31         0.3100    1.4420   -0.4120 hc        1 4PR      0.044700
     46 H32        -0.9150    2.2420    0.6410 hc        1 4PR      0.044700
     47 H41        -2.5390    2.3460   -1.2460 hc        1 4PR      0.062700
     48 H42        -1.3190    1.6390   -2.3750 hc        1 4PR      0.062700
     49 H5         -2.2690    0.2390    0.2390 h1        1 4PR      0.092700
     50 HN1        -0.9400   -0.8940   -2.1740 hn        1 4PR      0.329500
     51 H7          1.1290   -2.9910    0.8950 h1        1 4PR      0.086700
     52 H81         2.3790   -0.4240    0.3070 h1        1 4PR      0.064700
     53 H82         2.6260   -1.4570    1.7900 h1        1 4PR      0.064700
     54 H91         4.4530   -2.7250   -1.6100 h1        1 4PR      0.069200
     55 H92         4.7180   -3.7410   -0.1230 h1        1 4PR      0.069200
     56 H111        2.7960   -4.8110    1.0390 hc        1 4PR      0.044700
     57 H112        1.4440   -5.2570   -0.0880 hc        1 4PR      0.044700
     58 H113        3.1620   -5.6060   -0.5500 hc        1 4PR      0.044700
     59 H121        2.8650   -4.3600   -2.6820 hc        1 4PR      0.044700
     60 H122        1.1390   -3.9980   -2.2410 hc        1 4PR      0.044700
     61 H123        2.2640   -2.6450   -2.6700 hc        1 4PR      0.044700
     62 HN3         4.3020    0.4640    1.4810 hn        1 4PR      0.305500
     63 H161        6.4040    0.8190   -2.0750 hc        1 4PR      0.066367
     64 H162        5.2140    2.1860   -1.9160 hc        1 4PR      0.066367
     65 H163        6.9260    2.5310   -2.4240 hc        1 4PR      0.066367
     66 H181        7.1580    0.5320    3.5820 hc        1 4PR      0.063700
     67 H182        6.9730    2.3060    3.9290 hc        1 4PR      0.063700
     68 H183        5.4990    1.2800    3.6190 hc        1 4PR      0.063700
     69 H19        -3.7600   -1.1500   -1.4310 h1        1 4PR      0.100700
     70 HO5        -3.5490    1.0820   -3.1240 ho        1 4PR      0.430000
     71 HN5        -4.7890   -0.3740    0.7090 hn        1 4PR      0.314500
     72 H21        -6.4540    2.0480    0.2470 h1        1 4PR      0.094700
     73 H221       -4.9490    2.5000    2.1780 hc        1 4PR      0.046367
     74 H222       -6.6730    2.3060    2.7120 hc        1 4PR      0.046367
     75 H223       -5.4790    0.9730    3.0040 hc        1 4PR      0.046367
     76 H24        -6.3840   -1.1020    2.4310 ha        1 4PR      0.134000
     77 H25        -8.3860   -2.5560    2.7000 ha        1 4PR      0.134500
     78 H26       -10.5150   -1.9840    1.5300 ha        1 4PR      0.134000
     79 H27       -10.6320    0.0440    0.0790 ha        1 4PR      0.134500
     80 H28        -8.6280    1.4920   -0.2090 ha        1 4PR      0.134000
@<TRIPOS>BOND
     1    1    2 1   
     2    1   40 1   
     3    1   41 1   
     4    1   42 1   
     5    2    3 1   
     6    2   43 1   
     7    2   44 1   
     8    3    4 1   
     9    3   45 1   
    10    3   46 1   
    11    4    5 1   
    12    4   47 1   
    13    4   48 1   
    14    5    6 1   
    15    5   27 1   
    16    5   49 1   
    17    6    7 1   
    18    6   50 1   
    19    7    8 2   
    20    7    9 1   
    21    9   10 1   
    22   10   11 1   
    23   10   14 1   
    24   10   51 1   
    25   11   12 1   
    26   11   52 1   
    27   11   53 1   
    28   12   13 1   
    29   12   17 1   
    30   13   14 1   
    31   13   54 1   
    32   13   55 1   
    33   14   15 1   
    34   14   16 1   
    35   15   56 1   
    36   15   57 1   
    37   15   58 1   
    38   16   59 1   
    39   16   60 1   
    40   16   61 1   
    41   17   18 2   
    42   17   19 1   
    43   19   20 1   
    44   19   62 1   
    45   20   21 1   
    46   20   25 2   
    47   21   22 1   
    48   21   23 2   
    49   22   63 1   
    50   22   64 1   
    51   22   65 1   
    52   23   24 1   
    53   24   25 1   
    54   25   26 1   
    55   26   66 1   
    56   26   67 1   
    57   26   68 1   
    58   27   28 1   
    59   27   29 1   
    60   27   69 1   
    61   28   70 1   
    62   29   30 2   
    63   29   31 1   
    64   31   32 1   
    65   31   71 1   
    66   32   33 1   
    67   32   34 1   
    68   32   72 1   
    69   33   73 1   
    70   33   74 1   
    71   33   75 1   
    72   34   35 ar  
    73   34   39 ar  
    74   35   36 ar  
    75   35   76 1   
    76   36   37 ar  
    77   36   77 1   
    78   37   38 ar  
    79   37   78 1   
    80   38   39 ar  
    81   38   79 1   
    82   39   80 1   
@<TRIPOS>SUBSTRUCTURE
     1 4PR         1 TEMP              0 ****  ****    0 ROOT
