@<TRIPOS>MOLECULE
4PR
   83    85     1     0     0
SMALL
bcc


@<TRIPOS>ATOM
      1 C1          1.2420   -1.5110   -2.3520 c3        1 4PR     -0.104100
      2 C2          2.4300   -1.5870   -1.4280 c3        1 4PR     -0.076400
      3 C3          2.2410   -0.6830   -0.2210 c3        1 4PR     -0.098400
      4 C4          3.4700   -0.7190    0.6650 c3        1 4PR     -0.127400
      5 C5          3.2230   -0.1860    2.0800 c3        1 4PR      0.112500
      6 N1          2.6950    1.2340    2.0240 n4        1 4PR     -0.643800
      7 C6          1.9490    1.6450    3.2550 c         1 4PR      0.633100
      8 O1          2.0160    1.0180    4.3030 o         1 4PR     -0.433000
      9 O2          1.2050    2.7440    3.0180 os        1 4PR     -0.397900
     10 C7          0.6020    3.3970    4.1880 c3        1 4PR      0.152100
     11 C8         -0.6190    4.1640    3.6150 c3        1 4PR      0.064000
     12 N2         -0.3490    5.5850    3.7560 n         1 4PR     -0.413800
     13 C9          0.9930    5.8140    4.3140 c3        1 4PR      0.067000
     14 C10         1.5500    4.4540    4.8020 c3        1 4PR     -0.082000
     15 C11         1.4700    4.3650    6.3180 c3        1 4PR     -0.104600
     16 C12         2.9890    4.3030    4.3560 c3        1 4PR     -0.104600
     17 C13        -1.2960    6.5570    4.0150 c         1 4PR      0.634100
     18 O3         -1.0750    7.6690    4.5020 o         1 4PR     -0.451100
     19 N3         -2.7400    6.4030    3.5210 n4        1 4PR     -0.469200
     20 C14        -3.4880    5.3730    4.1670 cc        1 4PR     -0.392000
     21 C15        -3.7210    5.2240    5.6210 cc        1 4PR      0.373600
     22 C16        -3.2280    6.1190    6.6830 c3        1 4PR     -0.165400
     23 N4         -4.5190    4.1540    5.7890 nd        1 4PR     -0.287300
     24 O4         -4.8360    3.6390    4.6110 os        1 4PR     -0.053100
     25 C17        -4.2530    4.3590    3.5710 cd        1 4PR      0.372000
     26 C18        -4.5750    3.9670    2.2020 c3        1 4PR     -0.184400
     27 C19         4.5110   -0.2190    2.9590 c3        1 4PR      0.055100
     28 O5          5.3940    0.8060    2.5690 oh        1 4PR     -0.571800
     29 C20         5.2400   -1.5670    2.8850 c         1 4PR      0.497100
     30 O6          5.8870   -1.9010    1.9010 o         1 4PR     -0.378100
     31 N5          5.2570   -2.4330    4.0880 n4        1 4PR     -0.679800
     32 C21         5.2980   -3.9490    3.7680 c3        1 4PR      0.223800
     33 C22         3.9460   -4.4280    3.2760 c3        1 4PR     -0.134100
     34 C23         5.7710   -4.6520    4.9930 ca        1 4PR     -0.222300
     35 C24         4.9190   -4.8640    6.0870 ca        1 4PR     -0.096000
     36 C25         5.3720   -5.5750    7.1950 ca        1 4PR     -0.112500
     37 C26         6.6760   -6.0790    7.2200 ca        1 4PR     -0.051000
     38 C27         7.5290   -5.8650    6.1350 ca        1 4PR     -0.112500
     39 C28         7.0830   -5.1490    5.0250 ca        1 4PR     -0.096000
     40 H11         0.3070   -1.8230   -1.8280 hc        1 4PR      0.056033
     41 H12         1.3980   -2.1930   -3.2250 hc        1 4PR      0.056033
     42 H13         1.1030   -0.4730   -2.7420 hc        1 4PR      0.056033
     43 H21A        3.3590   -1.2840   -1.9810 hc        1 4PR      0.060700
     44 H22         2.5730   -2.6460   -1.0850 hc        1 4PR      0.060700
     45 H31         2.0500    0.3600   -0.5940 hc        1 4PR      0.045700
     46 H32         1.3370   -1.0190    0.3520 hc        1 4PR      0.045700
     47 H41         3.7970   -1.7920    0.7730 hc        1 4PR      0.096700
     48 H42         4.3160   -0.1640    0.1790 hc        1 4PR      0.096700
     49 H5          2.4250   -0.8090    2.5870 hx        1 4PR      0.128700
     50 HN1         3.4950    1.8830    1.9060 hn        1 4PR      0.495800
     51 H7          0.3020    2.6030    4.9220 h1        1 4PR      0.122700
     52 H81        -0.7500    3.9260    2.5210 h1        1 4PR      0.093700
     53 H82        -1.5430    3.8490    4.1770 h1        1 4PR      0.093700
     54 H91         1.6260    6.2370    3.4830 h1        1 4PR      0.111200
     55 H92         0.9660    6.5640    5.1560 h1        1 4PR      0.111200
     56 H111        1.8510    3.3760    6.6720 hc        1 4PR      0.063367
     57 H112        2.0960    5.1680    6.7810 hc        1 4PR      0.063367
     58 H113        0.4180    4.4910    6.6700 hc        1 4PR      0.063367
     59 H121        3.3920    3.3140    4.6860 hc        1 4PR      0.063367
     60 H122        3.6150    5.1070    4.8190 hc        1 4PR      0.063367
     61 H123        3.0780    4.3850    3.2460 hc        1 4PR      0.063367
     62 HN3        -2.7450    6.2470    2.5050 hn        1 4PR      0.482800
     63 H161       -2.2360    6.5540    6.4070 hc        1 4PR      0.089700
     64 H162       -3.9610    6.9570    6.8340 hc        1 4PR      0.089700
     65 H163       -3.1290    5.5800    7.6610 hc        1 4PR      0.089700
     66 H181       -3.7880    4.3140    1.4890 hc        1 4PR      0.101700
     67 H182       -4.6900    2.8540    2.1210 hc        1 4PR      0.101700
     68 H183       -5.5620    4.4230    1.9060 hc        1 4PR      0.101700
     69 H19         4.2320    0.0420    4.0280 h1        1 4PR      0.134700
     70 HO5         5.8970    0.5330    1.7810 ho        1 4PR      0.465000
     71 HN5         6.1110   -2.2220    4.6330 hn        1 4PR      0.471300
     72 H21         6.0620   -4.0550    2.9350 hx        1 4PR      0.128700
     73 H221        3.1410   -4.3000    4.0390 hc        1 4PR      0.080367
     74 H222        3.6540   -3.9120    2.3300 hc        1 4PR      0.080367
     75 H223        4.0370   -5.5270    3.0610 hc        1 4PR      0.080367
     76 H24         3.8830   -4.4940    6.0690 ha        1 4PR      0.137000
     77 H25         4.6980   -5.7520    8.0500 ha        1 4PR      0.174000
     78 H26         7.0280   -6.6530    8.0950 ha        1 4PR      0.179000
     79 H27         8.5550   -6.2700    6.1510 ha        1 4PR      0.174000
     80 H28         7.7600   -5.0020    4.1680 ha        1 4PR      0.137000
     81 H124        2.0730    1.3290    1.2040 hn        1 4PR      0.495800
     82 H321       -3.1980    7.3170    3.7200 hn        1 4PR      0.482800
     83 H52         4.4430   -2.2470    4.6810 hn        1 4PR      0.471300
@<TRIPOS>BOND
     1    1    2 1   
     2    1   40 1   
     3    1   41 1   
     4    1   42 1   
     5    2    3 1   
     6    2   43 1   
     7    2   44 1   
     8    3    4 1   
     9    3   45 1   
    10    3   46 1   
    11    4    5 1   
    12    4   47 1   
    13    4   48 1   
    14    5    6 1   
    15    5   27 1   
    16    5   49 1   
    17    6    7 1   
    18    6   50 1   
    19    6   81 1   
    20    7    8 2   
    21    7    9 1   
    22    9   10 1   
    23   10   11 1   
    24   10   14 1   
    25   10   51 1   
    26   11   12 1   
    27   11   52 1   
    28   11   53 1   
    29   12   13 1   
    30   12   17 1   
    31   13   14 1   
    32   13   54 1   
    33   13   55 1   
    34   14   15 1   
    35   14   16 1   
    36   15   56 1   
    37   15   57 1   
    38   15   58 1   
    39   16   59 1   
    40   16   60 1   
    41   16   61 1   
    42   17   18 2   
    43   17   19 1   
    44   19   20 1   
    45   19   62 1   
    46   19   82 1   
    47   20   21 1   
    48   20   25 2   
    49   21   22 1   
    50   21   23 2   
    51   22   63 1   
    52   22   64 1   
    53   22   65 1   
    54   23   24 1   
    55   24   25 1   
    56   25   26 1   
    57   26   66 1   
    58   26   67 1   
    59   26   68 1   
    60   27   28 1   
    61   27   29 1   
    62   27   69 1   
    63   28   70 1   
    64   29   30 2   
    65   29   31 1   
    66   31   32 1   
    67   31   71 1   
    68   31   83 1   
    69   32   33 1   
    70   32   34 1   
    71   32   72 1   
    72   33   73 1   
    73   33   74 1   
    74   33   75 1   
    75   34   35 ar  
    76   34   39 ar  
    77   35   36 ar  
    78   35   76 1   
    79   36   37 ar  
    80   36   77 1   
    81   37   38 ar  
    82   37   78 1   
    83   38   39 ar  
    84   38   79 1   
    85   39   80 1   
@<TRIPOS>SUBSTRUCTURE
     1 4PR         1 TEMP              0 ****  ****    0 ROOT
