@<TRIPOS>MOLECULE
4PR
   80    78     1     0     0
SMALL
bcc


@<TRIPOS>ATOM
      1 C1         -3.8100   -1.5350   -6.4640 c3        1 4PR     -0.213000
      2 C2         -2.3950   -1.4270   -5.9060 c3        1 4PR     -0.158000
      3 C3         -2.3430   -2.0680   -4.5200 c3        1 4PR     -0.159000
      4 C4         -2.3190   -0.9750   -3.4530 c3        1 4PR     -0.171000
      5 C5         -1.2180   -1.2750   -2.4430 c3        1 4PR     -0.004000
      6 N1         -1.7430   -1.1430   -1.1130 n         1 4PR     -0.341000
      7 C6         -0.9330   -1.5270    0.0300 c2        1 4PR      0.380000
      8 O1         -0.0310   -2.3250   -0.1080 o         1 4PR     -0.390000
      9 O2         -1.2950   -1.0640    1.3610 os        1 4PR     -0.276000
     10 C7         -0.1810   -0.5360    2.1210 c3        1 4PR      0.038000
     11 C8         -0.2550   -0.9410    3.3880 c3        1 4PR     -0.046000
     12 N2         -1.0420    0.1910    4.1340 n         1 4PR     -0.298000
     13 C9         -1.1080    1.3940    3.1390 c3        1 4PR     -0.048000
     14 C10        -0.2510    1.0850    2.1620 c3        1 4PR     -0.075000
     15 C11         1.1280    1.6620    2.4720 c3        1 4PR     -0.207000
     16 C12        -0.7540    1.6170    0.8410 c3        1 4PR     -0.207000
     17 C13        -1.5940    0.1350    5.4720 c2        1 4PR      0.367000
     18 O3         -1.4680   -0.8740    6.1400 o         1 4PR     -0.368000
     19 N3         -2.2180    1.2990    6.0400 n         1 4PR     -0.266000
     20 C14        -2.6960    1.2700    7.4030 c2        1 4PR     -0.069000
     21 C15        -1.9200    1.3980    8.5340 c1        1 4PR     -0.059000
     22 C16        -0.4270    1.5470    8.5660 c2        1 4PR     -0.161500
     23 N4         -2.7450    1.4480    9.6010 n2        1 4PR     -0.030000
     24 O4         -4.0500    1.3500    9.1410 os        1 4PR     -0.053000
     25 C17        -4.0130    1.2410    7.7940 c1        1 4PR     -0.057000
     26 C18        -5.2050    1.2170    6.8770 c2        1 4PR     -0.161500
     27 C19        -0.0830   -0.3060   -2.6340 c3        1 4PR      0.000000
     28 O5         -0.3980    0.5840   -3.6650 oh        1 4PR     -0.333000
     29 C20         1.1960   -1.0800   -2.9970 c2        1 4PR      0.309000
     30 O6          1.2270   -2.2900   -2.8830 o         1 4PR     -0.377000
     31 N5          2.3810   -0.3580   -3.4610 n         1 4PR     -0.349000
     32 C21         3.6890   -0.8080   -3.0810 c3        1 4PR      0.054000
     33 C22         4.1170   -0.1000   -1.8310 c3        1 4PR     -0.216000
     34 C23         4.6760   -0.5040   -4.1990 c2        1 4PR     -0.104000
     35 C24         5.4140   -1.5280   -4.7680 c2        1 4PR     -0.113000
     36 C25         6.3740   -1.2410   -5.7320 c1        1 4PR     -0.131000
     37 C26         6.5940    0.0710   -6.1220 c1        1 4PR     -0.128000
     38 C27         5.8560    1.0960   -5.5520 c1        1 4PR     -0.128000
     39 C28         4.8960    0.8100   -4.5900 c1        1 4PR     -0.121000
     40 H11        -4.4410   -1.1590   -5.8240 hc        1 4PR      0.073000
     41 H12        -3.8670   -1.0380   -7.3140 hc        1 4PR      0.073000
     42 H13        -4.0280   -2.4780   -6.6210 hc        1 4PR      0.073000
     43 H21A       -2.1440   -0.4860   -5.8390 hc        1 4PR      0.083500
     44 H22        -1.7720   -1.8890   -6.5030 hc        1 4PR      0.083500
     45 H31        -1.5390   -2.6140   -4.4440 hc        1 4PR      0.079500
     46 H32        -3.1380   -2.6350   -4.3900 hc        1 4PR      0.079500
     47 H41        -3.1870   -0.9490   -2.9910 hc        1 4PR      0.107000
     48 H42        -2.1480   -0.1130   -3.8740 hc        1 4PR      0.107000
     49 H5         -0.8940   -2.1860   -2.5760 h1        1 4PR      0.133000
     50 HN1        -2.5890   -0.8200   -0.9850 hn        1 4PR      0.237000
     51 H7          0.6600   -0.8240    1.7260 h1        1 4PR      0.133000
     52 H81        -0.7430   -1.7890    3.4460 h1        1 4PR      0.119000
     53 H82         0.6430   -1.0370    3.7670 h1        1 4PR      0.119000
     54 H91        -2.0130    1.4880    2.7790 h1        1 4PR      0.091000
     55 H92        -0.8310    2.2180    3.5840 h1        1 4PR      0.091000
     56 H111        1.4270    1.3410    3.3480 hc        1 4PR      0.085500
     57 H112        1.0780    2.6430    2.4820 hc        1 4PR      0.085500
     58 H113        1.7660    1.3740    1.7830 hc        1 4PR      0.085500
     59 H121       -0.1540    1.3330    0.1270 hc        1 4PR      0.085500
     60 H122       -1.6580    1.2650    0.6680 hc        1 4PR      0.085500
     61 H123       -0.7850    2.5960    0.8720 hc        1 4PR      0.085500
     62 HN3        -2.2550    2.0750    5.5610 hn        1 4PR      0.217000
     63 H161       -0.1260    1.6180    9.4950 ha        1 4PR      0.104667
     64 H162       -0.0130    0.7670    8.1480 ha        1 4PR      0.104667
     65 H163       -0.1700    2.3550    8.0770 ha        1 4PR      0.104667
     66 H181       -5.0470    1.8160    6.1230 ha        1 4PR      0.104667
     67 H182       -5.3440    0.3050    6.5460 ha        1 4PR      0.104667
     68 H183       -6.0020    1.5130    7.3680 ha        1 4PR      0.104667
     69 H19         0.0620    0.1910   -1.8080 h1        1 4PR      0.129000
     70 HO5        -0.2000    1.4100   -3.4130 ho        1 4PR      0.221000
     71 HN5         2.2860    0.3940   -3.9710 hn        1 4PR      0.235000
     72 H21         3.6680   -1.7700   -2.9190 h1        1 4PR      0.132000
     73 H221        3.8460    0.8440   -1.8800 hc        1 4PR      0.084000
     74 H222        5.0940   -0.1560   -1.7410 hc        1 4PR      0.084000
     75 H223        3.6930   -0.5220   -1.0550 hc        1 4PR      0.084000
     76 H24         5.2590   -2.4500   -4.4940 ha        1 4PR      0.139000
     77 H25         6.8960   -1.9650   -6.1350 ha        1 4PR      0.133000
     78 H26         7.2720    0.2740   -6.8010 ha        1 4PR      0.132000
     79 H27         6.0110    2.0200   -5.8260 ha        1 4PR      0.132000
     80 H28         4.3780    1.5310   -4.1900 ha        1 4PR      0.129000
@<TRIPOS>BOND
     1    1    2 1   
     2    1   40 1   
     3    1   41 1   
     4    1   42 1   
     5    2    3 1   
     6    2   43 1   
     7    2   44 1   
     8    3    4 1   
     9    3   45 1   
    10    3   46 1   
    11    4    5 1   
    12    4   47 1   
    13    4   48 1   
    14    5    6 1   
    15    5   27 1   
    16    5   49 1   
    17    6    7 1   
    18    6   50 1   
    19    7    8 1   
    20    7    9 1   
    21    9   10 1   
    22   10   11 1   
    23   10   14 1   
    24   10   51 1   
    25   11   12 1   
    26   11   52 1   
    27   11   53 1   
    28   12   13 1   
    29   12   17 1   
    30   13   14 1   
    31   13   54 1   
    32   13   55 1   
    33   14   15 1   
    34   14   16 1   
    35   15   56 1   
    36   15   57 1   
    37   15   58 1   
    38   16   59 1   
    39   16   60 1   
    40   16   61 1   
    41   17   18 1   
    42   17   19 1   
    43   19   20 1   
    44   19   62 1   
    45   20   21 1   
    46   20   25 1   
    47   21   23 1   
    48   22   63 1   
    49   22   64 1   
    50   22   65 1   
    51   23   24 1   
    52   24   25 1   
    53   26   66 1   
    54   26   67 1   
    55   26   68 1   
    56   27   28 1   
    57   27   29 1   
    58   27   69 1   
    59   28   70 1   
    60   29   30 1   
    61   29   31 1   
    62   31   32 1   
    63   31   71 1   
    64   32   33 1   
    65   32   34 1   
    66   32   72 1   
    67   33   73 1   
    68   33   74 1   
    69   33   75 1   
    70   34   35 1   
    71   34   39 1   
    72   35   36 1   
    73   35   76 1   
    74   36   77 1   
    75   37   38 1   
    76   37   78 1   
    77   38   79 1   
    78   39   80 1   
@<TRIPOS>SUBSTRUCTURE
     1 4PR         1 TEMP              0 ****  ****    0 ROOT
