@<TRIPOS>MOLECULE
4PS
   49    48     1     0     0
SMALL
bcc


@<TRIPOS>ATOM
      1 O19         0.0000    0.0000    0.0000 o         1 4PS     -0.348833
      2 P20         1.6100    0.0000    0.0000 p5        1 4PS      0.900900
      3 O21         2.1460    0.0000    1.5180 o         1 4PS     -0.348833
      4 O22         2.1020    1.2090   -0.6970 o         1 4PS     -0.348833
      5 O23         2.1470   -1.3140   -0.7600 os        1 4PS     -0.492800
      6 P24         2.3300   -1.7150   -2.3080 p5        1 4PS      0.967800
      7 O25         3.6850   -1.0580   -2.8750 o         1 4PS     -0.655000
      8 O26         1.1750   -1.2130   -3.0870 o         1 4PS     -0.655000
      9 O27         2.4130   -3.3170   -2.4420 os        1 4PS     -0.509200
     10 C28         2.4720   -3.9910   -3.7000 c3        1 4PS      0.316400
     11 C29         2.5430   -5.5010   -3.4680 c3        1 4PS     -0.108000
     12 C30         3.7960   -5.8320   -2.6530 c3        1 4PS      0.013900
     13 C31         1.3000   -5.9580   -2.7030 c3        1 4PS      0.013900
     14 C32         2.6060   -6.2220   -4.8160 c3        1 4PS      0.112100
     15 O33         1.3800   -6.0200   -5.5230 oh        1 4PS     -0.527800
     16 C34         3.7500   -5.6720   -5.6270 c         1 4PS      0.354100
     17 O35         3.5280   -4.9880   -6.6030 o         1 4PS     -0.456100
     18 N36         5.0210   -5.9400   -5.2680 ny        1 4PS     -0.121800
     19 C37         6.1340   -5.3200   -5.9930 c3        1 4PS      0.000800
     20 C38         7.4600   -5.7880   -5.3890 c3        1 4PS     -0.191400
     21 C39         8.6040   -5.1510   -6.1350 c         1 4PS      0.390100
     22 O40         8.3800   -4.3960   -7.0580 o         1 4PS     -0.554100
     23 N41         9.8750   -5.4190   -5.7760 ny        1 4PS     -0.291800
     24 C42        10.9870   -4.7990   -6.5010 c3        1 4PS      0.026800
     25 C43        12.3130   -5.2670   -5.8970 c3        1 4PS      0.089700
     26 S44        13.6900   -4.5000   -6.7950 sh        1 4PS     -0.478900
     27 H28         1.5850   -3.7560   -4.2770 h1        1 4PS     -0.006300
     28 H28A        3.3510   -3.6660   -4.2430 h1        1 4PS     -0.006300
     29 H30         4.2630   -6.7230   -3.0540 hc        1 4PS      0.007867
     30 H30A        3.5190   -6.0050   -1.6200 hc        1 4PS      0.007867
     31 H30B        4.4920   -5.0040   -2.7060 hc        1 4PS      0.007867
     32 H31         1.3460   -5.5880   -1.6860 hc        1 4PS      0.007867
     33 H31A        1.2610   -7.0410   -2.6910 hc        1 4PS      0.007867
     34 H31B        0.4130   -5.5700   -3.1890 hc        1 4PS      0.007867
     35 H32         2.7570   -7.2820   -4.6510 h1        1 4PS     -0.001300
     36 HO33        1.1580   -6.8040   -5.9970 ho        1 4PS      0.379000
     37 HN36        5.1150   -5.6730   -4.3080 hn        1 4PS      0.262800
     38 H37         6.0610   -4.2420   -5.9140 hx        1 4PS      0.068700
     39 H37A        6.0900   -5.6090   -7.0360 hx        1 4PS      0.068700
     40 H38         7.5030   -5.4990   -4.3460 hc        1 4PS      0.018700
     41 H38A        7.5330   -6.8660   -5.4690 hc        1 4PS      0.018700
     42 HN41        9.9950   -6.4100   -5.8500 hn        1 4PS      0.244300
     43 H42        10.9440   -5.0880   -7.5440 hx        1 4PS      0.052200
     44 H42A       10.9140   -3.7210   -6.4210 hx        1 4PS      0.052200
     45 H43        12.3570   -4.9780   -4.8540 h1        1 4PS      0.016700
     46 H43A       12.3860   -6.3450   -5.9760 h1        1 4PS      0.016700
     47 HS44       14.8410   -4.9550   -6.3140 hs        1 4PS      0.160800
     48 H362        5.1420   -6.9310   -5.3410 hn        1 4PS      0.262800
     49 H412        9.9690   -5.1510   -4.8160 hn        1 4PS      0.244300
@<TRIPOS>BOND
     1    1    2 1   
     2    2    3 1   
     3    2    4 1   
     4    2    5 1   
     5    5    6 1   
     6    6    7 1   
     7    6    8 1   
     8    6    9 1   
     9    9   10 1   
    10   10   11 1   
    11   10   27 1   
    12   10   28 1   
    13   11   12 1   
    14   11   13 1   
    15   11   14 1   
    16   12   29 1   
    17   12   30 1   
    18   12   31 1   
    19   13   32 1   
    20   13   33 1   
    21   13   34 1   
    22   14   15 1   
    23   14   16 1   
    24   14   35 1   
    25   15   36 1   
    26   16   17 2   
    27   16   18 1   
    28   18   19 1   
    29   18   37 1   
    30   18   48 1   
    31   19   20 1   
    32   19   38 1   
    33   19   39 1   
    34   20   21 1   
    35   20   40 1   
    36   20   41 1   
    37   21   22 2   
    38   21   23 1   
    39   23   24 1   
    40   23   42 1   
    41   23   49 1   
    42   24   25 1   
    43   24   43 1   
    44   24   44 1   
    45   25   26 1   
    46   25   45 1   
    47   25   46 1   
    48   26   47 1   
@<TRIPOS>SUBSTRUCTURE
     1 4PS         1 TEMP              0 ****  ****    0 ROOT
