@<TRIPOS>MOLECULE
4PV
   42    45     1     0     0
SMALL
bcc


@<TRIPOS>ATOM
      1 C1          0.5520    0.2990   -0.1700 c3        1 4PV      0.135800
      2 C2          1.8910    0.9540    0.2230 c3        1 4PV      0.176800
      3 C3          1.2040    1.0440    2.5210 c3        1 4PV      0.176800
      4 C11         3.8330   -3.3380    2.4930 ca        1 4PV     -0.132500
      5 C12         3.7500   -1.5520    4.0860 ca        1 4PV     -0.006200
      6 C13         4.3260   -1.4480    5.3710 ca        1 4PV     -0.158000
      7 C14         4.8630   -0.2510    5.8210 ca        1 4PV     -0.129000
      8 C15         4.8520    0.8740    4.9780 ca        1 4PV      0.097900
      9 C16         4.2650    0.7950    3.7040 ca        1 4PV     -0.109000
     10 C17         3.6940   -0.4000    3.2650 ca        1 4PV     -0.186500
     11 F1          5.4020    2.0390    5.3970 f         1 4PV     -0.136900
     12 C5          3.0240   -0.4510    1.9260 cc        1 4PV      0.463400
     13 N1          2.2990    0.7490    1.6040 nh        1 4PV     -0.730300
     14 C4         -0.1390    0.3790    2.1560 c3        1 4PV      0.135800
     15 N          -0.5210    0.6040    0.7680 n3        1 4PV     -0.732600
     16 C          -1.7560   -0.0630    0.4250 c3        1 4PV      0.157100
     17 N3          3.1930   -2.7820    3.6390 na        1 4PV     -0.173300
     18 C6          3.8180   -2.6190    1.2590 ca        1 4PV      0.398600
     19 N2          3.1110   -1.4260    1.0640 nd        1 4PV     -0.430000
     20 C10         4.4210   -4.6160    2.5460 ca        1 4PV     -0.136000
     21 C9          5.0060   -5.1850    1.4250 ca        1 4PV     -0.155000
     22 C8          5.0260   -4.4660    0.2180 ca        1 4PV      0.118900
     23 F           5.6150   -5.0060   -0.8770 f         1 4PV     -0.139900
     24 C7          4.4370   -3.1970    0.1320 ca        1 4PV     -0.205300
     25 H1          0.7070   -0.8130   -0.2840 h1        1 4PV      0.043950
     26 H2          0.2480    0.7090   -1.1740 h1        1 4PV      0.043950
     27 H3          1.8010    2.0720    0.0990 h1        1 4PV      0.066450
     28 H4          2.6850    0.5880   -0.4830 h1        1 4PV      0.066450
     29 H5          1.0780    2.1640    2.5060 h1        1 4PV      0.066450
     30 H6          1.4780    0.7310    3.5660 h1        1 4PV      0.066450
     31 H7          4.3550   -2.3260    6.0360 ha        1 4PV      0.140000
     32 H8          5.3060   -0.1760    6.8250 ha        1 4PV      0.153000
     33 H9          4.2600    1.6910    3.0610 ha        1 4PV      0.172000
     34 H10        -0.9380    0.8330    2.8060 h1        1 4PV      0.043950
     35 H11        -0.0780   -0.7220    2.4020 h1        1 4PV      0.043950
     36 H13        -2.5610    0.2840    1.1250 h1        1 4PV      0.033033
     37 H14        -2.0400    0.2210   -0.6220 h1        1 4PV      0.033033
     38 H15        -1.6900   -1.1850    0.4850 h1        1 4PV      0.033033
     39 H16         3.1270   -3.4510    4.3850 hn        1 4PV      0.238700
     40 H17         4.4180   -5.1860    3.4890 ha        1 4PV      0.136000
     41 H18         5.4590   -6.1860    1.4740 ha        1 4PV      0.151000
     42 H19         4.4520   -2.6610   -0.8310 ha        1 4PV      0.163000
@<TRIPOS>BOND
     1    1    2 1   
     2    1   15 1   
     3    1   25 1   
     4    1   26 1   
     5    2   13 1   
     6    2   27 1   
     7    2   28 1   
     8    3   13 1   
     9    3   14 1   
    10    3   29 1   
    11    3   30 1   
    12    4   17 1   
    13    4   18 ar  
    14    4   20 ar  
    15    5    6 ar  
    16    5   10 ar  
    17    5   17 1   
    18    6    7 ar  
    19    6   31 1   
    20    7    8 ar  
    21    7   32 1   
    22    8    9 ar  
    23    8   11 1   
    24    9   10 ar  
    25    9   33 1   
    26   10   12 1   
    27   12   13 1   
    28   12   19 2   
    29   14   15 1   
    30   14   34 1   
    31   14   35 1   
    32   15   16 1   
    33   16   36 1   
    34   16   37 1   
    35   16   38 1   
    36   17   39 1   
    37   18   19 1   
    38   18   24 ar  
    39   20   21 ar  
    40   20   40 1   
    41   21   22 ar  
    42   21   41 1   
    43   22   23 1   
    44   22   24 ar  
    45   24   42 1   
@<TRIPOS>SUBSTRUCTURE
     1 4PV         1 TEMP              0 ****  ****    0 ROOT
