@<TRIPOS>MOLECULE
4PV
   42    45     1     0     0
SMALL
bcc


@<TRIPOS>ATOM
      1 C1          0.5420    0.2970   -0.1620 c3        1 4PV      0.135800
      2 C2          1.8800    0.9550    0.2280 c3        1 4PV      0.176800
      3 C3          1.2000    1.0400    2.5290 c3        1 4PV      0.176800
      4 C11         3.8400   -3.3360    2.4850 ca        1 4PV     -0.132500
      5 C12         3.7580   -1.5530    4.0810 ca        1 4PV     -0.006200
      6 C13         4.3370   -1.4490    5.3650 ca        1 4PV     -0.158000
      7 C14         4.8720   -0.2510    5.8160 ca        1 4PV     -0.129000
      8 C15         4.8560    0.8750    4.9750 ca        1 4PV      0.097900
      9 C16         4.2650    0.7970    3.7020 ca        1 4PV     -0.109000
     10 C17         3.6960   -0.4000    3.2630 ca        1 4PV     -0.186500
     11 F1          5.4040    2.0410    5.3940 f         1 4PV     -0.136900
     12 C5          3.0220   -0.4490    1.9260 cc        1 4PV      0.463400
     13 N1          2.2930    0.7490    1.6080 nh        1 4PV     -0.730300
     14 C4         -0.1420    0.3720    2.1660 c3        1 4PV      0.135800
     15 N          -0.5290    0.5980    0.7810 n3        1 4PV     -0.732600
     16 C          -1.7640   -0.0710    0.4400 c3        1 4PV      0.157100
     17 N3          3.2020   -2.7830    3.6340 na        1 4PV     -0.173300
     18 C6          3.8200   -2.6140    1.2520 ca        1 4PV      0.398600
     19 N2          3.1080   -1.4230    1.0620 nd        1 4PV     -0.430000
     20 C10         4.4310   -4.6120    2.5350 ca        1 4PV     -0.136000
     21 C9          5.0150   -5.1770    1.4110 ca        1 4PV     -0.155000
     22 C8          5.0290   -4.4570    0.2040 ca        1 4PV      0.118900
     23 F           5.6160   -4.9930   -0.8940 f         1 4PV     -0.139900
     24 C7          4.4360   -3.1890    0.1220 ca        1 4PV     -0.205300
     25 H1          0.2340    0.7080   -1.1640 h1        1 4PV      0.043950
     26 H2          0.6990   -0.8140   -0.2780 h1        1 4PV      0.043950
     27 H3          1.7870    2.0730    0.1070 h1        1 4PV      0.066450
     28 H4          2.6730    0.5930   -0.4800 h1        1 4PV      0.066450
     29 H5          1.4780    0.7260    3.5720 h1        1 4PV      0.066450
     30 H6          1.0710    2.1590    2.5160 h1        1 4PV      0.066450
     31 H7          4.3700   -2.3280    6.0280 ha        1 4PV      0.140000
     32 H8          5.3180   -0.1780    6.8190 ha        1 4PV      0.153000
     33 H9          4.2560    1.6940    3.0610 ha        1 4PV      0.172000
     34 H10        -0.0780   -0.7290    2.4100 h1        1 4PV      0.043950
     35 H11        -0.9400    0.8230    2.8200 h1        1 4PV      0.043950
     36 H13        -2.0510    0.2150   -0.6050 h1        1 4PV      0.033033
     37 H14        -1.6950   -1.1930    0.4970 h1        1 4PV      0.033033
     38 H15        -2.5670    0.2730    1.1430 h1        1 4PV      0.033033
     39 H16         3.1400   -3.4540    4.3790 hn        1 4PV      0.238700
     40 H17         4.4330   -5.1840    3.4770 ha        1 4PV      0.136000
     41 H18         5.4700   -6.1770    1.4560 ha        1 4PV      0.151000
     42 H19         4.4480   -2.6510   -0.8390 ha        1 4PV      0.163000
@<TRIPOS>BOND
     1    1    2 1   
     2    1   15 1   
     3    1   25 1   
     4    1   26 1   
     5    2   13 1   
     6    2   27 1   
     7    2   28 1   
     8    3   13 1   
     9    3   14 1   
    10    3   29 1   
    11    3   30 1   
    12    4   17 1   
    13    4   18 ar  
    14    4   20 ar  
    15    5    6 ar  
    16    5   10 ar  
    17    5   17 1   
    18    6    7 ar  
    19    6   31 1   
    20    7    8 ar  
    21    7   32 1   
    22    8    9 ar  
    23    8   11 1   
    24    9   10 ar  
    25    9   33 1   
    26   10   12 1   
    27   12   13 1   
    28   12   19 2   
    29   14   15 1   
    30   14   34 1   
    31   14   35 1   
    32   15   16 1   
    33   16   36 1   
    34   16   37 1   
    35   16   38 1   
    36   17   39 1   
    37   18   19 1   
    38   18   24 ar  
    39   20   21 ar  
    40   20   40 1   
    41   21   22 ar  
    42   21   41 1   
    43   22   23 1   
    44   22   24 ar  
    45   24   42 1   
@<TRIPOS>SUBSTRUCTURE
     1 4PV         1 TEMP              0 ****  ****    0 ROOT
