@<TRIPOS>MOLECULE
4PW
   21    22     1     0     0
SMALL
bcc


@<TRIPOS>ATOM
      1 O3          0.2490   -0.4520   -0.4270 oh        1 4PW     -0.596800
      2 C3          1.5850   -0.0430   -0.1770 c3        1 4PW      0.111100
      3 C2          1.8540   -0.0270    1.3470 c3        1 4PW      0.064100
      4 O1          3.1730   -0.5240    1.5050 oh        1 4PW     -0.590800
      5 C4          1.7510    1.3160   -0.8990 c3        1 4PW      0.131100
      6 O4          3.0510    1.4120   -1.4400 oh        1 4PW     -0.585800
      7 C5          1.4780    2.4970    0.0410 c3        1 4PW      0.071100
      8 O5          2.3590    2.3470    1.1760 os        1 4PW     -0.420600
      9 C6          0.0850    2.3900    0.6890 c3        1 4PW      0.103400
     10 O6          0.3500    1.7900    1.9740 os        1 4PW     -0.427600
     11 C1          1.7140    1.3700    1.9880 c3        1 4PW      0.293900
     12 H1          0.1760   -1.3710   -0.1430 ho        1 4PW      0.410000
     13 H2          2.3060   -0.7740   -0.6470 h1        1 4PW      0.077700
     14 H3          1.1250   -0.7180    1.8590 h1        1 4PW      0.057700
     15 H4          3.4100   -0.4170    2.4340 ho        1 4PW      0.408000
     16 H5          1.0600    1.3510   -1.7870 h1        1 4PW      0.103700
     17 H6          3.6700    1.4130   -0.6960 ho        1 4PW      0.420000
     18 H7          1.7180    3.4810   -0.4230 h1        1 4PW      0.110700
     19 H8         -0.3790    3.3860    0.8900 h1        1 4PW      0.075200
     20 H9         -0.6070    1.7150    0.1280 h1        1 4PW      0.075200
     21 H10         2.1080    1.4410    3.0300 h2        1 4PW      0.107700
@<TRIPOS>BOND
     1    1    2 1   
     2    1   12 1   
     3    2    3 1   
     4    2    5 1   
     5    2   13 1   
     6    3    4 1   
     7    3   11 1   
     8    3   14 1   
     9    4   15 1   
    10    5    6 1   
    11    5    7 1   
    12    5   16 1   
    13    6   17 1   
    14    7    8 1   
    15    7    9 1   
    16    7   18 1   
    17    8   11 1   
    18    9   10 1   
    19    9   19 1   
    20    9   20 1   
    21   10   11 1   
    22   11   21 1   
@<TRIPOS>SUBSTRUCTURE
     1 4PW         1 TEMP              0 ****  ****    0 ROOT
