@<TRIPOS>MOLECULE
4PX
   44    47     1     0     0
SMALL
bcc


@<TRIPOS>ATOM
      1 N           0.0060   -0.2360   -0.0700 nb        1 4PX     -0.688000
      2 C           2.0760   -0.3530    1.2040 ca        1 4PX     -0.279300
      3 O          -4.1190    0.4530    2.0530 o         1 4PX     -0.604500
      4 C1          1.3300   -0.3590    0.0020 ca        1 4PX      0.446200
      5 C2         -0.6970   -0.0900    1.1110 ca        1 4PX      0.560200
      6 C3         -0.0130   -0.0790    2.3740 ca        1 4PX     -0.210100
      7 C4          1.3870   -0.2110    2.3940 ca        1 4PX     -0.045000
      8 N5         -2.0940    0.0540    1.0560 n         1 4PX     -0.349500
      9 C6         -2.9020    0.2540    2.2070 c         1 4PX      0.744700
     10 C7         -2.2110    0.2080    3.4930 cc        1 4PX     -0.136600
     11 C8         -0.8110    0.0740    3.5500 cd        1 4PX      0.069400
     12 C9         -2.7440    0.0410   -0.2240 ca        1 4PX      0.041600
     13 C10        -2.7270   -1.1230   -1.0170 ca        1 4PX     -0.100500
     14 C11        -3.3600   -1.1230   -2.2580 ca        1 4PX     -0.128000
     15 C12        -4.0160    0.0170   -2.7190 ca        1 4PX     -0.121000
     16 C13        -4.0420    1.1680   -1.9330 ca        1 4PX     -0.128000
     17 C14        -3.4110    1.1910   -0.6920 ca        1 4PX     -0.100500
     18 N15        -2.7150    0.3750    4.8090 n         1 4PX     -0.307000
     19 C16        -1.5890    0.2710    5.6880 c         1 4PX      0.772500
     20 N17        -0.4110    0.1490    4.8850 n         1 4PX     -0.448100
     21 O18        -1.5510    0.3660    6.9280 o         1 4PX     -0.639500
     22 C19        -4.1000    0.1320    5.2410 c3        1 4PX      0.139400
     23 C20        -4.1760   -0.0070    6.7930 c3        1 4PX      0.121400
     24 O21        -5.5420   -0.2270    7.1180 oh        1 4PX     -0.606800
     25 C22        -5.0000    1.3170    4.8540 c3        1 4PX     -0.111600
     26 C23        -4.6800   -1.1600    4.6460 c3        1 4PX     -0.111600
     27 H1          3.1680   -0.4570    1.1780 ha        1 4PX      0.153000
     28 H2          1.8410   -0.4700   -0.9740 h4        1 4PX      0.032100
     29 H3          1.9250   -0.1970    3.3540 ha        1 4PX      0.140000
     30 H5         -2.2090   -2.0290   -0.6700 ha        1 4PX      0.143000
     31 H6         -3.3410   -2.0340   -2.8740 ha        1 4PX      0.135000
     32 H7         -4.5150    0.0070   -3.6990 ha        1 4PX      0.134000
     33 H8         -4.5640    2.0680   -2.2910 ha        1 4PX      0.135000
     34 H9         -3.4570    2.0980   -0.0700 ha        1 4PX      0.143000
     35 H10        -3.5670   -0.8840    7.1390 h1        1 4PX      0.049200
     36 H11        -3.8070    0.9310    7.2860 h1        1 4PX      0.049200
     37 H12        -5.5960   -0.1770    8.0800 ho        1 4PX      0.407000
     38 H13        -5.0580    1.4380    3.7470 hc        1 4PX      0.057867
     39 H14        -6.0250    1.1130    5.2510 hc        1 4PX      0.057867
     40 H15        -4.6210    2.2630    5.3070 hc        1 4PX      0.057867
     41 H16        -5.7030   -1.3110    5.0720 hc        1 4PX      0.057867
     42 H17        -4.0490   -2.0400    4.9140 hc        1 4PX      0.057867
     43 H18        -4.7630   -1.0890    3.5360 hc        1 4PX      0.057867
     44 H4          0.4760   -0.0880    5.2420 hn        1 4PX      0.352500
@<TRIPOS>BOND
     1    1    4 ar  
     2    1    5 ar  
     3    2    4 ar  
     4    2    7 ar  
     5    2   27 1   
     6    3    9 2   
     7    4   28 1   
     8    5    6 ar  
     9    5    8 1   
    10    6    7 ar  
    11    6   11 1   
    12    7   29 1   
    13    8    9 1   
    14    8   12 1   
    15    9   10 1   
    16   10   11 2   
    17   10   18 1   
    18   11   20 1   
    19   12   13 ar  
    20   12   17 ar  
    21   13   14 ar  
    22   13   30 1   
    23   14   15 ar  
    24   14   31 1   
    25   15   16 ar  
    26   15   32 1   
    27   16   17 ar  
    28   16   33 1   
    29   17   34 1   
    30   18   19 1   
    31   18   22 1   
    32   19   20 1   
    33   19   21 2   
    34   20   44 1   
    35   22   23 1   
    36   22   25 1   
    37   22   26 1   
    38   23   24 1   
    39   23   35 1   
    40   23   36 1   
    41   24   37 1   
    42   25   38 1   
    43   25   39 1   
    44   25   40 1   
    45   26   41 1   
    46   26   42 1   
    47   26   43 1   
@<TRIPOS>SUBSTRUCTURE
     1 4PX         1 TEMP              0 ****  ****    0 ROOT
