@<TRIPOS>MOLECULE
4PX
   44    47     1     0     0
SMALL
bcc


@<TRIPOS>ATOM
      1 N           0.0040    0.2320   -0.0730 nb        1 4PX     -0.688000
      2 C           2.0760    0.3450    1.1970 ca        1 4PX     -0.279300
      3 O          -4.1210   -0.4380    2.0560 o         1 4PX     -0.604500
      4 C1          1.3280    0.3510   -0.0040 ca        1 4PX      0.446200
      5 C2         -0.6990    0.0910    1.1080 ca        1 4PX      0.560200
      6 C3         -0.0130    0.0820    2.3710 ca        1 4PX     -0.210100
      7 C4          1.3870    0.2080    2.3890 ca        1 4PX     -0.045000
      8 N5         -2.0960   -0.0490    1.0550 n         1 4PX     -0.349500
      9 C6         -2.9040   -0.2430    2.2080 c         1 4PX      0.744700
     10 C7         -2.2100   -0.1950    3.4930 cc        1 4PX     -0.136600
     11 C8         -0.8090   -0.0660    3.5490 cd        1 4PX      0.069400
     12 C9         -2.7480   -0.0370   -0.2240 ca        1 4PX      0.041600
     13 C10        -3.4190   -1.1860   -0.6870 ca        1 4PX     -0.100500
     14 C11        -4.0510   -1.1640   -1.9280 ca        1 4PX     -0.128000
     15 C12        -4.0240   -0.0150   -2.7170 ca        1 4PX     -0.121000
     16 C13        -3.3630    1.1240   -2.2600 ca        1 4PX     -0.128000
     17 C14        -2.7280    1.1250   -1.0200 ca        1 4PX     -0.100500
     18 N15        -2.7130   -0.3570    4.8100 n         1 4PX     -0.307000
     19 C16        -1.5850   -0.2540    5.6880 c         1 4PX      0.772500
     20 N17        -0.4090   -0.1380    4.8830 ns        1 4PX     -0.448100
     21 O18        -1.5470   -0.3460    6.9280 o         1 4PX     -0.639500
     22 C19        -4.0970   -0.1080    5.2430 c3        1 4PX      0.139400
     23 C20        -4.1710    0.0350    6.7950 c3        1 4PX      0.121400
     24 O21        -5.5350    0.2600    7.1220 oh        1 4PX     -0.606800
     25 C22        -4.6740    1.1830    4.6460 c3        1 4PX     -0.111600
     26 C23        -5.0010   -1.2920    4.8610 c3        1 4PX     -0.111600
     27 H1          3.1680    0.4460    1.1690 ha        1 4PX      0.153000
     28 H2          1.8380    0.4580   -0.9810 h4        1 4PX      0.032100
     29 H3          1.9270    0.1960    3.3480 ha        1 4PX      0.140000
     30 H5         -3.4670   -2.0910   -0.0630 ha        1 4PX      0.143000
     31 H6         -4.5770   -2.0630   -2.2820 ha        1 4PX      0.135000
     32 H7         -4.5240   -0.0070   -3.6960 ha        1 4PX      0.134000
     33 H8         -3.3410    2.0330   -2.8780 ha        1 4PX      0.135000
     34 H9         -2.2070    2.0310   -0.6760 ha        1 4PX      0.143000
     35 H10        -3.5580    0.9110    7.1380 h1        1 4PX      0.049200
     36 H11        -3.8040   -0.9030    7.2900 h1        1 4PX      0.049200
     37 H12        -5.5890    0.2130    8.0830 ho        1 4PX      0.407000
     38 H13        -4.0400    2.0620    4.9110 hc        1 4PX      0.057867
     39 H14        -4.7590    1.1100    3.5350 hc        1 4PX      0.057867
     40 H15        -5.6950    1.3390    5.0720 hc        1 4PX      0.057867
     41 H16        -4.6240   -2.2380    5.3160 hc        1 4PX      0.057867
     42 H17        -5.0610   -1.4160    3.7540 hc        1 4PX      0.057867
     43 H18        -6.0250   -1.0840    5.2580 hc        1 4PX      0.057867
     44 H4          0.4800    0.0970    5.2380 hn        1 4PX      0.352500
@<TRIPOS>BOND
     1    1    4 ar  
     2    1    5 ar  
     3    2    4 ar  
     4    2    7 ar  
     5    2   27 1   
     6    3    9 2   
     7    4   28 1   
     8    5    6 ar  
     9    5    8 1   
    10    6    7 ar  
    11    6   11 1   
    12    7   29 1   
    13    8    9 1   
    14    8   12 1   
    15    9   10 1   
    16   10   11 2   
    17   10   18 1   
    18   11   20 1   
    19   12   13 ar  
    20   12   17 ar  
    21   13   14 ar  
    22   13   30 1   
    23   14   15 ar  
    24   14   31 1   
    25   15   16 ar  
    26   15   32 1   
    27   16   17 ar  
    28   16   33 1   
    29   17   34 1   
    30   18   19 1   
    31   18   22 1   
    32   19   20 1   
    33   19   21 2   
    34   20   44 1   
    35   22   23 1   
    36   22   25 1   
    37   22   26 1   
    38   23   24 1   
    39   23   35 1   
    40   23   36 1   
    41   24   37 1   
    42   25   38 1   
    43   25   39 1   
    44   25   40 1   
    45   26   41 1   
    46   26   42 1   
    47   26   43 1   
@<TRIPOS>SUBSTRUCTURE
     1 4PX         1 TEMP              0 ****  ****    0 ROOT
