@<TRIPOS>MOLECULE
4PY
   50    54     1     0     0
SMALL
bcc


@<TRIPOS>ATOM
      1 C4          1.3850    0.0820   -1.0680 ce        1 4PY     -0.146200
      2 C5          4.2690   -0.8180    1.0870 cd        1 4PY      0.385200
      3 C6          1.9850   -0.2310    2.1990 c3        1 4PY     -0.007100
      4 C8          3.8540   -0.5930   -2.4030 c2        1 4PY     -0.002200
      5 C10         2.2750    1.1300    2.8630 c3        1 4PY      0.114500
      6 C15        -0.5600    3.1550    1.6730 ca        1 4PY     -0.027200
      7 C17        -0.0580    4.1130    0.7700 ca        1 4PY      0.353200
      8 C20        -4.2150    4.0490    1.5600 ce        1 4PY      0.461200
      9 C21        -2.1730    4.9720    0.4240 ca        1 4PY      0.425200
     10 C22        -4.8810    2.7280    1.4950 ce        1 4PY     -0.132600
     11 C24        -6.1980    2.6980    1.7220 cd        1 4PY     -0.269600
     12 C26        -6.9670    3.9600    2.0320 cd        1 4PY      0.303600
     13 C1          2.5470   -0.2700   -0.3130 cc        1 4PY     -0.066100
     14 C2          2.8440   -0.3990    1.0270 cd        1 4PY     -0.314600
     15 C3          3.8040   -0.6080   -1.0540 cc        1 4PY      0.210300
     16 N7          4.8250   -0.9340   -0.1050 nc        1 4PY     -0.607000
     17 C9          1.4390    0.0960   -2.4160 c2        1 4PY     -0.094200
     18 C11         2.6550   -0.2340   -3.1960 c3        1 4PY     -0.069000
     19 C12         1.6170    2.2730    2.0680 c3        1 4PY      0.104400
     20 N13         1.8270    1.1440    4.3000 n4        1 4PY     -0.837600
     21 O14         0.2170    2.2230    2.3530 os        1 4PY     -0.372900
     22 C16        -1.9370    3.1060    1.9490 ca        1 4PY     -0.099000
     23 C18        -2.7610    4.0350    1.3090 ca        1 4PY     -0.204200
     24 N19        -0.8570    5.0060    0.1560 nb        1 4PY     -0.620000
     25 N23        -4.8160    5.1740    1.8120 n2        1 4PY     -0.526900
     26 C25        -6.2270    5.2460    2.0660 c3        1 4PY      0.047500
     27 C27        -7.2910    1.6960    1.7790 cd        1 4PY      0.347200
     28 N28        -8.2490    3.6580    2.2220 nc        1 4PY     -0.302000
     29 N29        -8.4310    2.3170    2.0710 nc        1 4PY     -0.302000
     30 H4          0.4590    0.3210   -0.5230 ha        1 4PY      0.137000
     31 H5          4.8120   -1.0280    2.0130 h4        1 4PY      0.030100
     32 H61         2.1830   -1.0700    2.9230 hc        1 4PY      0.075200
     33 H62         0.9000   -0.2700    1.9060 hc        1 4PY      0.075200
     34 H8          4.7700   -0.8460   -2.9630 ha        1 4PY      0.169000
     35 H10         3.3940    1.3080    2.8650 hx        1 4PY      0.122700
     36 H17         1.0140    4.1850    0.5170 h4        1 4PY      0.031100
     37 H21        -2.7920    5.7340   -0.0890 h4        1 4PY      0.059100
     38 H22        -4.2710    1.8460    1.2550 ha        1 4PY      0.152000
     39 H9          0.5510    0.3590   -3.0160 ha        1 4PY      0.149000
     40 H111        2.4160   -1.0960   -3.8890 hc        1 4PY      0.109700
     41 H112        2.9130    0.6440   -3.8600 hc        1 4PY      0.109700
     42 H121        2.0310    3.2710    2.3740 h1        1 4PY      0.089200
     43 H122        1.8040    2.0880    0.9740 h1        1 4PY      0.089200
     44 H131        2.2570    0.3680    4.8090 hn        1 4PY      0.462133
     45 H132        2.0840    2.0330    4.7370 hn        1 4PY      0.462133
     46 H16        -2.3420    2.3640    2.6510 ha        1 4PY      0.155000
     47 H251       -6.6620    5.9590    1.2990 h1        1 4PY      0.125700
     48 H252       -6.3540    5.7380    3.0790 h1        1 4PY      0.125700
     49 H27        -7.1970    0.6220    1.6090 h4        1 4PY      0.055100
     50 H133        0.8040    1.0460    4.3300 hn        1 4PY      0.462133
@<TRIPOS>BOND
     1    1   13 1   
     2    1   17 2   
     3    1   30 1   
     4    2   14 1   
     5    2   16 2   
     6    2   31 1   
     7    3    5 1   
     8    3   14 1   
     9    3   32 1   
    10    3   33 1   
    11    4   15 2   
    12    4   18 1   
    13    4   34 1   
    14    5   19 1   
    15    5   20 1   
    16    5   35 1   
    17    6    7 ar  
    18    6   21 1   
    19    6   22 ar  
    20    7   24 ar  
    21    7   36 1   
    22    8   10 1   
    23    8   23 1   
    24    8   25 2   
    25    9   23 ar  
    26    9   24 ar  
    27    9   37 1   
    28   10   11 2   
    29   10   38 1   
    30   11   12 1   
    31   11   27 1   
    32   12   26 1   
    33   12   28 2   
    34   13   14 2   
    35   13   15 1   
    36   15   16 1   
    37   17   18 1   
    38   17   39 1   
    39   18   40 1   
    40   18   41 1   
    41   19   21 1   
    42   19   42 1   
    43   19   43 1   
    44   20   44 1   
    45   20   45 1   
    46   20   50 1   
    47   22   23 ar  
    48   22   46 1   
    49   25   26 1   
    50   26   47 1   
    51   26   48 1   
    52   27   29 2   
    53   27   49 1   
    54   28   29 1   
@<TRIPOS>SUBSTRUCTURE
     1 4PY         1 TEMP              0 ****  ****    0 ROOT
