@<TRIPOS>MOLECULE
4PY
   49    42     1     0     0
SMALL
bcc


@<TRIPOS>ATOM
      1 C4          5.2500    1.7420   -2.4290 c1        1 4PY     -0.129000
      2 C5          2.7140   -0.8480   -1.8790 c1        1 4PY     -0.066000
      3 C6          1.9370    1.5160   -2.4430 c3        1 4PY     -0.100000
      4 C8          6.3410   -1.0880   -2.5830 c1        1 4PY     -0.049000
      5 C10         0.6090    0.8830   -2.3080 c3        1 4PY     -0.021000
      6 C15        -2.2680    1.3600   -0.2290 c1        1 4PY      0.036000
      7 C17        -2.6600    2.6250    0.2510 c1        1 4PY     -0.132000
      8 C20        -3.6870   -0.9800    2.4550 c1        1 4PY      0.021000
      9 C21        -3.7290    1.5900    2.1120 c1        1 4PY     -0.093000
     10 C22        -5.1150   -1.2610    2.8630 c2        1 4PY     -0.023000
     11 C24        -5.4020   -2.3850    3.7120 c1        1 4PY     -0.159000
     12 C26        -4.2690   -3.1440    4.3360 c1        1 4PY     -0.113000
     13 C1          4.3420    0.5930   -2.7380 c1        1 4PY     -0.052000
     14 C2          3.0390    0.5000   -2.0970 c1        1 4PY     -0.153000
     15 C3          4.9140   -0.7940   -2.9500 c2        1 4PY     -0.093000
     16 N7          3.7590   -1.6750   -2.3610 n2        1 4PY     -0.118000
     17 C9          6.6130    1.4910   -1.8410 c1        1 4PY     -0.129000
     18 C11         7.2110    0.0110   -1.7860 c1        1 4PY     -0.130000
     19 C12        -0.3750    1.8600   -1.5710 c3        1 4PY     -0.027000
     20 N13         0.0790    0.5720   -3.6380 n3        1 4PY     -0.351000
     21 O14        -1.6640    1.2460   -1.4850 os        1 4PY     -0.208000
     22 C16        -2.6060    0.2340    0.4610 c1        1 4PY     -0.085000
     23 C18        -3.3360    0.3300    1.6330 c1        1 4PY     -0.073000
     24 N19        -3.3870    2.7250    1.4170 n1        1 4PY     -0.105000
     25 N23        -2.6820   -1.9680    2.6700 n1        1 4PY     -0.127000
     26 C25        -2.7640   -2.8760    3.8470 c2        1 4PY     -0.059000
     27 C27        -6.3360   -2.2140    4.9390 c2        1 4PY     -0.115000
     28 N28        -4.5390   -3.3630    5.7350 n1        1 4PY     -0.059000
     29 N29        -5.7450   -2.8050    6.0730 n1        1 4PY     -0.058000
     30 H4          4.9080    2.6310   -2.4590 ha        1 4PY      0.141500
     31 H5          1.7680   -1.1500   -1.9540 ha        1 4PY      0.170000
     32 H61         1.9990    2.2970   -1.8160 hc        1 4PY      0.098500
     33 H62         2.0560    1.8210   -3.3480 hc        1 4PY      0.098500
     34 H8          6.6330   -1.9670   -2.5960 ha        1 4PY      0.148000
     35 H10         0.7040   -0.0160   -1.7440 h1        1 4PY      0.074000
     36 H17        -2.4040    3.4720   -0.2720 ha        1 4PY      0.168000
     37 H21        -4.2410    1.6590    2.9350 ha        1 4PY      0.163000
     38 H22        -5.8090   -0.6280    2.6530 ha        1 4PY      0.161000
     39 H9          7.0830    2.2070   -1.4130 ha        1 4PY      0.141500
     40 H111        7.4800   -0.1500   -0.8210 ha        1 4PY      0.120500
     41 H112        8.1150   -0.0400   -2.2300 ha        1 4PY      0.120500
     42 H121       -0.0300    2.0550   -0.6410 h1        1 4PY      0.091500
     43 H122       -0.4490    2.7130   -2.0850 h1        1 4PY      0.091500
     44 H131        0.7140    0.2840   -4.1420 hn        1 4PY      0.158500
     45 H132       -0.5700   -0.0720   -3.5660 hn        1 4PY      0.158500
     46 H16        -2.3320   -0.6400    0.1280 ha        1 4PY      0.169000
     47 H251       -2.2220   -3.7510    3.7910 ha        1 4PY      0.154500
     48 H252       -2.3080   -2.3360    4.5990 ha        1 4PY      0.154500
     49 H27        -7.3370   -2.2630    4.8150 h4        1 4PY      0.188000
@<TRIPOS>BOND
     1    1   17 1   
     2    1   30 1   
     3    2   16 1   
     4    2   31 1   
     5    3    5 1   
     6    3   14 1   
     7    3   32 1   
     8    3   33 1   
     9    4   15 1   
    10    4   34 1   
    11    5   19 1   
    12    5   20 1   
    13    5   35 1   
    14    6   21 1   
    15    6   22 1   
    16    7   24 1   
    17    7   36 1   
    18    8   10 1   
    19    8   25 1   
    20    9   23 1   
    21    9   37 1   
    22   10   11 1   
    23   10   38 1   
    24   11   27 1   
    25   12   26 1   
    26   12   28 1   
    27   13   14 1   
    28   13   15 1   
    29   15   16 1   
    30   17   39 1   
    31   18   40 1   
    32   18   41 1   
    33   19   21 1   
    34   19   42 1   
    35   19   43 1   
    36   20   44 1   
    37   20   45 1   
    38   22   46 1   
    39   26   47 1   
    40   26   48 1   
    41   27   29 1   
    42   27   49 1   
@<TRIPOS>SUBSTRUCTURE
     1 4PY         1 TEMP              0 ****  ****    0 ROOT
