@<TRIPOS>MOLECULE
4PY
   49    53     1     0     0
SMALL
bcc


@<TRIPOS>ATOM
      1 C4          5.1220    7.3210   -0.0700 ce        1 4PY     -0.097200
      2 C5          8.7020    6.8230    0.7680 cd        1 4PY      0.398200
      3 C6          7.6730    5.5140   -1.2480 c3        1 4PY     -0.017100
      4 C8          6.1680    8.8340    2.1530 c2        1 4PY     -0.054200
      5 C10         8.0180    4.0900   -0.7730 c3        1 4PY      0.174500
      6 C15         4.6670    2.5690   -0.6890 ca        1 4PY      0.010800
      7 C17         4.3080    2.3490    0.6600 ca        1 4PY      0.342200
      8 C20         1.6020    1.1540   -2.3620 ce        1 4PY      0.478200
      9 C21         2.3020    1.3940    0.0390 ca        1 4PY      0.400200
     10 C22         1.3860    2.1230   -3.4630 ce        1 4PY     -0.110600
     11 C24         0.5090    1.7830   -4.4150 cd        1 4PY     -0.288600
     12 C26        -0.2250    0.4670   -4.3670 cd        1 4PY      0.309600
     13 C1          6.4930    7.1820    0.3210 cc        1 4PY     -0.134100
     14 C2          7.5640    6.4490   -0.1240 cd        1 4PY     -0.220600
     15 C3          6.9830    7.9960    1.4840 cc        1 4PY      0.237300
     16 N7          8.3720    7.7060    1.6910 nc        1 4PY     -0.644000
     17 C9          4.3110    8.1600    0.6010 c2        1 4PY     -0.149200
     18 C11         4.7450    8.9830    1.7580 c3        1 4PY     -0.041000
     19 C12         6.7820    3.4730   -0.0780 c3        1 4PY      0.078400
     20 N13         8.5920    3.2880   -1.8330 n3        1 4PY     -0.894800
     21 O14         5.8370    3.1590   -1.1110 os        1 4PY     -0.330900
     22 C16         3.7810    2.1750   -1.7080 ca        1 4PY     -0.114000
     23 C18         2.5730    1.5810   -1.3360 ca        1 4PY     -0.222200
     24 N19         3.1460    1.7710    1.0140 nb        1 4PY     -0.634000
     25 N23         1.0010    0.0060   -2.2580 n2        1 4PY     -0.538900
     26 C25         0.0470   -0.4480   -3.2300 c3        1 4PY      0.049500
     27 C27        -0.0460    2.3570   -5.6630 cd        1 4PY      0.349200
     28 N28        -1.0320    0.3750   -5.4220 nc        1 4PY     -0.321000
     29 N29        -0.9190    1.4960   -6.1830 nc        1 4PY     -0.319000
     30 H4          4.7660    6.7280   -0.9260 ha        1 4PY      0.137000
     31 H5          9.7110    6.4110    0.6660 h4        1 4PY      0.036100
     32 H61         6.7090    5.4820   -1.8240 hc        1 4PY      0.066700
     33 H62         8.4770    5.8810   -1.9460 hc        1 4PY      0.066700
     34 H8          6.5130    9.4380    3.0070 ha        1 4PY      0.149000
     35 H10         8.8080    4.1700    0.0360 h1        1 4PY      0.069700
     36 H17         4.9700    2.6430    1.4940 h4        1 4PY      0.034100
     37 H21         1.3630    0.9130    0.3710 h4        1 4PY      0.041100
     38 H22         1.9440    3.0700   -3.4420 ha        1 4PY      0.160000
     39 H9          3.2540    8.2790    0.3140 ha        1 4PY      0.131000
     40 H111        4.5540   10.0690    1.5220 hc        1 4PY      0.081200
     41 H112        4.1010    8.7260    2.6480 hc        1 4PY      0.081200
     42 H121        6.3320    4.2170    0.6300 h1        1 4PY      0.052700
     43 H122        7.0570    2.5340    0.4690 h1        1 4PY      0.052700
     44 H131        7.9910    3.2850   -2.6350 hn        1 4PY      0.353800
     45 H132        8.7180    2.3450   -1.5210 hn        1 4PY      0.353800
     46 H16         4.0550    2.3290   -2.7620 ha        1 4PY      0.155000
     47 H251       -0.9160   -0.6600   -2.6720 h1        1 4PY      0.116200
     48 H252        0.4280   -1.4410   -3.6230 h1        1 4PY      0.116200
     49 H27         0.2060    3.3240   -6.1000 h4        1 4PY      0.051100
@<TRIPOS>BOND
     1    1   13 1   
     2    1   17 2   
     3    1   30 1   
     4    2   14 1   
     5    2   16 2   
     6    2   31 1   
     7    3    5 1   
     8    3   14 1   
     9    3   32 1   
    10    3   33 1   
    11    4   15 2   
    12    4   18 1   
    13    4   34 1   
    14    5   19 1   
    15    5   20 1   
    16    5   35 1   
    17    6    7 ar  
    18    6   21 1   
    19    6   22 ar  
    20    7   24 ar  
    21    7   36 1   
    22    8   10 1   
    23    8   23 1   
    24    8   25 2   
    25    9   23 ar  
    26    9   24 ar  
    27    9   37 1   
    28   10   11 2   
    29   10   38 1   
    30   11   12 1   
    31   11   27 1   
    32   12   26 1   
    33   12   28 2   
    34   13   14 2   
    35   13   15 1   
    36   15   16 1   
    37   17   18 1   
    38   17   39 1   
    39   18   40 1   
    40   18   41 1   
    41   19   21 1   
    42   19   42 1   
    43   19   43 1   
    44   20   44 1   
    45   20   45 1   
    46   22   23 ar  
    47   22   46 1   
    48   25   26 1   
    49   26   47 1   
    50   26   48 1   
    51   27   29 2   
    52   27   49 1   
    53   28   29 1   
@<TRIPOS>SUBSTRUCTURE
     1 4PY         1 TEMP              0 ****  ****    0 ROOT
