@<TRIPOS>MOLECULE
4PY
   50    54     1     0     0
SMALL
bcc


@<TRIPOS>ATOM
      1 C4          1.4050    0.0830   -1.0420 ce        1 4PY     -0.146200
      2 C5          4.2750   -0.8070    1.1340 cd        1 4PY      0.385200
      3 C6          1.9850   -0.2110    2.2300 c3        1 4PY     -0.007100
      4 C8          3.8800   -0.6020   -2.3600 c2        1 4PY     -0.002200
      5 C10         2.2730    1.1540    2.8880 c3        1 4PY      0.114500
      6 C15        -0.5540    3.1670    1.6600 ca        1 4PY     -0.027200
      7 C17        -0.0450    4.1240    0.7600 ca        1 4PY      0.353200
      8 C20        -4.2150    4.0280    1.4810 ce        1 4PY      0.461200
      9 C21        -2.1610    4.9630    0.3740 ca        1 4PY      0.425200
     10 C22        -4.8670    2.7010    1.4130 ce        1 4PY     -0.132600
     11 C24        -6.1880    2.6610    1.6180 cd        1 4PY     -0.269600
     12 C26        -6.9730    3.9180    1.9060 cd        1 4PY      0.303600
     13 C1          2.5620   -0.2650   -0.2780 cc        1 4PY     -0.066100
     14 C2          2.8510   -0.3860    1.0630 cd        1 4PY     -0.314600
     15 C3          3.8220   -0.6090   -1.0100 cc        1 4PY      0.210300
     16 N7          4.8370   -0.9300   -0.0540 nc        1 4PY     -0.607000
     17 C9          1.4660    0.0890   -2.3900 c2        1 4PY     -0.094200
     18 C11         2.6860   -0.2470   -3.1610 c3        1 4PY     -0.069000
     19 C12         1.6210    2.2930    2.0830 c3        1 4PY      0.104400
     20 N13         1.8160    1.1760    4.3220 n4        1 4PY     -0.837600
     21 O14         0.2190    2.2470    2.3590 os        1 4PY     -0.372900
     22 C16        -1.9350    3.1070    1.9130 ca        1 4PY     -0.099000
     23 C18        -2.7560    4.0260    1.2540 ca        1 4PY     -0.204200
     24 N19        -0.8420    5.0070    0.1290 nb        1 4PY     -0.620000
     25 N23        -4.8290    5.1500    1.7160 n2        1 4PY     -0.526900
     26 C25        -6.2450    5.2110    1.9450 c3        1 4PY      0.047500
     27 C27        -7.2740    1.6500    1.6620 cd        1 4PY      0.347200
     28 N28        -8.2550    3.6060    2.0760 nc        1 4PY     -0.302000
     29 N29        -8.4230    2.2630    1.9310 nc        1 4PY     -0.302000
     30 H4          0.4760    0.3260   -0.5050 ha        1 4PY      0.137000
     31 H5          4.8130   -1.0120    2.0640 h4        1 4PY      0.030100
     32 H61         2.1780   -1.0460    2.9590 hc        1 4PY      0.075200
     33 H62         0.9020   -0.2510    1.9310 hc        1 4PY      0.075200
     34 H8          4.8000   -0.8590   -2.9130 ha        1 4PY      0.169000
     35 H10         3.3930    1.3300    2.8960 hx        1 4PY      0.122700
     36 H17         1.0300    4.2040    0.5250 h4        1 4PY      0.031100
     37 H21        -2.7780    5.7170   -0.1530 h4        1 4PY      0.059100
     38 H22        -4.2460    1.8230    1.1890 ha        1 4PY      0.152000
     39 H9          0.5820    0.3490   -2.9970 ha        1 4PY      0.149000
     40 H111        2.4510   -1.1130   -3.8500 hc        1 4PY      0.109700
     41 H112        2.9490    0.6260   -3.8290 hc        1 4PY      0.109700
     42 H121        1.8140    2.1020    0.9910 h1        1 4PY      0.089200
     43 H122        2.0340    3.2920    2.3850 h1        1 4PY      0.089200
     44 H131        2.0720    2.0670    4.7550 hn        1 4PY      0.462133
     45 H132        2.2440    0.4030    4.8380 hn        1 4PY      0.462133
     46 H16        -2.3460    2.3660    2.6120 ha        1 4PY      0.155000
     47 H251       -6.6740    5.9160    1.1670 h1        1 4PY      0.125700
     48 H252       -6.3930    5.7070    2.9540 h1        1 4PY      0.125700
     49 H27        -7.1670    0.5760    1.5010 h4        1 4PY      0.055100
     50 H133        0.7930    1.0790    4.3460 hn        1 4PY      0.462133
@<TRIPOS>BOND
     1    1   13 1   
     2    1   17 2   
     3    1   30 1   
     4    2   14 1   
     5    2   16 2   
     6    2   31 1   
     7    3    5 1   
     8    3   14 1   
     9    3   32 1   
    10    3   33 1   
    11    4   15 2   
    12    4   18 1   
    13    4   34 1   
    14    5   19 1   
    15    5   20 1   
    16    5   35 1   
    17    6    7 ar  
    18    6   21 1   
    19    6   22 ar  
    20    7   24 ar  
    21    7   36 1   
    22    8   10 1   
    23    8   23 1   
    24    8   25 2   
    25    9   23 ar  
    26    9   24 ar  
    27    9   37 1   
    28   10   11 2   
    29   10   38 1   
    30   11   12 1   
    31   11   27 1   
    32   12   26 1   
    33   12   28 2   
    34   13   14 2   
    35   13   15 1   
    36   15   16 1   
    37   17   18 1   
    38   17   39 1   
    39   18   40 1   
    40   18   41 1   
    41   19   21 1   
    42   19   42 1   
    43   19   43 1   
    44   20   44 1   
    45   20   45 1   
    46   20   50 1   
    47   22   23 ar  
    48   22   46 1   
    49   25   26 1   
    50   26   47 1   
    51   26   48 1   
    52   27   29 2   
    53   27   49 1   
    54   28   29 1   
@<TRIPOS>SUBSTRUCTURE
     1 4PY         1 TEMP              0 ****  ****    0 ROOT
