@<TRIPOS>MOLECULE
4PY
   50    54     1     0     0
SMALL
bcc


@<TRIPOS>ATOM
      1 C4          1.3890    0.0760   -1.0490 ce        1 4PY     -0.146200
      2 C5          4.2660   -0.8260    1.1140 cd        1 4PY      0.385200
      3 C6          1.9800   -0.2320    2.2210 c3        1 4PY     -0.007100
      4 C8          3.8580   -0.6080   -2.3770 c2        1 4PY     -0.002200
      5 C10         2.2720    1.1310    2.8820 c3        1 4PY      0.114500
      6 C15        -0.5540    3.1580    1.6770 ca        1 4PY     -0.027200
      7 C17        -0.0470    4.1140    0.7750 ca        1 4PY      0.353200
      8 C20        -4.2100    4.0490    1.5380 ce        1 4PY      0.461200
      9 C21        -2.1600    4.9710    0.4140 ca        1 4PY      0.425200
     10 C22        -4.8730    2.7270    1.4710 ce        1 4PY     -0.132600
     11 C24        -6.1920    2.6970    1.6900 cd        1 4PY     -0.269600
     12 C26        -6.9640    3.9600    1.9920 cd        1 4PY      0.303600
     13 C1          2.5480   -0.2770   -0.2900 cc        1 4PY     -0.066100
     14 C2          2.8420   -0.4040    1.0500 cd        1 4PY     -0.314600
     15 C3          3.8050   -0.6200   -1.0280 cc        1 4PY      0.210300
     16 N7          4.8230   -0.9460   -0.0760 nc        1 4PY     -0.607000
     17 C9          1.4450    0.0870   -2.3970 c2        1 4PY     -0.094200
     18 C11         2.6620   -0.2490   -3.1730 c3        1 4PY     -0.069000
     19 C12         1.6190    2.2740    2.0830 c3        1 4PY      0.104400
     20 N13         1.8200    1.1490    4.3180 nz        1 4PY     -0.837600
     21 O14         0.2190    2.2290    2.3640 os        1 4PY     -0.372900
     22 C16        -1.9330    3.1080    1.9430 ca        1 4PY     -0.099000
     23 C18        -2.7530    4.0360    1.2960 ca        1 4PY     -0.204200
     24 N19        -0.8420    5.0060    0.1540 nb        1 4PY     -0.620000
     25 N23        -4.8120    5.1750    1.7840 n2        1 4PY     -0.526900
     26 C25        -6.2250    5.2460    2.0270 c3        1 4PY      0.047500
     27 C27        -7.2850    1.6940    1.7420 cd        1 4PY      0.347200
     28 N28        -8.2470    3.6570    2.1740 nc        1 4PY     -0.302000
     29 N29        -8.4270    2.3160    2.0250 nc        1 4PY     -0.302000
     30 H4          0.4620    0.3180   -0.5070 ha        1 4PY      0.137000
     31 H5          4.8060   -1.0350    2.0420 h4        1 4PY      0.030100
     32 H61         2.1750   -1.0690    2.9460 hc        1 4PY      0.074700
     33 H62         0.8960   -0.2680    1.9250 hc        1 4PY      0.074700
     34 H8          4.7760   -0.8650   -2.9340 ha        1 4PY      0.169000
     35 H10         3.3920    1.3050    2.8870 hx        1 4PY      0.122700
     36 H17         1.0260    4.1860    0.5290 h4        1 4PY      0.031100
     37 H21        -2.7760    5.7320   -0.1050 h4        1 4PY      0.059100
     38 H22        -4.2620    1.8450    1.2380 ha        1 4PY      0.152000
     39 H9          0.5590    0.3500   -2.9990 ha        1 4PY      0.149000
     40 H111        2.9240    0.6270   -3.8390 hc        1 4PY      0.109700
     41 H112        2.4230   -1.1110   -3.8640 hc        1 4PY      0.109700
     42 H121        2.0350    3.2710    2.3880 h1        1 4PY      0.089200
     43 H122        1.8090    2.0860    0.9900 h1        1 4PY      0.089200
     44 H131        2.2480    0.3730    4.8290 hn        1 4PY      0.462133
     45 H132        0.7980    1.0540    4.3450 hn        1 4PY      0.462133
     46 H16        -2.3420    2.3680    2.6450 ha        1 4PY      0.155000
     47 H251       -6.6560    5.9570    1.2560 h1        1 4PY      0.125700
     48 H252       -6.3590    5.7400    3.0390 h1        1 4PY      0.125700
     49 H27        -7.1890    0.6200    1.5750 h4        1 4PY      0.055100
     50 H133        2.0800    2.0380    4.7530 hn        1 4PY      0.462133
@<TRIPOS>BOND
     1    1   13 1   
     2    1   17 2   
     3    1   30 1   
     4    2   14 1   
     5    2   16 2   
     6    2   31 1   
     7    3    5 1   
     8    3   14 1   
     9    3   32 1   
    10    3   33 1   
    11    4   15 2   
    12    4   18 1   
    13    4   34 1   
    14    5   19 1   
    15    5   20 1   
    16    5   35 1   
    17    6    7 ar  
    18    6   21 1   
    19    6   22 ar  
    20    7   24 ar  
    21    7   36 1   
    22    8   10 1   
    23    8   23 1   
    24    8   25 2   
    25    9   23 ar  
    26    9   24 ar  
    27    9   37 1   
    28   10   11 2   
    29   10   38 1   
    30   11   12 1   
    31   11   27 1   
    32   12   26 1   
    33   12   28 2   
    34   13   14 2   
    35   13   15 1   
    36   15   16 1   
    37   17   18 1   
    38   17   39 1   
    39   18   40 1   
    40   18   41 1   
    41   19   21 1   
    42   19   42 1   
    43   19   43 1   
    44   20   44 1   
    45   20   45 1   
    46   20   50 1   
    47   22   23 ar  
    48   22   46 1   
    49   25   26 1   
    50   26   47 1   
    51   26   48 1   
    52   27   29 2   
    53   27   49 1   
    54   28   29 1   
@<TRIPOS>SUBSTRUCTURE
     1 4PY         1 TEMP              0 ****  ****    0 ROOT
