@<TRIPOS>MOLECULE
4PZ
   12    12     1     0     0
SMALL
bcc


@<TRIPOS>ATOM
      1 C3         -0.0310   -0.0020   -0.0400 cc        1 4PZ     -0.150300
      2 N2          1.3650   -0.0030    0.0230 na        1 4PZ     -0.024600
      3 N1          1.8180   -0.0010    1.2770 nc        1 4PZ     -0.515800
      4 C4         -0.4850    0.0000    1.2900 cd        1 4PZ     -0.246600
      5 C19        -1.8590    0.0020    1.7810 c3        1 4PZ     -0.015800
      6 C5          0.7270    0.0010    2.0860 cd        1 4PZ      0.293200
      7 H3         -0.5730   -0.0030   -0.9830 h4        1 4PZ      0.175000
      8 HN2         1.9980   -0.0050   -0.7400 hn        1 4PZ      0.318700
      9 H19        -2.0530   -0.9060    2.4060 hc        1 4PZ      0.041700
     10 H19A       -2.0480    0.9050    2.4150 hc        1 4PZ      0.041700
     11 H19B       -2.5880    0.0080    0.9330 hc        1 4PZ      0.041700
     12 H5          0.8070    0.0030    3.1720 h4        1 4PZ      0.042100
@<TRIPOS>BOND
     1    1    2 1   
     2    1    4 2   
     3    1    7 1   
     4    2    3 1   
     5    2    8 1   
     6    3    6 2   
     7    4    5 1   
     8    4    6 1   
     9    5    9 1   
    10    5   10 1   
    11    5   11 1   
    12    6   12 1   
@<TRIPOS>SUBSTRUCTURE
     1 4PZ         1 TEMP              0 ****  ****    0 ROOT
