@<TRIPOS>MOLECULE
4PZ
   12    12     1     0     0
SMALL
bcc


@<TRIPOS>ATOM
      1 C3         -0.0920   -1.1360    0.0800 cc        1 4PZ     -0.150300
      2 N2         -1.3900   -0.6200    0.0270 na        1 4PZ     -0.024600
      3 N1         -1.4050    0.7090   -0.0810 nc        1 4PZ     -0.515800
      4 C4          0.7740   -0.0330   -0.0010 cd        1 4PZ     -0.246600
      5 C19         2.2330   -0.0200    0.0080 c3        1 4PZ     -0.015800
      6 C5         -0.1090    1.1130   -0.1020 cd        1 4PZ      0.293200
      7 H3          0.1100   -2.2010    0.1690 h4        1 4PZ      0.175000
      8 HN2        -2.2390   -1.1310    0.0610 hn        1 4PZ      0.318700
      9 H19         2.6280    0.3370   -0.9780 hc        1 4PZ      0.041700
     10 H19A        2.6150    0.6680    0.8040 hc        1 4PZ      0.041700
     11 H19B        2.6420   -1.0430    0.2000 hc        1 4PZ      0.041700
     12 H5          0.1730    2.1630   -0.1840 h4        1 4PZ      0.042100
@<TRIPOS>BOND
     1    1    2 1   
     2    1    4 2   
     3    1    7 1   
     4    2    3 1   
     5    2    8 1   
     6    3    6 2   
     7    4    5 1   
     8    4    6 1   
     9    5    9 1   
    10    5   10 1   
    11    5   11 1   
    12    6   12 1   
@<TRIPOS>SUBSTRUCTURE
     1 4PZ         1 TEMP              0 ****  ****    0 ROOT
