@<TRIPOS>MOLECULE
4PZ
   12     8     1     0     0
SMALL
bcc


@<TRIPOS>ATOM
      1 C3          0.2490   -0.0200   -1.1350 c1        1 4PZ     -0.149000
      2 N2          1.5980   -0.0200   -1.1350 n2        1 4PZ     -0.126000
      3 N1          2.0230   -0.0200    0.1700 n2        1 4PZ     -0.126000
      4 C4         -0.1730   -0.0200    0.1630 c1        1 4PZ     -0.174000
      5 C19        -1.6110    0.0320    0.6320 c2        1 4PZ     -0.141000
      6 C5          0.9320   -0.0200    0.9640 c1        1 4PZ     -0.149000
      7 H3         -0.3250   -0.0200   -1.9240 DU        1 4PZ      0.207667
      8 HN2         2.1340   -0.0200   -1.8730 DU        1 4PZ      0.207667
      9 H19        -1.7890   -0.7260    1.2210 ha        1 4PZ      0.081000
     10 H19A       -1.7650    0.8650    1.1170 ha        1 4PZ      0.081000
     11 H19B       -2.2060   -0.0100   -0.1410 ha        1 4PZ      0.081000
     12 H5          0.9330   -0.0200    1.9410 DU        1 4PZ      0.207667
@<TRIPOS>BOND
     1    1    2 1   
     2    1    4 1   
     3    2    3 1   
     4    3    6 1   
     5    4    6 1   
     6    5    9 1   
     7    5   10 1   
     8    5   11 1   
@<TRIPOS>SUBSTRUCTURE
     1 4PZ         1 TEMP              0 ****  ****    0 ROOT
