@<TRIPOS>MOLECULE
4PZ
   12    12     1     0     0
SMALL
bcc


@<TRIPOS>ATOM
      1 C3         -0.0290    0.0020   -0.0390 cc        1 4PZ     -0.150300
      2 N2          1.3670    0.0010    0.0260 na        1 4PZ     -0.024600
      3 N1          1.8170   -0.0020    1.2810 nc        1 4PZ     -0.515800
      4 C4         -0.4850   -0.0000    1.2900 cd        1 4PZ     -0.246600
      5 C19        -1.8600   -0.0000    1.7790 c3        1 4PZ     -0.015800
      6 C5          0.7260   -0.0030    2.0880 cd        1 4PZ      0.293200
      7 H3         -0.5700    0.0040   -0.9840 h4        1 4PZ      0.175000
      8 HN2         2.0020    0.0020   -0.7360 hn        1 4PZ      0.318700
      9 H19        -2.0520   -0.9050    2.4100 hc        1 4PZ      0.041700
     10 H19A       -2.0530    0.9070    2.4060 hc        1 4PZ      0.041700
     11 H19B       -2.5880   -0.0020    0.9300 hc        1 4PZ      0.041700
     12 H5          0.8040   -0.0040    3.1740 h4        1 4PZ      0.042100
@<TRIPOS>BOND
     1    1    2 1   
     2    1    4 2   
     3    1    7 1   
     4    2    3 1   
     5    2    8 1   
     6    3    6 2   
     7    4    5 1   
     8    4    6 1   
     9    5    9 1   
    10    5   10 1   
    11    5   11 1   
    12    6   12 1   
@<TRIPOS>SUBSTRUCTURE
     1 4PZ         1 TEMP              0 ****  ****    0 ROOT
