@<TRIPOS>MOLECULE
4Q0
   61    65     1     0     0
SMALL
bcc


@<TRIPOS>ATOM
      1 C2         -0.0810    0.0390   -0.1470 ca        1 4Q0     -0.124000
      2 C3          1.3340   -0.0080   -0.0780 ca        1 4Q0      0.188400
      3 C5          1.4100   -0.1080   -2.5260 ca        1 4Q0     -0.060000
      4 C9          5.5390   -0.1190    0.2040 ca        1 4Q0     -0.011400
      5 C11         3.0680    0.0450    3.7350 c3        1 4Q0      0.117000
      6 C12         6.2330   -1.3430    0.1800 ca        1 4Q0     -0.079000
      7 C13         7.6190   -1.3730    0.3130 ca        1 4Q0     -0.178500
      8 C15         7.6450    1.0580    0.4870 ca        1 4Q0     -0.178500
      9 C18        10.4160   -1.3090    0.5320 c3        1 4Q0      0.111700
     10 N19         3.7430    0.0650    5.0020 n         1 4Q0     -0.532400
     11 C20         4.0560    1.2420    5.7290 c         1 4Q0      0.719100
     12 C21         4.7570    0.7990    6.9810 ca        1 4Q0     -0.100600
     13 C22         4.8490   -0.6210    6.9490 ca        1 4Q0     -0.189600
     14 C           0.0250   -0.0610   -2.5690 ca        1 4Q0     -0.155000
     15 N           1.9780    0.0180    1.1630 nc        1 4Q0     -0.634100
     16 C1         -0.7130    0.0120   -1.3800 ca        1 4Q0     -0.095000
     17 C4          2.0690   -0.0810   -1.2890 ca        1 4Q0     -0.191600
     18 C6          3.2960   -0.0220    1.2030 cd        1 4Q0      0.515900
     19 N7          4.1200   -0.0900    0.0560 n         1 4Q0     -0.325500
     20 C8          3.5430   -0.1300   -1.2370 c         1 4Q0      0.714100
     21 C14         8.3250   -0.1750    0.4680 ca        1 4Q0      0.136100
     22 C16         6.2650    1.0830    0.3520 ca        1 4Q0     -0.079000
     23 O17         9.6930   -0.0850    0.6160 os        1 4Q0     -0.323900
     24 C23         4.2140   -1.0990    5.6840 c         1 4Q0      0.735100
     25 C24         5.2550    1.5390    8.0290 ca        1 4Q0     -0.104000
     26 C25         5.8680    0.8390    9.0860 ca        1 4Q0     -0.079000
     27 C26         5.9710   -0.5430    9.0800 ca        1 4Q0     -0.195000
     28 C27         5.4600   -1.3040    7.9980 ca        1 4Q0      0.205100
     29 O28         4.0850   -2.2470    5.2550 o         1 4Q0     -0.558500
     30 O29         3.7840    2.3910    5.3750 o         1 4Q0     -0.572500
     31 O30         5.5270   -2.6660    7.8850 os        1 4Q0     -0.303900
     32 C31         6.1170   -3.4100    8.9730 c3        1 4Q0      0.139100
     33 C32         5.1370   -3.5300   10.1230 c3        1 4Q0     -0.112600
     34 C33         6.4360   -4.7680    8.3710 c3        1 4Q0     -0.112600
     35 H1         -0.6700    0.0960    0.7810 ha        1 4Q0      0.152000
     36 H2          2.0100   -0.1650   -3.4490 ha        1 4Q0      0.158000
     37 H3          4.6930    0.9050    2.5490 hc        1 4Q0      0.080700
     38 H4          4.6690   -0.9140    2.6000 hc        1 4Q0      0.080700
     39 H5          2.4260    0.9700    3.6720 h1        1 4Q0      0.085200
     40 H6          2.4060   -0.8690    3.7120 h1        1 4Q0      0.085200
     41 H7          5.6870   -2.2910    0.0460 ha        1 4Q0      0.147000
     42 H8          8.1410   -2.3400    0.2900 ha        1 4Q0      0.149000
     43 H9          8.2190    1.9900    0.6020 ha        1 4Q0      0.149000
     44 H10        10.1230   -1.9960    1.3620 h1        1 4Q0      0.046700
     45 H11        11.4830   -0.9870    0.6440 h1        1 4Q0      0.046700
     46 H12        10.2530   -1.7970   -0.4590 h1        1 4Q0      0.046700
     47 H13        -0.4980   -0.0810   -3.5370 ha        1 4Q0      0.139000
     48 H14        -1.8120    0.0480   -1.4270 ha        1 4Q0      0.136000
     49 H15         5.7410    2.0520    0.3570 ha        1 4Q0      0.147000
     50 H16         5.1780    2.6360    8.0450 ha        1 4Q0      0.161000
     51 H17         6.2740    1.4080    9.9370 ha        1 4Q0      0.143000
     52 H18         6.4520   -1.0510    9.9280 ha        1 4Q0      0.147000
     53 H19         7.0660   -2.9060    9.3030 h1        1 4Q0      0.047700
     54 H20         4.2050   -4.0430    9.7840 hc        1 4Q0      0.052533
     55 H21         4.8600   -2.5210   10.5110 hc        1 4Q0      0.052533
     56 H22         5.5980   -4.1230   10.9480 hc        1 4Q0      0.052533
     57 H23         5.5090   -5.2420    7.9690 hc        1 4Q0      0.052533
     58 H24         6.8730   -5.4230    9.1610 hc        1 4Q0      0.052533
     59 H25         7.1660   -4.6570    7.5350 hc        1 4Q0      0.052533
     60 C10         4.0220    0.0030    2.5370 c3        1 4Q0     -0.141700
     61 O           4.2660   -0.2020   -2.2460 o         1 4Q0     -0.607500
@<TRIPOS>BOND
     1    1    2 ar  
     2    1   16 ar  
     3    1   35 1   
     4    2   15 1   
     5    2   17 ar  
     6    3   14 ar  
     7    3   17 ar  
     8    3   36 1   
     9    4    6 ar  
    10    4   19 1   
    11    4   22 ar  
    12    5   10 1   
    13    5   39 1   
    14    5   40 1   
    15    5   60 1   
    16    6    7 ar  
    17    6   41 1   
    18    7   21 ar  
    19    7   42 1   
    20    8   21 ar  
    21    8   22 ar  
    22    8   43 1   
    23    9   23 1   
    24    9   44 1   
    25    9   45 1   
    26    9   46 1   
    27   10   11 1   
    28   10   24 1   
    29   11   12 1   
    30   11   30 2   
    31   12   13 ar  
    32   12   25 ar  
    33   13   24 1   
    34   13   28 ar  
    35   14   16 ar  
    36   14   47 1   
    37   15   18 2   
    38   16   48 1   
    39   17   20 1   
    40   18   19 1   
    41   18   60 1   
    42   19   20 1   
    43   20   61 2   
    44   21   23 1   
    45   22   49 1   
    46   24   29 2   
    47   25   26 ar  
    48   25   50 1   
    49   26   27 ar  
    50   26   51 1   
    51   27   28 ar  
    52   27   52 1   
    53   28   31 1   
    54   31   32 1   
    55   32   33 1   
    56   32   34 1   
    57   32   53 1   
    58   33   54 1   
    59   33   55 1   
    60   33   56 1   
    61   34   57 1   
    62   34   58 1   
    63   34   59 1   
    64   37   60 1   
    65   38   60 1   
@<TRIPOS>SUBSTRUCTURE
     1 4Q0         1 TEMP              0 ****  ****    0 ROOT
