@<TRIPOS>MOLECULE
4Q0
   61    82     1     0     0
SMALL
bcc


@<TRIPOS>ATOM
      1 C2          0.0000    0.0000    0.0000 c3        1 4Q0     -0.132000
      2 C3          1.3960    0.0000    0.0000 c3        1 4Q0     -0.324000
      3 C5          1.3790   -0.0020   -2.4310 c3        1 4Q0      0.172000
      4 C9          5.5520   -0.0000    0.1070 DU        1 4Q0     -0.514000
      5 C11         3.0950   -0.0340    3.6150 c3        1 4Q0      0.140000
      6 C12         6.2200   -1.1320    0.5520 c3        1 4Q0     -0.250000
      7 C13         7.5980   -1.1320    0.6390 c2        1 4Q0     -0.337000
      8 C15         7.6480    1.1330   -0.1640 c2        1 4Q0     -0.137000
      9 C18        10.2930   -1.2000    0.8290 c3        1 4Q0     -0.249000
     10 N19         3.7900   -0.0340    4.9040 n         1 4Q0     -0.133000
     11 C20         4.1280    1.0760    5.5860 c2        1 4Q0      0.324000
     12 C21         4.8100    0.6700    6.8320 c3        1 4Q0     -0.420000
     13 C22         4.8390   -0.7400    6.8150 c2        1 4Q0     -0.134000
     14 C           0.0020   -0.0010   -2.4050 c2        1 4Q0      0.000000
     15 N           2.1080    0.0000    1.1550 n2        1 4Q0     -0.082000
     16 C1         -0.6830    0.0000   -1.1960 c2        1 4Q0     -0.049000
     17 C4          2.0880   -0.0010   -1.2320 c3        1 4Q0     -0.501000
     18 C6          3.4050   -0.0000    1.1550 c3        1 4Q0      0.476000
     19 N7          4.1530   -0.0010    0.0180 n         1 4Q0      0.222000
     20 C8          3.5580   -0.0010   -1.1980 c2        1 4Q0      0.253000
     21 C14         8.3160    0.0010    0.2810 c3        1 4Q0     -0.014000
     22 C16         6.2700    1.1350   -0.2460 c3        1 4Q0      0.013000
     23 O17         9.6730   -0.0010    0.3620 os        1 4Q0      0.024000
     24 C23         4.1700   -1.1430    5.5640 c2        1 4Q0      0.319000
     25 C24         5.3660    1.3570    7.8980 c3        1 4Q0     -0.094000
     26 C25         5.9480    0.6560    8.9440 c2        1 4Q0      0.285000
     27 C26         5.9800   -0.7230    8.9330 c2        1 4Q0     -0.265000
     28 C27         5.4250   -1.4330    7.8700 c2        1 4Q0      0.130000
     29 O28         3.9970   -2.2850    5.1880 o         1 4Q0     -0.273000
     30 O29         3.9090    2.2180    5.2370 o         1 4Q0     -0.267000
     31 O30         5.4580   -2.7880    7.8620 os        1 4Q0     -0.206000
     32 C31         6.0260   -3.4290    9.0060 DU        1 4Q0     -0.050000
     33 C32         4.9620   -3.5570   10.0990 c3        1 4Q0     -0.345000
     34 C33         6.5240   -4.8220    8.6150 c3        1 4Q0     -0.070000
     35 H1          0.9260   -0.0720    0.5580 DU        1 4Q0      0.381000
     36 H2          2.4450   -0.1660   -2.3290 DU        1 4Q0      0.315000
     37 H3          3.0920    0.0000    2.1410 DU        1 4Q0      0.176000
     38 H4          3.7390   -0.0000    1.4670 ha        1 4Q0     -0.516000
     39 H5          3.7340   -0.7010    3.0500 DU        1 4Q0      0.045000
     40 H6          4.0330    0.1400    3.1020 DU        1 4Q0      0.045000
     41 H7          5.4520   -0.6890    1.1740 DU        1 4Q0      0.361000
     42 H8          6.6570   -1.0730    1.1720 DU        1 4Q0      0.284000
     43 H9          7.0900    0.2480    0.1150 DU        1 4Q0      0.160000
     44 H10         9.2820   -1.5820    0.9030 h1        1 4Q0      0.117667
     45 H11         9.6610   -0.3840    0.5020 h1        1 4Q0      0.117667
     46 H12         9.9530   -2.0390    0.2330 h1        1 4Q0      0.117667
     47 H13         0.9910   -0.1350   -1.9830 DU        1 4Q0     -0.117000
     48 H14         0.3830   -0.0980   -1.0250 DU        1 4Q0      0.152000
     49 H15         5.2940    0.9720   -0.6880 DU        1 4Q0      0.242000
     50 H16         4.7020    1.2310    7.0520 DU        1 4Q0      0.350000
     51 H17         5.9250    0.8100    7.8720 DU        1 4Q0      0.035000
     52 H18         5.7770    0.2900    8.6080 ha        1 4Q0     -0.048000
     53 H19         6.1080   -2.3640    9.1850 ha        1 4Q0      0.236000
     54 H20         5.5440   -2.6530    9.9650 hc        1 4Q0      0.085000
     55 H21         5.9170   -3.1950    9.7360 DU        1 4Q0      0.126000
     56 H22         4.0590   -3.9810    9.6770 hc        1 4Q0      0.085000
     57 H23         5.9630   -4.1130    9.2120 DU        1 4Q0      0.290000
     58 H24         6.0360   -4.5700    9.5480 DU        1 4Q0     -0.128000
     59 H25         5.7570   -5.5530    8.8410 hc        1 4Q0     -0.004000
     60 C10         4.1210    0.0000    2.4800 DU        1 4Q0     -0.100000
     61 O           4.2140   -0.0020   -2.2230 o         1 4Q0     -0.320000
@<TRIPOS>BOND
     1    1    2 1   
     2    1   16 1   
     3    1   35 1   
     4    1   48 1   
     5    2   15 1   
     6    2   17 1   
     7    2   35 1   
     8    3   14 1   
     9    3   17 1   
    10    3   36 1   
    11    3   47 1   
    12    4    6 1   
    13    4   19 1   
    14    4   22 1   
    15    4   41 1   
    16    4   49 1   
    17    5   10 1   
    18    5   39 1   
    19    5   40 1   
    20    5   60 1   
    21    6    7 1   
    22    6   41 1   
    23    6   42 1   
    24    7   21 1   
    25    7   42 1   
    26    8   21 1   
    27    8   22 1   
    28    8   43 1   
    29    9   23 1   
    30    9   44 1   
    31    9   45 1   
    32    9   46 1   
    33   10   11 1   
    34   10   24 1   
    35   11   12 1   
    36   11   30 1   
    37   12   13 1   
    38   12   25 1   
    39   12   50 1   
    40   13   24 1   
    41   13   28 1   
    42   14   16 1   
    43   14   47 1   
    44   15   18 1   
    45   16   48 1   
    46   17   20 1   
    47   17   36 1   
    48   18   19 1   
    49   18   37 1   
    50   18   60 1   
    51   19   20 1   
    52   20   61 1   
    53   21   23 1   
    54   21   43 1   
    55   22   43 1   
    56   22   49 1   
    57   24   29 1   
    58   25   26 1   
    59   25   50 1   
    60   25   51 1   
    61   26   27 1   
    62   26   51 1   
    63   27   28 1   
    64   27   52 1   
    65   28   31 1   
    66   31   32 1   
    67   32   33 1   
    68   32   34 1   
    69   32   53 1   
    70   32   55 1   
    71   32   57 1   
    72   33   54 1   
    73   33   55 1   
    74   33   56 1   
    75   34   57 1   
    76   34   58 1   
    77   34   59 1   
    78   37   60 1   
    79   38   60 1   
    80   39   60 1   
    81   40   60 1   
    82   57   58 1   
@<TRIPOS>SUBSTRUCTURE
     1 4Q0         1 TEMP              0 ****  ****    0 ROOT
