@<TRIPOS>MOLECULE
4Q1
   68    72     1     0     0
SMALL
bcc


@<TRIPOS>ATOM
      1 C1         -0.3920    0.0320    0.2090 c3        1 4Q1      0.115700
      2 O1          1.0240   -0.0940    0.2000 os        1 4Q1     -0.332900
      3 C2          1.6610    0.0420    1.4230 ca        1 4Q1      0.136100
      4 C3          3.0540   -0.0650    1.3550 ca        1 4Q1     -0.176000
      5 C4          3.7620    0.0560    2.5570 ca        1 4Q1     -0.012200
      6 C5          3.0730    0.2740    3.8110 ca        1 4Q1     -0.090800
      7 C6          1.6840    0.3850    3.8260 ca        1 4Q1     -0.045000
      8 C7          0.9780    0.2670    2.6380 ca        1 4Q1     -0.220000
      9 N18         5.1480    0.0400    2.8010 na        1 4Q1     -0.050400
     10 C19         5.3340    0.1870    4.1820 cc        1 4Q1     -0.062300
     11 C20         4.0980    0.3470    4.8210 cd        1 4Q1     -0.142400
     12 C21         6.1300   -0.2860    1.8060 c3        1 4Q1      0.076500
     13 C22         6.4060   -1.7450    1.6150 c2        1 4Q1     -0.208200
     14 C23         7.0640   -2.2120    0.5420 c2        1 4Q1     -0.108400
     15 C24         7.3450   -3.6590    0.3740 c3        1 4Q1     -0.063400
     16 C26         7.5490   -1.3280   -0.5450 c3        1 4Q1     -0.063400
     17 C33         3.9320    0.5230    6.2780 c3        1 4Q1      0.247300
     18 C34         5.3250    0.5330    7.0440 c3        1 4Q1      0.201200
     19 N35         6.3990   -0.1750    6.3420 n         1 4Q1     -0.475800
     20 C36         6.6130    0.3020    4.9670 c3        1 4Q1      0.204100
     21 C37         7.8020   -0.3200    4.3050 c2        1 4Q1     -0.195200
     22 C38         9.0080    0.2660    4.2340 c2        1 4Q1     -0.089400
     23 C39        10.1430   -0.4050    3.5510 c3        1 4Q1     -0.067900
     24 C40         9.3100    1.6030    4.8020 c3        1 4Q1     -0.067900
     25 O41         3.2330    1.7240    6.5300 oh        1 4Q1     -0.571800
     26 C42         5.0110   -0.0180    8.4690 c         1 4Q1      0.647500
     27 N43         5.8130   -0.9910    9.0390 n         1 4Q1     -0.425800
     28 C44         6.7380   -1.7720    8.2270 c3        1 4Q1      0.010700
     29 C45         6.7150   -1.4820    6.7220 c         1 4Q1      0.693500
     30 O46         4.0670    0.4980    9.0960 o         1 4Q1     -0.612500
     31 O47         7.0950   -2.3570    5.9280 o         1 4Q1     -0.598500
     32 O48         5.6510    1.9090    7.1910 oh        1 4Q1     -0.558800
     33 C53         5.2910   -1.8240   10.1200 c3        1 4Q1      0.069000
     34 C54         5.6160   -3.2900    9.7860 c3        1 4Q1     -0.101400
     35 C55         6.4830   -3.2650    8.5330 c3        1 4Q1     -0.085400
     36 H1         -0.8560   -0.7680    0.8360 h1        1 4Q1      0.042700
     37 H2         -0.6710   -0.1000   -0.8680 h1        1 4Q1      0.042700
     38 H3         -0.6980    1.0420    0.5730 h1        1 4Q1      0.042700
     39 H4          3.5510   -0.2400    0.3930 ha        1 4Q1      0.150000
     40 H5          1.1630    0.5790    4.7760 ha        1 4Q1      0.145000
     41 H6         -0.1170    0.3540    2.6500 ha        1 4Q1      0.135000
     42 H7          5.7700    0.1530    0.8260 h1        1 4Q1      0.070700
     43 H8          7.0970    0.2340    2.0790 h1        1 4Q1      0.070700
     44 H9          6.0520   -2.4290    2.4030 ha        1 4Q1      0.146000
     45 H10         6.9040   -4.0240   -0.5870 hc        1 4Q1      0.043867
     46 H11         8.4500   -3.8330    0.3400 hc        1 4Q1      0.043867
     47 H12         6.9180   -4.2630    1.2120 hc        1 4Q1      0.043867
     48 H13         8.1170   -0.4600   -0.1250 hc        1 4Q1      0.043867
     49 H14         8.2200   -1.8810   -1.2470 hc        1 4Q1      0.043867
     50 H15         6.6840   -0.9260   -1.1300 hc        1 4Q1      0.043867
     51 H16         3.3390   -0.3450    6.6950 h1        1 4Q1      0.048700
     52 H17         6.7970    1.4230    5.0810 h1        1 4Q1      0.091700
     53 H18         7.6310   -1.3270    3.8840 ha        1 4Q1      0.159000
     54 H19        10.9660   -0.5950    4.2840 hc        1 4Q1      0.046200
     55 H20         9.8380   -1.3820    3.1030 hc        1 4Q1      0.046200
     56 H21        10.5430    0.2510    2.7380 hc        1 4Q1      0.046200
     57 H22         8.7850    2.4010    4.2180 hc        1 4Q1      0.046200
     58 H23         8.9720    1.6700    5.8660 hc        1 4Q1      0.046200
     59 H24        10.4070    1.8140    4.7700 hc        1 4Q1      0.046200
     60 H25         3.2950    1.8930    7.4830 ho        1 4Q1      0.429000
     61 H26         7.7850   -1.4990    8.5640 h1        1 4Q1      0.091700
     62 H27         6.4340    1.9800    7.7540 ho        1 4Q1      0.416000
     63 H28         5.8030   -1.5110   11.0720 h1        1 4Q1      0.069700
     64 H29         4.1860   -1.6600   10.2460 h1        1 4Q1      0.069700
     65 H30         6.1550   -3.7680   10.6390 hc        1 4Q1      0.059200
     66 H31         4.6750   -3.8670    9.6080 hc        1 4Q1      0.059200
     67 H32         5.9720   -3.7580    7.6690 hc        1 4Q1      0.071700
     68 H33         7.4570   -3.7860    8.6940 hc        1 4Q1      0.071700
@<TRIPOS>BOND
     1    1    2 1   
     2    1   36 1   
     3    1   37 1   
     4    1   38 1   
     5    2    3 1   
     6    3    4 ar  
     7    3    8 ar  
     8    4    5 ar  
     9    4   39 1   
    10    5    6 ar  
    11    5    9 1   
    12    6    7 ar  
    13    6   11 1   
    14    7    8 ar  
    15    7   40 1   
    16    8   41 1   
    17    9   10 1   
    18    9   12 1   
    19   10   11 2   
    20   10   20 1   
    21   11   17 1   
    22   12   13 1   
    23   12   42 1   
    24   12   43 1   
    25   13   14 2   
    26   13   44 1   
    27   14   15 1   
    28   14   16 1   
    29   15   45 1   
    30   15   46 1   
    31   15   47 1   
    32   16   48 1   
    33   16   49 1   
    34   16   50 1   
    35   17   18 1   
    36   17   25 1   
    37   17   51 1   
    38   18   19 1   
    39   18   26 1   
    40   18   32 1   
    41   19   20 1   
    42   19   29 1   
    43   20   21 1   
    44   20   52 1   
    45   21   22 2   
    46   21   53 1   
    47   22   23 1   
    48   22   24 1   
    49   23   54 1   
    50   23   55 1   
    51   23   56 1   
    52   24   57 1   
    53   24   58 1   
    54   24   59 1   
    55   25   60 1   
    56   26   27 1   
    57   26   30 2   
    58   27   28 1   
    59   27   33 1   
    60   28   29 1   
    61   28   35 1   
    62   28   61 1   
    63   29   31 2   
    64   32   62 1   
    65   33   34 1   
    66   33   63 1   
    67   33   64 1   
    68   34   35 1   
    69   34   65 1   
    70   34   66 1   
    71   35   67 1   
    72   35   68 1   
@<TRIPOS>SUBSTRUCTURE
     1 4Q1         1 TEMP              0 ****  ****    0 ROOT
