@<TRIPOS>MOLECULE
4Q3
   65    69     1     0     0
SMALL
bcc


@<TRIPOS>ATOM
      1 C15         0.0790    0.0300    0.0950 ca        1 4Q3     -0.129000
      2 C17         2.0840   -0.2220   -1.3040 cc        1 4Q3     -0.055300
      3 O1          0.7680   -2.4270   -4.6650 o         1 4Q3     -0.591100
      4 C20         1.7520   -2.0120   -5.3020 c         1 4Q3      0.669100
      5 C21         1.9900   -2.4250   -6.7370 c3        1 4Q3     -0.176100
      6 N2          2.6960   -1.1540   -4.7550 n         1 4Q3     -0.535400
      7 C19         2.6540   -0.6520   -3.4520 cd        1 4Q3      0.413200
      8 C18         1.6790   -0.9700   -2.4240 cd        1 4Q3     -0.273300
      9 N3          3.5830    0.2470   -2.9540 nc        1 4Q3     -0.554800
     10 N4          3.2400    0.4860   -1.6840 na        1 4Q3      0.106400
     11 C22         3.9460    1.4660   -0.8510 c3        1 4Q3      0.070000
     12 C24         5.3560    1.0050   -0.4840 c3        1 4Q3     -0.106100
     13 C23         4.0190    2.8490   -1.4940 c3        1 4Q3     -0.106100
     14 C16         1.4560   -0.1930    0.0060 ca        1 4Q3     -0.013000
     15 C9         -0.5800    0.0300    1.3380 ca        1 4Q3      0.094600
     16 N1         -1.9880    0.2510    1.4690 nh        1 4Q3     -0.629000
     17 C14        -2.3970    1.6460    1.2060 c3        1 4Q3      0.184300
     18 C13        -3.6080    1.6220    0.2880 cx        1 4Q3     -0.145200
     19 C12        -4.8350    0.9370    0.8240 cx        1 4Q3     -0.109400
     20 C11        -3.8830    0.1630   -0.0460 cx        1 4Q3     -0.145200
     21 C10        -2.8270   -0.6630    0.6720 c3        1 4Q3      0.184300
     22 C25         2.1960   -0.4200    1.1720 ca        1 4Q3     -0.125000
     23 C26         1.5690   -0.4180    2.4120 ca        1 4Q3     -0.114000
     24 C8          0.1830   -0.1960    2.5210 ca        1 4Q3      0.058600
     25 N          -0.4140   -0.2190    3.8190 n         1 4Q3     -0.360000
     26 C7         -0.9360   -1.4980    4.2290 c3        1 4Q3      0.076300
     27 C          -0.9520    0.9660    4.3310 c         1 4Q3      0.689700
     28 O          -0.7020    2.0750    3.8290 o         1 4Q3     -0.563100
     29 C1         -1.7830    0.8700    5.5740 ca        1 4Q3     -0.163600
     30 C6         -3.1870    0.9910    5.4890 ca        1 4Q3      0.170900
     31 F          -3.7930    1.1240    4.2870 f         1 4Q3     -0.120900
     32 C5         -3.9740    0.9730    6.6570 ca        1 4Q3     -0.173000
     33 C4         -3.3600    0.8410    7.8970 ca        1 4Q3     -0.086000
     34 C3         -1.9750    0.7260    7.9960 ca        1 4Q3     -0.147000
     35 C2         -1.1920    0.7410    6.8370 ca        1 4Q3      0.063400
     36 CL          0.4930    0.6050    6.9840 cl        1 4Q3     -0.065400
     37 H1         -0.4950    0.2060   -0.8300 ha        1 4Q3      0.151000
     38 H2          1.9920   -1.5320   -7.4080 hc        1 4Q3      0.068367
     39 H3          1.1650   -3.1110   -7.0490 hc        1 4Q3      0.068367
     40 H4          2.9650   -2.9600   -6.8360 hc        1 4Q3      0.068367
     41 H5          3.4500   -0.8520   -5.3300 hn        1 4Q3      0.326500
     42 H6          0.8350   -1.6470   -2.5170 ha        1 4Q3      0.195000
     43 H7          3.3340    1.5480    0.1000 h1        1 4Q3      0.073700
     44 H8          5.9950    0.9110   -1.3950 hc        1 4Q3      0.049200
     45 H9          5.3320    0.0200    0.0400 hc        1 4Q3      0.049200
     46 H10         5.8110    1.7630    0.1980 hc        1 4Q3      0.049200
     47 H11         4.6570    2.8320   -2.4100 hc        1 4Q3      0.049200
     48 H12         4.4650    3.5590   -0.7570 hc        1 4Q3      0.049200
     49 H13         3.0020    3.2160   -1.7730 hc        1 4Q3      0.049200
     50 H14        -2.6510    2.0950    2.2070 h1        1 4Q3      0.059450
     51 H15        -1.5720    2.2530    0.7440 h1        1 4Q3      0.059450
     52 H16        -3.6860    2.4410   -0.4380 hc        1 4Q3      0.095200
     53 H17        -4.8870    0.7080    1.9050 hc        1 4Q3      0.075700
     54 H18        -5.8190    1.2160    0.4060 hc        1 4Q3      0.075700
     55 H19        -4.1850   -0.1910   -1.0400 hc        1 4Q3      0.095200
     56 H20        -3.3050   -1.3760    1.3980 h1        1 4Q3      0.059450
     57 H21        -2.2330   -1.2590   -0.0730 h1        1 4Q3      0.059450
     58 H22         3.2790   -0.6080    1.1080 ha        1 4Q3      0.140000
     59 H23         2.1680   -0.5920    3.3200 ha        1 4Q3      0.146000
     60 H24        -0.1990   -2.2960    3.9470 h1        1 4Q3      0.046367
     61 H25        -1.0720   -1.5090    5.3430 h1        1 4Q3      0.046367
     62 H26        -1.9200   -1.7230    3.7350 h1        1 4Q3      0.046367
     63 H27        -5.0660    1.0680    6.5720 ha        1 4Q3      0.156000
     64 H28        -3.9750    0.8310    8.8110 ha        1 4Q3      0.146000
     65 H29        -1.4980    0.6270    8.9830 ha        1 4Q3      0.155000
@<TRIPOS>BOND
     1    1   14 ar  
     2    1   15 ar  
     3    1   37 1   
     4    2    8 2   
     5    2   10 1   
     6    2   14 1   
     7    3    4 2   
     8    4    5 1   
     9    4    6 1   
    10    5   38 1   
    11    5   39 1   
    12    5   40 1   
    13    6    7 1   
    14    6   41 1   
    15    7    8 1   
    16    7    9 2   
    17    8   42 1   
    18    9   10 1   
    19   10   11 1   
    20   11   12 1   
    21   11   13 1   
    22   11   43 1   
    23   12   44 1   
    24   12   45 1   
    25   12   46 1   
    26   13   47 1   
    27   13   48 1   
    28   13   49 1   
    29   14   22 ar  
    30   15   16 1   
    31   15   24 ar  
    32   16   17 1   
    33   16   21 1   
    34   17   18 1   
    35   17   50 1   
    36   17   51 1   
    37   18   19 1   
    38   18   20 1   
    39   18   52 1   
    40   19   20 1   
    41   19   53 1   
    42   19   54 1   
    43   20   21 1   
    44   20   55 1   
    45   21   56 1   
    46   21   57 1   
    47   22   23 ar  
    48   22   58 1   
    49   23   24 ar  
    50   23   59 1   
    51   24   25 1   
    52   25   26 1   
    53   25   27 1   
    54   26   60 1   
    55   26   61 1   
    56   26   62 1   
    57   27   28 2   
    58   27   29 1   
    59   29   30 ar  
    60   29   35 ar  
    61   30   31 1   
    62   30   32 ar  
    63   32   33 ar  
    64   32   63 1   
    65   33   34 ar  
    66   33   64 1   
    67   34   35 ar  
    68   34   65 1   
    69   35   36 1   
@<TRIPOS>SUBSTRUCTURE
     1 4Q3         1 TEMP              0 ****  ****    0 ROOT
