@<TRIPOS>MOLECULE
4Q3
   65    69     1     0     0
SMALL
bcc


@<TRIPOS>ATOM
      1 C15         0.0790    0.0300    0.0950 ca        1 4Q3     -0.129000
      2 C17         2.0830   -0.2250   -1.3040 cc        1 4Q3     -0.055300
      3 O1          0.7610   -2.4200   -4.6690 o         1 4Q3     -0.591100
      4 C20         1.7470   -2.0080   -5.3050 c         1 4Q3      0.669100
      5 C21         1.9840   -2.4190   -6.7410 c3        1 4Q3     -0.176100
      6 N2          2.6940   -1.1530   -4.7560 ns        1 4Q3     -0.535400
      7 C19         2.6520   -0.6530   -3.4530 cd        1 4Q3      0.413200
      8 C18         1.6760   -0.9700   -2.4250 cd        1 4Q3     -0.273300
      9 N3          3.5840    0.2420   -2.9530 nc        1 4Q3     -0.554800
     10 N4          3.2410    0.4800   -1.6830 na        1 4Q3      0.106400
     11 C22         3.9500    1.4570   -0.8480 c3        1 4Q3      0.070000
     12 C24         5.3590    0.9920   -0.4820 c3        1 4Q3     -0.106100
     13 C23         4.0270    2.8410   -1.4900 c3        1 4Q3     -0.106100
     14 C16         1.4550   -0.1960    0.0050 ca        1 4Q3     -0.013000
     15 C9         -0.5810    0.0310    1.3370 ca        1 4Q3      0.094600
     16 N1         -1.9880    0.2550    1.4690 nh        1 4Q3     -0.629000
     17 C14        -2.3930    1.6520    1.2070 c3        1 4Q3      0.184300
     18 C13        -3.6040    1.6320    0.2890 cx        1 4Q3     -0.145200
     19 C12        -4.8330    0.9500    0.8250 cx        1 4Q3     -0.109400
     20 C11        -3.8830    0.1740   -0.0460 cx        1 4Q3     -0.145200
     21 C10        -2.8300   -0.6550    0.6700 c3        1 4Q3      0.184300
     22 C25         2.1940   -0.4260    1.1710 ca        1 4Q3     -0.125000
     23 C26         1.5670   -0.4250    2.4110 ca        1 4Q3     -0.114000
     24 C8          0.1820   -0.1990    2.5200 ca        1 4Q3      0.058600
     25 N          -0.4160   -0.2220    3.8190 n         1 4Q3     -0.360000
     26 C7         -0.9420   -1.5000    4.2270 c3        1 4Q3      0.076300
     27 C          -0.9500    0.9640    4.3320 c         1 4Q3      0.689700
     28 O          -0.6970    2.0730    3.8310 o         1 4Q3     -0.563100
     29 C1         -1.7820    0.8690    5.5740 ca        1 4Q3     -0.163600
     30 C6         -3.1860    0.9940    5.4890 ca        1 4Q3      0.170900
     31 F          -3.7910    1.1300    4.2870 f         1 4Q3     -0.120900
     32 C5         -3.9730    0.9770    6.6570 ca        1 4Q3     -0.173000
     33 C4         -3.3600    0.8420    7.8970 ca        1 4Q3     -0.086000
     34 C3         -1.9750    0.7230    7.9970 ca        1 4Q3     -0.147000
     35 C2         -1.1920    0.7370    6.8380 ca        1 4Q3      0.063400
     36 Cl          0.4930    0.5970    6.9840 cl        1 4Q3     -0.065400
     37 H1         -0.4950    0.2090   -0.8300 ha        1 4Q3      0.151000
     38 H2          1.1570   -3.1020   -7.0540 hc        1 4Q3      0.068367
     39 H3          1.9910   -1.5250   -7.4100 hc        1 4Q3      0.068367
     40 H4          2.9570   -2.9590   -6.8390 hc        1 4Q3      0.068367
     41 H5          3.4490   -0.8530   -5.3310 hn        1 4Q3      0.326500
     42 H6          0.8300   -1.6440   -2.5190 ha        1 4Q3      0.195000
     43 H7          3.3380    1.5390    0.1030 h1        1 4Q3      0.073700
     44 H8          5.9970    0.8960   -1.3920 hc        1 4Q3      0.049200
     45 H9          5.3320    0.0050    0.0410 hc        1 4Q3      0.049200
     46 H10         5.8160    1.7470    0.2020 hc        1 4Q3      0.049200
     47 H11         3.0110    3.2110   -1.7680 hc        1 4Q3      0.049200
     48 H12         4.6650    2.8240   -2.4050 hc        1 4Q3      0.049200
     49 H13         4.4750    3.5490   -0.7510 hc        1 4Q3      0.049200
     50 H14        -2.6460    2.1010    2.2090 h1        1 4Q3      0.059450
     51 H15        -1.5660    2.2570    0.7460 h1        1 4Q3      0.059450
     52 H16        -3.6800    2.4530   -0.4360 hc        1 4Q3      0.095200
     53 H17        -5.8160    1.2320    0.4070 hc        1 4Q3      0.075700
     54 H18        -4.8860    0.7200    1.9050 hc        1 4Q3      0.075700
     55 H19        -4.1860   -0.1780   -1.0410 hc        1 4Q3      0.095200
     56 H20        -3.3090   -1.3680    1.3950 h1        1 4Q3      0.059450
     57 H21        -2.2370   -1.2520   -0.0750 h1        1 4Q3      0.059450
     58 H22         3.2770   -0.6180    1.1070 ha        1 4Q3      0.140000
     59 H23         2.1660   -0.6020    3.3190 ha        1 4Q3      0.146000
     60 H24        -1.9260   -1.7220    3.7330 h1        1 4Q3      0.046367
     61 H25        -0.2070   -2.2990    3.9440 h1        1 4Q3      0.046367
     62 H26        -1.0780   -1.5110    5.3410 h1        1 4Q3      0.046367
     63 H27        -5.0650    1.0760    6.5720 ha        1 4Q3      0.156000
     64 H28        -3.9740    0.8330    8.8110 ha        1 4Q3      0.146000
     65 H29        -1.4980    0.6220    8.9830 ha        1 4Q3      0.155000
@<TRIPOS>BOND
     1    1   14 ar  
     2    1   15 ar  
     3    1   37 1   
     4    2    8 2   
     5    2   10 1   
     6    2   14 1   
     7    3    4 2   
     8    4    5 1   
     9    4    6 1   
    10    5   38 1   
    11    5   39 1   
    12    5   40 1   
    13    6    7 1   
    14    6   41 1   
    15    7    8 1   
    16    7    9 2   
    17    8   42 1   
    18    9   10 1   
    19   10   11 1   
    20   11   12 1   
    21   11   13 1   
    22   11   43 1   
    23   12   44 1   
    24   12   45 1   
    25   12   46 1   
    26   13   47 1   
    27   13   48 1   
    28   13   49 1   
    29   14   22 ar  
    30   15   16 1   
    31   15   24 ar  
    32   16   17 1   
    33   16   21 1   
    34   17   18 1   
    35   17   50 1   
    36   17   51 1   
    37   18   19 1   
    38   18   20 1   
    39   18   52 1   
    40   19   20 1   
    41   19   53 1   
    42   19   54 1   
    43   20   21 1   
    44   20   55 1   
    45   21   56 1   
    46   21   57 1   
    47   22   23 ar  
    48   22   58 1   
    49   23   24 ar  
    50   23   59 1   
    51   24   25 1   
    52   25   26 1   
    53   25   27 1   
    54   26   60 1   
    55   26   61 1   
    56   26   62 1   
    57   27   28 2   
    58   27   29 1   
    59   29   30 ar  
    60   29   35 ar  
    61   30   31 1   
    62   30   32 ar  
    63   32   33 ar  
    64   32   63 1   
    65   33   34 ar  
    66   33   64 1   
    67   34   35 ar  
    68   34   65 1   
    69   35   36 1   
@<TRIPOS>SUBSTRUCTURE
     1 4Q3         1 TEMP              0 ****  ****    0 ROOT
