@<TRIPOS>MOLECULE
4QA
   74    78     1     0     0
SMALL
bcc


@<TRIPOS>ATOM
      1 C1         -0.8650   -0.2440    0.9490 c3        1 4QA      0.068100
      2 C3          1.1460    0.3840    2.0610 c         1 4QA      0.808900
      3 C5          0.3690    0.0110   -0.0100 c2        1 4QA      0.462200
      4 C6         -1.3870   -1.6810    0.8160 c3        1 4QA     -0.102400
      5 N2         -0.1940   -0.0530    2.2600 n         1 4QA     -0.395000
      6 N4          1.4630    0.3580    0.6100 ne        1 4QA     -0.520100
      7 C7         -2.1850   -1.9690   -0.4570 c3        1 4QA      0.147800
      8 N8         -2.6150   -0.7710   -1.1650 n3        1 4QA     -0.783600
      9 C9         -3.0750    0.2570   -0.2400 c3        1 4QA      0.147800
     10 C10        -1.9540    0.7950    0.6460 c3        1 4QA     -0.102400
     11 O11         1.9690    0.6860    2.9210 o         1 4QA     -0.474500
     12 N12         0.2120   -0.1310   -1.4530 n4        1 4QA     -0.709000
     13 C13        -0.9330    0.2560    3.4310 ca        1 4QA      0.041600
     14 C14         1.4450    0.1700   -2.2850 c3        1 4QA      0.129500
     15 C15         2.4620   -0.9750   -2.2230 c3        1 4QA     -0.103900
     16 C16         3.6910   -0.5950   -3.0280 c3        1 4QA     -0.075900
     17 C17         3.3400   -0.2660   -4.4630 c3        1 4QA     -0.091400
     18 C18         2.2790    0.8110   -4.5350 c3        1 4QA     -0.075900
     19 C19         1.0430    0.4270   -3.7430 c3        1 4QA     -0.103900
     20 C20        -1.4710   -0.7950    4.2010 ca        1 4QA     -0.125000
     21 C21        -2.1780   -0.5080    5.3680 ca        1 4QA     -0.094000
     22 C22        -2.3620    0.8030    5.7930 ca        1 4QA     -0.141000
     23 C23        -1.8220    1.8550    5.0290 ca        1 4QA      0.147900
     24 C24        -1.1090    1.5890    3.8480 ca        1 4QA     -0.178000
     25 F25        -1.9900    3.1360    5.4290 f         1 4QA     -0.120900
     26 C26        -3.5840   -1.0570   -2.2230 c3        1 4QA      0.208100
     27 C27        -3.6960    0.0740   -3.2050 ca        1 4QA     -0.069300
     28 C28        -4.9230    0.7080   -3.4190 ca        1 4QA     -0.152000
     29 C29        -5.0150    1.7450   -4.3470 ca        1 4QA     -0.079000
     30 C30        -3.8940    2.1750   -5.0540 ca        1 4QA     -0.184000
     31 C31        -2.6650    1.5360   -4.8380 ca        1 4QA      0.138100
     32 C32        -2.5680    0.4740   -3.9210 ca        1 4QA     -0.179000
     33 O33        -1.4700    1.8840   -5.4300 os        1 4QA     -0.358900
     34 C34        -1.5340    2.6920   -6.6280 c3        1 4QA      0.141100
     35 C35        -1.4710    4.1590   -6.2550 c3        1 4QA     -0.112600
     36 C36        -0.3310    2.2750   -7.4540 c3        1 4QA     -0.112600
     37 H1         -2.0530   -1.8770    1.7030 hc        1 4QA      0.080450
     38 H2         -0.5340   -2.4060    0.8800 hc        1 4QA      0.080450
     39 H3         -1.5560   -2.5720   -1.1750 h1        1 4QA      0.059200
     40 H4         -3.0590   -2.6260   -0.1730 h1        1 4QA      0.059200
     41 H6         -3.9050   -0.1320    0.4220 h1        1 4QA      0.059200
     42 H7         -3.5000    1.1100   -0.8440 h1        1 4QA      0.059200
     43 H8         -1.4890    1.6960    0.1670 hc        1 4QA      0.080450
     44 H9         -2.4230    1.1490    1.6070 hc        1 4QA      0.080450
     45 H10        -0.5580    0.4980   -1.7480 hn        1 4QA      0.479300
     46 H11         1.9110    1.1110   -1.8620 hx        1 4QA      0.122700
     47 H12         2.0110   -1.9100   -2.6490 hc        1 4QA      0.069700
     48 H13         2.7690   -1.1830   -1.1650 hc        1 4QA      0.069700
     49 H14         4.1970    0.2850   -2.5480 hc        1 4QA      0.066950
     50 H15         4.4150   -1.4520   -3.0020 hc        1 4QA      0.066950
     51 H16         4.2610    0.0820   -5.0010 hc        1 4QA      0.062700
     52 H17         2.9760   -1.1900   -4.9850 hc        1 4QA      0.062700
     53 H18         1.9770    0.9810   -5.6030 hc        1 4QA      0.066950
     54 H19         2.6910    1.7790   -4.1450 hc        1 4QA      0.066950
     55 H20         0.5910   -0.4990   -4.1870 hc        1 4QA      0.069700
     56 H21         0.2840    1.2530   -3.8200 hc        1 4QA      0.069700
     57 H22        -1.3230   -1.8440    3.9010 ha        1 4QA      0.149000
     58 H23        -2.5880   -1.3360    5.9690 ha        1 4QA      0.157000
     59 H24        -2.9140    1.0280    6.7190 ha        1 4QA      0.169000
     60 H25        -0.6770    2.4300    3.2840 ha        1 4QA      0.157000
     61 H26        -4.6030   -1.2880   -1.7930 h1        1 4QA      0.060200
     62 H27        -3.2330   -1.9760   -2.7760 h1        1 4QA      0.060200
     63 H28        -5.8180    0.3870   -2.8660 ha        1 4QA      0.144000
     64 H29        -5.9860    2.2370   -4.5210 ha        1 4QA      0.151000
     65 H30        -3.9820    3.0050   -5.7700 ha        1 4QA      0.154000
     66 H31        -1.6070   -0.0420   -3.7950 ha        1 4QA      0.116000
     67 H32        -2.4810    2.4620   -7.1910 h1        1 4QA      0.061700
     68 H33        -0.5180    4.3840   -5.7190 hc        1 4QA      0.051533
     69 H34        -1.5190    4.7820   -7.1800 hc        1 4QA      0.051533
     70 H35        -2.3230    4.4340   -5.5880 hc        1 4QA      0.051533
     71 H36        -0.4120    1.2000   -7.7430 hc        1 4QA      0.051533
     72 H37         0.6110    2.4160   -6.8710 hc        1 4QA      0.051533
     73 H38        -0.2860    2.9010   -8.3770 hc        1 4QA      0.051533
     74 H122       -0.0840   -1.1020   -1.6360 hn        1 4QA      0.479300
@<TRIPOS>BOND
     1    1    3 1   
     2    1    4 1   
     3    1    5 1   
     4    1   10 1   
     5    2    5 1   
     6    2    6 1   
     7    2   11 2   
     8    3    6 2   
     9    3   12 1   
    10    4    7 1   
    11    4   37 1   
    12    4   38 1   
    13    5   13 1   
    14    7    8 1   
    15    7   39 1   
    16    7   40 1   
    17    8    9 1   
    18    8   26 1   
    19    9   10 1   
    20    9   41 1   
    21    9   42 1   
    22   10   43 1   
    23   10   44 1   
    24   12   14 1   
    25   12   45 1   
    26   12   74 1   
    27   13   20 ar  
    28   13   24 ar  
    29   14   15 1   
    30   14   19 1   
    31   14   46 1   
    32   15   16 1   
    33   15   47 1   
    34   15   48 1   
    35   16   17 1   
    36   16   49 1   
    37   16   50 1   
    38   17   18 1   
    39   17   51 1   
    40   17   52 1   
    41   18   19 1   
    42   18   53 1   
    43   18   54 1   
    44   19   55 1   
    45   19   56 1   
    46   20   21 ar  
    47   20   57 1   
    48   21   22 ar  
    49   21   58 1   
    50   22   23 ar  
    51   22   59 1   
    52   23   24 ar  
    53   23   25 1   
    54   24   60 1   
    55   26   27 1   
    56   26   61 1   
    57   26   62 1   
    58   27   28 ar  
    59   27   32 ar  
    60   28   29 ar  
    61   28   63 1   
    62   29   30 ar  
    63   29   64 1   
    64   30   31 ar  
    65   30   65 1   
    66   31   32 ar  
    67   31   33 1   
    68   32   66 1   
    69   33   34 1   
    70   34   35 1   
    71   34   36 1   
    72   34   67 1   
    73   35   68 1   
    74   35   69 1   
    75   35   70 1   
    76   36   71 1   
    77   36   72 1   
    78   36   73 1   
@<TRIPOS>SUBSTRUCTURE
     1 4QA         1 TEMP              0 ****  ****    0 ROOT
