@<TRIPOS>MOLECULE
4QA
   74    78     1     0     0
SMALL
bcc


@<TRIPOS>ATOM
      1 C1         -0.7730    0.0380    1.0420 c3        1 4QA      0.062100
      2 C3          1.1440    0.9630    2.1030 c         1 4QA      0.805900
      3 C5          0.2670    0.7020    0.0550 c2        1 4QA      0.471200
      4 C6         -0.9970   -1.4370    0.6750 c3        1 4QA     -0.100900
      5 N2         -0.0270    0.1750    2.3170 n         1 4QA     -0.390000
      6 N4          1.3100    1.2160    0.6500 ne        1 4QA     -0.526100
      7 C7         -2.2270   -1.6570   -0.2080 c3        1 4QA      0.143300
      8 N8         -2.5060   -0.5070   -1.0620 n3        1 4QA     -0.774600
      9 C9         -2.8900    0.6600   -0.2720 c3        1 4QA      0.143300
     10 C10        -2.0940    0.8180    1.0210 c3        1 4QA     -0.100900
     11 O11         1.9540    1.3350    2.9480 o         1 4QA     -0.473500
     12 N12         0.0260    0.7140   -1.3830 ny        1 4QA     -0.739000
     13 C13        -0.7050    0.1490    3.5640 ca        1 4QA      0.035600
     14 C14         1.2250    0.3120   -2.2250 c3        1 4QA      0.130500
     15 C15         1.1660   -1.1740   -2.5890 c3        1 4QA     -0.103400
     16 C16         2.4000   -1.5460   -3.3890 c3        1 4QA     -0.076400
     17 C17         2.5270   -0.6950   -4.6340 c3        1 4QA     -0.090400
     18 C18         2.5280    0.7800   -4.2940 c3        1 4QA     -0.076400
     19 C19         1.3000    1.1710   -3.4940 c3        1 4QA     -0.103400
     20 C20        -0.7770   -1.0660    4.2740 ca        1 4QA     -0.118000
     21 C21        -1.4180   -1.1090    5.5120 ca        1 4QA     -0.096000
     22 C22        -1.9900    0.0310    6.0650 ca        1 4QA     -0.139000
     23 C23        -1.9170    1.2470    5.3590 ca        1 4QA      0.145900
     24 C24        -1.2780    1.3130    4.1100 ca        1 4QA     -0.179000
     25 F25        -2.4690    2.3660    5.8820 f         1 4QA     -0.121900
     26 C26        -3.4650   -0.8060   -2.1270 c3        1 4QA      0.204100
     27 C27        -3.5240    0.2730   -3.1690 ca        1 4QA     -0.078300
     28 C28        -4.7040    0.9920   -3.3780 ca        1 4QA     -0.150000
     29 C29        -4.7550    1.9670   -4.3750 ca        1 4QA     -0.078000
     30 C30        -3.6370    2.2480   -5.1570 ca        1 4QA     -0.184000
     31 C31        -2.4540    1.5250   -4.9450 ca        1 4QA      0.138100
     32 C32        -2.4000    0.5260   -3.9560 ca        1 4QA     -0.190000
     33 O33        -1.2660    1.7340   -5.6080 os        1 4QA     -0.357900
     34 C34        -1.3260    2.4280   -6.8770 c3        1 4QA      0.141100
     35 C35        -1.1360    3.9140   -6.6510 c3        1 4QA     -0.112600
     36 C36        -0.1950    1.8410   -7.7030 c3        1 4QA     -0.112600
     37 H1         -1.1400   -2.0410    1.6140 hc        1 4QA      0.081950
     38 H2         -0.0810   -1.8380    0.1670 hc        1 4QA      0.081950
     39 H3         -2.0400   -2.5570   -0.8610 h1        1 4QA      0.063200
     40 H4         -3.1120   -1.8980    0.4500 h1        1 4QA      0.063200
     41 H6         -3.9870    0.6350   -0.0010 h1        1 4QA      0.063200
     42 H7         -2.7410    1.5630   -0.9320 h1        1 4QA      0.063200
     43 H8         -2.7200    0.4500    1.8820 hc        1 4QA      0.081950
     44 H9         -1.9030    1.9090    1.1980 hc        1 4QA      0.081950
     45 H10        -0.2560    1.6670   -1.6510 hn        1 4QA      0.486300
     46 H11         2.1630    0.5010   -1.6200 hx        1 4QA      0.123700
     47 H12         1.1220   -1.8020   -1.6600 hc        1 4QA      0.066950
     48 H13         0.2480   -1.3870   -3.2000 hc        1 4QA      0.066950
     49 H14         3.3140   -1.4240   -2.7500 hc        1 4QA      0.065200
     50 H15         2.3310   -2.6280   -3.6760 hc        1 4QA      0.065200
     51 H16         1.6800   -0.9200   -5.3340 hc        1 4QA      0.063200
     52 H17         3.4800   -0.9540   -5.1660 hc        1 4QA      0.063200
     53 H18         2.5410    1.3850   -5.2400 hc        1 4QA      0.065200
     54 H19         3.4540    1.0370   -3.7160 hc        1 4QA      0.065200
     55 H20         1.3710    2.2580   -3.2220 hc        1 4QA      0.066950
     56 H21         0.3810    1.0300   -4.1260 hc        1 4QA      0.066950
     57 H22        -0.3160   -1.9810    3.8700 ha        1 4QA      0.151000
     58 H23        -1.4620   -2.0610    6.0650 ha        1 4QA      0.158000
     59 H24        -2.4900   -0.0020    7.0460 ha        1 4QA      0.169000
     60 H25        -1.2170    2.2810    3.5910 ha        1 4QA      0.153000
     61 H26        -3.1350   -1.7640   -2.6260 h1        1 4QA      0.065200
     62 H27        -4.4980   -0.9800   -1.7040 h1        1 4QA      0.065200
     63 H28        -5.5960    0.7850   -2.7680 ha        1 4QA      0.145000
     64 H29        -5.6900    2.5250   -4.5450 ha        1 4QA      0.152000
     65 H30        -3.6910    3.0280   -5.9310 ha        1 4QA      0.155000
     66 H31        -1.4840   -0.0700   -3.8400 ha        1 4QA      0.127000
     67 H32        -2.3130    2.2220   -7.3760 h1        1 4QA      0.062700
     68 H33        -0.1420    4.1130   -6.1830 hc        1 4QA      0.052200
     69 H34        -1.1850    4.4490   -7.6300 hc        1 4QA      0.052200
     70 H35        -1.9290    4.3170   -5.9780 hc        1 4QA      0.052200
     71 H36        -0.3770    0.7560   -7.8930 hc        1 4QA      0.052200
     72 H37         0.7770    1.9500   -7.1650 hc        1 4QA      0.052200
     73 H38        -0.1360    2.3800   -8.6780 hc        1 4QA      0.052200
     74 H122       -0.7910    0.0680   -1.5790 hn        1 4QA      0.486300
@<TRIPOS>BOND
     1    1    3 1   
     2    1    4 1   
     3    1    5 1   
     4    1   10 1   
     5    2    5 1   
     6    2    6 1   
     7    2   11 2   
     8    3    6 2   
     9    3   12 1   
    10    4    7 1   
    11    4   37 1   
    12    4   38 1   
    13    5   13 1   
    14    7    8 1   
    15    7   39 1   
    16    7   40 1   
    17    8    9 1   
    18    8   26 1   
    19    9   10 1   
    20    9   41 1   
    21    9   42 1   
    22   10   43 1   
    23   10   44 1   
    24   12   14 1   
    25   12   45 1   
    26   12   74 1   
    27   13   20 ar  
    28   13   24 ar  
    29   14   15 1   
    30   14   19 1   
    31   14   46 1   
    32   15   16 1   
    33   15   47 1   
    34   15   48 1   
    35   16   17 1   
    36   16   49 1   
    37   16   50 1   
    38   17   18 1   
    39   17   51 1   
    40   17   52 1   
    41   18   19 1   
    42   18   53 1   
    43   18   54 1   
    44   19   55 1   
    45   19   56 1   
    46   20   21 ar  
    47   20   57 1   
    48   21   22 ar  
    49   21   58 1   
    50   22   23 ar  
    51   22   59 1   
    52   23   24 ar  
    53   23   25 1   
    54   24   60 1   
    55   26   27 1   
    56   26   61 1   
    57   26   62 1   
    58   27   28 ar  
    59   27   32 ar  
    60   28   29 ar  
    61   28   63 1   
    62   29   30 ar  
    63   29   64 1   
    64   30   31 ar  
    65   30   65 1   
    66   31   32 ar  
    67   31   33 1   
    68   32   66 1   
    69   33   34 1   
    70   34   35 1   
    71   34   36 1   
    72   34   67 1   
    73   35   68 1   
    74   35   69 1   
    75   35   70 1   
    76   36   71 1   
    77   36   72 1   
    78   36   73 1   
@<TRIPOS>SUBSTRUCTURE
     1 4QA         1 TEMP              0 ****  ****    0 ROOT
