@<TRIPOS>MOLECULE
4QB
   70    72     1     0     0
SMALL
bcc


@<TRIPOS>ATOM
      1 O37         0.7050   -3.7640   -0.0940 oh        1 4QB     -0.617100
      2 C6          1.8170   -4.0360   -0.8370 c         1 4QB      0.692100
      3 O35         1.9970   -5.2590   -0.9530 o         1 4QB     -0.607000
      4 C7          2.6640   -2.9370   -1.3860 c3        1 4QB     -0.191400
      5 C28         1.9480   -2.1830   -2.5260 c3        1 4QB     -0.018300
      6 C18         2.7920   -0.9620   -2.9110 c         1 4QB      0.560900
      7 O33         3.4150   -0.3500   -2.0510 o         1 4QB     -0.469100
      8 N5          1.6200   -3.0250   -3.6510 n         1 4QB     -0.548900
      9 C16         0.5960   -3.9380   -3.5750 c         1 4QB      0.691100
     10 O34        -0.0690   -4.0120   -2.5090 o         1 4QB     -0.718100
     11 C10         0.3420   -4.8690   -4.7560 c3        1 4QB     -0.121700
     12 C9         -0.8410   -4.3750   -5.5750 c3        1 4QB     -0.077400
     13 C31        -0.5550   -3.0670   -6.2660 c3        1 4QB     -0.108100
     14 C11         0.2010   -6.3040   -4.2490 c3        1 4QB     -0.070400
     15 C12        -1.1970   -6.8560   -4.0810 c3        1 4QB     -0.091400
     16 C13        -2.0240   -6.2620   -2.9630 c3        1 4QB     -0.113400
     17 C14        -1.7750   -6.8790   -1.5930 c3        1 4QB      0.124800
     18 N4         -0.7140   -6.1910   -0.7910 n4        1 4QB     -0.667800
     19 C19        -0.7980   -6.5900    0.6500 c         1 4QB      0.560700
     20 O36        -1.5670   -5.9470    1.3530 o         1 4QB     -0.396100
     21 C17         0.0180   -7.7360    1.1070 ca        1 4QB     -0.139600
     22 C20        -0.5870   -8.6440    1.9880 ca        1 4QB     -0.059000
     23 C21         0.1450   -9.7060    2.5160 ca        1 4QB     -0.097500
     24 C22         1.4980   -9.8490    2.1630 ca        1 4QB      0.007600
     25 C23         2.1110   -8.9350    1.2880 ca        1 4QB     -0.097500
     26 C24         1.3650   -7.8810    0.7600 ca        1 4QB     -0.059000
     27 N3          2.2800  -10.9630    2.7180 n4        1 4QB     -0.615100
     28 C26         2.6700  -10.7380    4.1330 ca        1 4QB      0.320900
     29 N1          1.7320  -10.8850    5.0740 nb        1 4QB     -0.595000
     30 C27         4.0440  -10.3830    4.4330 ca        1 4QB      0.322900
     31 N2          4.4350  -10.1960    5.6780 nb        1 4QB     -0.561000
     32 C29         3.5050  -10.3500    6.6870 ca        1 4QB      0.324300
     33 C25         3.8790  -10.1710    8.0520 ca        1 4QB     -0.157300
     34 C8          2.9440  -10.3340    9.0460 ca        1 4QB     -0.065000
     35 C30         2.1300  -10.7010    6.3760 ca        1 4QB      0.296300
     36 C15         1.1940  -10.8600    7.4460 ca        1 4QB     -0.154300
     37 C32         1.6040  -10.6790    8.7430 ca        1 4QB     -0.085000
     38 H71         2.9040   -2.1960   -0.5730 hc        1 4QB      0.117700
     39 H72         3.6330   -3.3710   -1.7510 hc        1 4QB      0.117700
     40 H28         0.9730   -1.7720   -2.1070 h1        1 4QB      0.093700
     41 H18         2.7710   -0.6580   -3.9790 h4        1 4QB      0.041200
     42 HN5         0.4970   -2.8170   -0.1210 ho        1 4QB      0.467000
     43 H10         1.2470   -4.8550   -5.4340 hc        1 4QB      0.079700
     44 H91        -1.0790   -5.1530   -6.3510 hc        1 4QB      0.061700
     45 H92        -1.7410   -4.2660   -4.9140 hc        1 4QB      0.061700
     46 H311       -1.4290   -2.7750   -6.9000 hc        1 4QB      0.049367
     47 H312       -0.3770   -2.2500   -5.5260 hc        1 4QB      0.049367
     48 H313        0.3410   -3.1510   -6.9280 hc        1 4QB      0.049367
     49 H111        0.7260   -6.9680   -4.9930 hc        1 4QB      0.048700
     50 H112        0.7600   -6.3980   -3.2790 hc        1 4QB      0.048700
     51 H121       -1.1130   -7.9680   -3.9300 hc        1 4QB      0.066200
     52 H122       -1.7650   -6.7110   -5.0420 hc        1 4QB      0.066200
     53 H131       -3.1110   -6.4550   -3.1920 hc        1 4QB      0.098200
     54 H132       -1.8930   -5.1450   -2.9350 hc        1 4QB      0.098200
     55 H141       -1.4790   -7.9610   -1.6960 hx        1 4QB      0.094200
     56 H142       -2.7280   -6.8150   -0.9890 hx        1 4QB      0.094200
     57 HN4         0.2250   -6.3860   -1.1730 hn        1 4QB      0.492800
     58 H20        -1.6440   -8.5120    2.2850 ha        1 4QB      0.196500
     59 H21        -0.3460  -10.4060    3.2180 ha        1 4QB      0.183500
     60 H23         3.1760   -9.0230    1.0100 ha        1 4QB      0.183500
     61 H24         1.8740   -7.1520    0.1000 ha        1 4QB      0.196500
     62 HN3         3.1440  -11.0860    2.1730 hn        1 4QB      0.474800
     63 H27         4.8080  -10.2630    3.6440 h4        1 4QB      0.052100
     64 H25         4.9230   -9.9050    8.2930 ha        1 4QB      0.185000
     65 H8          3.2330  -10.2000   10.1040 ha        1 4QB      0.177000
     66 H15         0.1500  -11.1330    7.2160 ha        1 4QB      0.170000
     67 H32         0.8860  -10.8050    9.5730 ha        1 4QB      0.175000
     68 H52         2.1570   -2.9370   -4.4830 hn        1 4QB      0.339500
     69 H42        -0.8400   -5.1580   -0.8640 hn        1 4QB      0.492800
     70 H321        1.7160  -11.8260    2.6520 hn        1 4QB      0.474800
@<TRIPOS>BOND
     1    1    2 1   
     2    1   42 1   
     3    2    3 2   
     4    2    4 1   
     5    4    5 1   
     6    4   38 1   
     7    4   39 1   
     8    5    6 1   
     9    5    8 1   
    10    5   40 1   
    11    6    7 2   
    12    6   41 1   
    13    8    9 1   
    14    8   68 1   
    15    9   10 2   
    16    9   11 1   
    17   11   12 1   
    18   11   14 1   
    19   11   43 1   
    20   12   13 1   
    21   12   44 1   
    22   12   45 1   
    23   13   46 1   
    24   13   47 1   
    25   13   48 1   
    26   14   15 1   
    27   14   49 1   
    28   14   50 1   
    29   15   16 1   
    30   15   51 1   
    31   15   52 1   
    32   16   17 1   
    33   16   53 1   
    34   16   54 1   
    35   17   18 1   
    36   17   55 1   
    37   17   56 1   
    38   18   19 1   
    39   18   57 1   
    40   18   69 1   
    41   19   20 2   
    42   19   21 1   
    43   21   22 ar  
    44   21   26 ar  
    45   22   23 ar  
    46   22   58 1   
    47   23   24 ar  
    48   23   59 1   
    49   24   25 ar  
    50   24   27 1   
    51   25   26 ar  
    52   25   60 1   
    53   26   61 1   
    54   27   28 1   
    55   27   62 1   
    56   27   70 1   
    57   28   29 ar  
    58   28   30 ar  
    59   29   35 ar  
    60   30   31 ar  
    61   30   63 1   
    62   31   32 ar  
    63   32   33 ar  
    64   32   35 ar  
    65   33   34 ar  
    66   33   64 1   
    67   34   37 ar  
    68   34   65 1   
    69   35   36 ar  
    70   36   37 ar  
    71   36   66 1   
    72   37   67 1   
@<TRIPOS>SUBSTRUCTURE
     1 4QB         1 TEMP              0 ****  ****    0 ROOT
