@<TRIPOS>MOLECULE
4QB
   69    71     1     0     0
SMALL
bcc


@<TRIPOS>ATOM
      1 O37        -1.3010   -4.1020   -0.5710 oh        1 4QB     -0.629100
      2 C6         -0.0440   -4.1540   -0.0440 c         1 4QB      0.669100
      3 O35         0.3110   -5.3280    0.1410 o         1 4QB     -0.582000
      4 C7          0.7360   -2.9170    0.2460 c3        1 4QB     -0.190400
      5 C28         0.9470   -2.0450   -1.0080 c3        1 4QB     -0.023300
      6 C18         1.9200   -0.9120   -0.6700 c         1 4QB      0.557900
      7 O33         2.1340   -0.5870    0.4930 o         1 4QB     -0.483100
      8 N5          1.3530   -2.8040   -2.1620 ns        1 4QB     -0.579900
      9 C16         0.4250   -3.2980   -3.0640 c         1 4QB      0.668100
     10 O34        -0.7820   -3.0030   -2.9220 o         1 4QB     -0.632100
     11 C10         0.9320   -4.2420   -4.1500 c3        1 4QB     -0.120700
     12 C9          0.1210   -4.0710   -5.4240 c3        1 4QB     -0.072400
     13 C31         0.3380   -2.7170   -6.0510 c3        1 4QB     -0.102100
     14 C11         0.9340   -5.6700   -3.6050 c3        1 4QB     -0.078400
     15 C12        -0.2640   -6.5350   -3.9370 c3        1 4QB     -0.089400
     16 C13        -1.5680   -6.0960   -3.3000 c3        1 4QB     -0.122400
     17 C14        -2.1530   -7.1250   -2.3450 c3        1 4QB      0.115800
     18 N4         -1.4730   -7.1530   -1.0180 ny        1 4QB     -0.674800
     19 C19        -2.0430   -8.2310   -0.1180 c         1 4QB      0.583700
     20 O36        -3.2590   -8.3800   -0.1880 o         1 4QB     -0.462100
     21 C17        -1.0990   -8.9790    0.6950 ca        1 4QB     -0.265600
     22 C20        -1.5110  -10.2490    1.1470 ca        1 4QB     -0.027000
     23 C21        -0.6820  -11.0210    1.9360 ca        1 4QB     -0.192000
     24 C22         0.6030  -10.5450    2.3300 ca        1 4QB      0.260600
     25 C23         1.0000   -9.2570    1.8780 ca        1 4QB     -0.192000
     26 C24         0.1630   -8.4960    1.0830 ca        1 4QB     -0.027000
     27 N3          1.4260  -11.3850    3.0590 nu        1 4QB     -0.726300
     28 C26         2.4690  -10.9970    3.9280 ca        1 4QB      0.516900
     29 N1          2.6230   -9.7370    4.3480 nb        1 4QB     -0.676000
     30 C27         3.3860  -12.0620    4.3670 ca        1 4QB      0.291900
     31 N2          4.3930  -11.8290    5.1740 nb        1 4QB     -0.588000
     32 C29         4.5770  -10.5290    5.6200 ca        1 4QB      0.269300
     33 C25         5.6520  -10.2140    6.5020 ca        1 4QB     -0.143300
     34 C8          5.8240   -8.9240    6.9430 ca        1 4QB     -0.120000
     35 C30         3.6830   -9.4820    5.1990 ca        1 4QB      0.314300
     36 C15         3.8980   -8.1550    5.6840 ca        1 4QB     -0.173300
     37 C32         4.9450   -7.8960    6.5350 ca        1 4QB     -0.103000
     38 H71         1.7290   -3.2090    0.6840 hc        1 4QB      0.114200
     39 H72         0.1960   -2.3040    1.0180 hc        1 4QB      0.114200
     40 H28        -0.0410   -1.5360   -1.2550 h1        1 4QB      0.108700
     41 H18         2.3760   -0.3940   -1.5400 h4        1 4QB      0.036200
     42 HN5        -1.5220   -3.2090   -0.8880 ho        1 4QB      0.483000
     43 H10         2.0020   -3.9740   -4.3950 hc        1 4QB      0.074700
     44 H91         0.4260   -4.8710   -6.1500 hc        1 4QB      0.058700
     45 H92        -0.9690   -4.2090   -5.1900 hc        1 4QB      0.058700
     46 H311        0.0290   -1.9060   -5.3480 hc        1 4QB      0.046367
     47 H312       -0.2750   -2.6270   -6.9810 hc        1 4QB      0.046367
     48 H313        1.4110   -2.5670   -6.3220 hc        1 4QB      0.046367
     49 H111        1.8410   -6.1860   -4.0260 hc        1 4QB      0.051200
     50 H112        1.0620   -5.6400   -2.4880 hc        1 4QB      0.051200
     51 H121       -0.0180   -7.5870   -3.6220 hc        1 4QB      0.056700
     52 H122       -0.3970   -6.5680   -5.0520 hc        1 4QB      0.056700
     53 H131       -2.3390   -5.9400   -4.1040 hc        1 4QB      0.094200
     54 H132       -1.4480   -5.1040   -2.7820 hc        1 4QB      0.094200
     55 H141       -2.0840   -8.1600   -2.7860 hx        1 4QB      0.104200
     56 H142       -3.2430   -6.8940   -2.1560 hx        1 4QB      0.104200
     57 HN4        -1.5850   -6.2340   -0.5530 hn        1 4QB      0.469800
     58 H20        -2.5120  -10.6250    0.8690 ha        1 4QB      0.159500
     59 H21        -1.0340  -12.0120    2.2680 ha        1 4QB      0.167500
     60 H23         1.9830   -8.8420    2.1530 ha        1 4QB      0.167500
     61 H24         0.5060   -7.4880    0.7920 ha        1 4QB      0.159500
     62 HN3         1.0760  -12.3050    3.2360 hn        1 4QB      0.452800
     63 H27         3.2510  -13.1010    4.0160 h4        1 4QB      0.042100
     64 H25         6.3360  -11.0180    6.8210 ha        1 4QB      0.163000
     65 H8          6.6530   -8.6790    7.6260 ha        1 4QB      0.151000
     66 H15         3.2130   -7.3520    5.3730 ha        1 4QB      0.151000
     67 H32         5.1100   -6.8740    6.9120 ha        1 4QB      0.147000
     68 H52         2.3140   -3.0270   -2.2610 hn        1 4QB      0.328500
     69 H42        -0.4640   -7.2950   -1.1440 hn        1 4QB      0.469800
@<TRIPOS>BOND
     1    1    2 1   
     2    1   42 1   
     3    2    3 2   
     4    2    4 1   
     5    4    5 1   
     6    4   38 1   
     7    4   39 1   
     8    5    6 1   
     9    5    8 1   
    10    5   40 1   
    11    6    7 2   
    12    6   41 1   
    13    8    9 1   
    14    8   68 1   
    15    9   10 2   
    16    9   11 1   
    17   11   12 1   
    18   11   14 1   
    19   11   43 1   
    20   12   13 1   
    21   12   44 1   
    22   12   45 1   
    23   13   46 1   
    24   13   47 1   
    25   13   48 1   
    26   14   15 1   
    27   14   49 1   
    28   14   50 1   
    29   15   16 1   
    30   15   51 1   
    31   15   52 1   
    32   16   17 1   
    33   16   53 1   
    34   16   54 1   
    35   17   18 1   
    36   17   55 1   
    37   17   56 1   
    38   18   19 1   
    39   18   57 1   
    40   18   69 1   
    41   19   20 2   
    42   19   21 1   
    43   21   22 ar  
    44   21   26 ar  
    45   22   23 ar  
    46   22   58 1   
    47   23   24 ar  
    48   23   59 1   
    49   24   25 ar  
    50   24   27 1   
    51   25   26 ar  
    52   25   60 1   
    53   26   61 1   
    54   27   28 1   
    55   27   62 1   
    56   28   29 ar  
    57   28   30 ar  
    58   29   35 ar  
    59   30   31 ar  
    60   30   63 1   
    61   31   32 ar  
    62   32   33 ar  
    63   32   35 ar  
    64   33   34 ar  
    65   33   64 1   
    66   34   37 ar  
    67   34   65 1   
    68   35   36 ar  
    69   36   37 ar  
    70   36   66 1   
    71   37   67 1   
@<TRIPOS>SUBSTRUCTURE
     1 4QB         1 TEMP              0 ****  ****    0 ROOT
