@<TRIPOS>MOLECULE
4QB
   67    63     1     0     0
SMALL
bcc


@<TRIPOS>ATOM
      1 O37        -7.4050    0.2390   -2.2780 o         1 4QB     -0.567000
      2 C6         -6.6770    0.6500   -1.3270 c1        1 4QB      0.327000
      3 O35        -6.8670    0.2230   -0.1600 os        1 4QB     -0.586000
      4 C7         -5.6370    1.7460   -1.5780 c3        1 4QB     -0.229000
      5 C28        -4.6340    1.2660   -2.6150 c3        1 4QB     -0.047000
      6 C18        -5.2660    1.2710   -3.9490 c2        1 4QB      0.175000
      7 O33        -5.3770    0.2370   -4.5670 o         1 4QB     -0.352000
      8 N5         -3.4830    2.1530   -2.6220 n         1 4QB     -0.343000
      9 C16        -2.2670    1.7660   -3.3310 c2        1 4QB      0.309000
     10 O34        -2.0840    0.6000   -3.6350 o         1 4QB     -0.415000
     11 C10        -1.2120    2.8040   -3.6480 c3        1 4QB     -0.121000
     12 C9         -1.0660    2.9340   -5.1270 c3        1 4QB     -0.153000
     13 C31        -2.0490    4.0020   -5.6520 c3        1 4QB     -0.226000
     14 C11         0.1480    2.3670   -3.0300 c3        1 4QB     -0.144000
     15 C12         0.7540    1.2000   -3.8690 c3        1 4QB     -0.166000
     16 C13         2.0690    0.7360   -3.2220 c3        1 4QB     -0.167000
     17 C14         2.2980   -0.7330   -3.5340 c3        1 4QB     -0.019000
     18 N4          3.0130   -1.3640   -2.4200 n         1 4QB     -0.380000
     19 C19         2.2870   -2.1850   -1.4600 c2        1 4QB      0.353000
     20 O36         1.6380   -3.1350   -1.8450 o         1 4QB     -0.408000
     21 C17         2.2400   -1.7730    0.0210 c2        1 4QB     -0.160000
     22 C20         3.3620   -1.9590    0.8330 c2        1 4QB     -0.082000
     23 C21         3.3590   -1.4900    2.1380 c1        1 4QB     -0.165000
     24 C22         2.2400   -0.8340    2.6390 c1        1 4QB      0.106000
     25 C23         1.1210   -0.6490    1.8290 c1        1 4QB     -0.209000
     26 C24         1.1240   -1.1180    0.5220 c1        1 4QB     -0.063000
     27 N3          2.2860   -0.2370    3.9440 n3        1 4QB     -0.255000
     28 C26         2.1390   -1.0720    5.1320 c2        1 4QB      0.123000
     29 N1          3.0820   -1.8960    5.6360 n2        1 4QB     -0.179000
     30 C27         0.9110   -0.9340    5.7820 c1        1 4QB     -0.125000
     31 N2          0.6640   -1.6270    6.9180 n1        1 4QB     -0.097000
     32 C29         1.6200   -2.4640    7.4310 c1        1 4QB     -0.103000
     33 C25         1.3610   -3.1940    8.6290 c1        1 4QB     -0.119500
     34 C8          2.3390   -4.0480    9.1540 c1        1 4QB     -0.119500
     35 C30         2.8330   -2.5990    6.7890 c2        1 4QB      0.016000
     36 C15         3.8280   -3.4690    7.3230 c2        1 4QB     -0.110000
     37 C32         3.5750   -4.1860    8.5000 c1        1 4QB     -0.125000
     38 H71        -5.1750    1.9470   -0.7530 hc        1 4QB      0.086500
     39 H72        -6.0880    2.5570   -1.9090 hc        1 4QB      0.086500
     40 H28        -4.3470    0.3640   -2.3960 h1        1 4QB      0.159000
     41 H18        -5.6780    2.0820   -4.2850 h4        1 4QB      0.161000
     42 HN5        -3.4990    2.9180   -2.1390 hn        1 4QB      0.218000
     43 H10        -1.4810    3.6710   -3.2680 hc        1 4QB      0.094000
     44 H91        -1.2630    2.0760   -5.5500 hc        1 4QB      0.087000
     45 H92        -0.1500    3.2010   -5.3410 hc        1 4QB      0.087000
     46 H311       -2.0920    3.9520   -6.6370 hc        1 4QB      0.080667
     47 H312       -2.9350    3.8400   -5.2790 hc        1 4QB      0.080667
     48 H313       -1.7380    4.8910   -5.3840 hc        1 4QB      0.080667
     49 H111        0.0050    2.0640   -2.0980 hc        1 4QB      0.084500
     50 H112        0.7700    3.1310   -3.0340 hc        1 4QB      0.084500
     51 H121        0.1240    0.4570   -3.8960 hc        1 4QB      0.091000
     52 H122        0.9300    1.5110   -4.7780 hc        1 4QB      0.091000
     53 H131        2.0170    0.8590   -2.2570 hc        1 4QB      0.079000
     54 H132        2.8060    1.2600   -3.5750 hc        1 4QB      0.079000
     55 H141        1.4340   -1.1790   -3.6630 h1        1 4QB      0.084000
     56 H142        2.8350   -0.8140   -4.3550 h1        1 4QB      0.084000
     57 HN4         3.9160   -1.2350   -2.3220 hn        1 4QB      0.254000
     58 H20         4.1440   -2.4170    0.4830 ha        1 4QB      0.158000
     59 H21         4.1530   -1.6220    2.7120 ha        1 4QB      0.201000
     60 H23         0.3710   -0.1190    2.1520 ha        1 4QB      0.134000
     61 H24         0.3300   -0.9870   -0.0510 ha        1 4QB      0.142000
     62 HN3         2.4840    0.6530    4.0310 hn        1 4QB      0.328000
     63 H27         0.2300   -0.3190    5.4230 ha        1 4QB      0.179000
     64 H25         0.4940   -3.1000    9.0850 ha        1 4QB      0.129500
     65 H8          2.1620   -4.5510    9.9780 ha        1 4QB      0.129500
     66 H15         4.7120   -3.5310    6.8900 ha        1 4QB      0.151000
     67 H32         4.2630   -4.7880    8.8690 ha        1 4QB      0.123000
@<TRIPOS>BOND
     1    1    2 1   
     2    2    4 1   
     3    4    5 1   
     4    4   38 1   
     5    4   39 1   
     6    5    6 1   
     7    5    8 1   
     8    5   40 1   
     9    6    7 1   
    10    6   41 1   
    11    8    9 1   
    12    8   42 1   
    13    9   10 1   
    14    9   11 1   
    15   11   12 1   
    16   11   14 1   
    17   11   43 1   
    18   12   13 1   
    19   12   44 1   
    20   12   45 1   
    21   13   46 1   
    22   13   47 1   
    23   13   48 1   
    24   14   15 1   
    25   14   49 1   
    26   14   50 1   
    27   15   16 1   
    28   15   51 1   
    29   15   52 1   
    30   16   17 1   
    31   16   53 1   
    32   16   54 1   
    33   17   18 1   
    34   17   55 1   
    35   17   56 1   
    36   18   19 1   
    37   18   57 1   
    38   19   20 1   
    39   19   21 1   
    40   21   22 1   
    41   21   26 1   
    42   22   23 1   
    43   22   58 1   
    44   23   59 1   
    45   24   25 1   
    46   24   27 1   
    47   25   60 1   
    48   26   61 1   
    49   27   28 1   
    50   27   62 1   
    51   28   29 1   
    52   28   30 1   
    53   29   35 1   
    54   30   63 1   
    55   31   32 1   
    56   32   35 1   
    57   33   34 1   
    58   33   64 1   
    59   34   65 1   
    60   35   36 1   
    61   36   37 1   
    62   36   66 1   
    63   37   67 1   
@<TRIPOS>SUBSTRUCTURE
     1 4QB         1 TEMP              0 ****  ****    0 ROOT
