@<TRIPOS>MOLECULE
4QB
   69    71     1     0     0
SMALL
bcc


@<TRIPOS>ATOM
      1 O37         0.6780   -5.2710   -0.5460 oh        1 4QB     -0.638100
      2 C6          1.9850   -5.3650   -0.9220 c         1 4QB      0.670100
      3 O35         2.3020   -6.5450   -1.1360 o         1 4QB     -0.578000
      4 C7          2.8720   -4.1730   -1.0320 c3        1 4QB     -0.183400
      5 C28         2.1990   -2.9490   -1.6760 c3        1 4QB     -0.029300
      6 C18         3.2350   -1.8230   -1.7640 c         1 4QB      0.553900
      7 O33         4.1260   -1.7220   -0.9270 o         1 4QB     -0.482100
      8 N5          1.5680   -3.2410   -2.9390 n         1 4QB     -0.581900
      9 C16         0.1880   -3.3150   -3.0640 c         1 4QB      0.668100
     10 O34        -0.5150   -3.3200   -2.0300 o         1 4QB     -0.630100
     11 C10        -0.3940   -3.4380   -4.4680 c3        1 4QB     -0.120700
     12 C9         -1.7370   -2.7260   -4.5420 c3        1 4QB     -0.078400
     13 C31        -1.5760   -1.2280   -4.5820 c3        1 4QB     -0.101100
     14 C11        -0.4630   -4.8980   -4.9020 c3        1 4QB     -0.076400
     15 C12        -1.6240   -5.7210   -4.3830 c3        1 4QB     -0.079400
     16 C13        -1.4300   -6.2920   -2.9930 c3        1 4QB     -0.112400
     17 C14        -0.5250   -7.5190   -3.0330 c3        1 4QB      0.110800
     18 N4         -0.0450   -7.9360   -1.6840 n4        1 4QB     -0.675800
     19 C19        -0.7540   -9.1270   -1.0760 c         1 4QB      0.576700
     20 O36        -1.7300   -9.5500   -1.6890 o         1 4QB     -0.468100
     21 C17        -0.2010   -9.6360    0.1680 ca        1 4QB     -0.268600
     22 C20        -0.8640  -10.7350    0.7540 ca        1 4QB     -0.023000
     23 C21        -0.4160  -11.2830    1.9380 ca        1 4QB     -0.194500
     24 C22         0.7290  -10.7520    2.6030 ca        1 4QB      0.266600
     25 C23         1.3970   -9.6530    1.9950 ca        1 4QB     -0.194500
     26 C24         0.9370   -9.1120    0.8100 ca        1 4QB     -0.023000
     27 N3          1.1740  -11.3770    3.7520 nh        1 4QB     -0.727300
     28 C26         1.9720  -10.8150    4.7710 ca        1 4QB      0.520900
     29 N1          2.1760   -9.4970    4.8790 nb        1 4QB     -0.678000
     30 C27         2.5650  -11.7580    5.7340 ca        1 4QB      0.290900
     31 N2          3.3210  -11.3580    6.7290 nb        1 4QB     -0.586000
     32 C29         3.5510   -9.9970    6.8590 ca        1 4QB      0.270300
     33 C25         4.3640   -9.5020    7.9220 ca        1 4QB     -0.142300
     34 C8          4.5840   -8.1520    8.0470 ca        1 4QB     -0.120000
     35 C30         2.9730   -9.0670    5.9250 ca        1 4QB      0.315300
     36 C15         3.2270   -7.6720    6.0950 ca        1 4QB     -0.174300
     37 C32         4.0130   -7.2370    7.1330 ca        1 4QB     -0.103000
     38 H71         3.2170   -3.8790   -0.0010 hc        1 4QB      0.116700
     39 H72         3.7860   -4.4650   -1.6170 hc        1 4QB      0.116700
     40 H28         1.3990   -2.5640   -0.9620 h1        1 4QB      0.106700
     41 H18         3.1050   -1.1000   -2.5980 h4        1 4QB      0.031200
     42 HN5         2.1310   -3.1870   -3.7550 hn        1 4QB      0.324500
     43 H10         0.3030   -2.9200   -5.1920 hc        1 4QB      0.070700
     44 H91        -2.2710   -3.0700   -5.4680 hc        1 4QB      0.064700
     45 H92        -2.3630   -3.0110   -3.6540 hc        1 4QB      0.064700
     46 H311       -0.9920   -0.9100   -5.4800 hc        1 4QB      0.044033
     47 H312       -1.0490   -0.8640   -3.6670 hc        1 4QB      0.044033
     48 H313       -2.5800   -0.7390   -4.6260 hc        1 4QB      0.044033
     49 H111       -0.5340   -4.8940   -6.0260 hc        1 4QB      0.051700
     50 H112        0.5070   -5.3990   -4.6380 hc        1 4QB      0.051700
     51 H121       -2.5580   -5.0960   -4.3750 hc        1 4QB      0.067700
     52 H122       -1.8070   -6.5660   -5.1020 hc        1 4QB      0.067700
     53 H131       -1.0050   -5.5000   -2.3170 hc        1 4QB      0.078200
     54 H132       -2.4310   -6.5880   -2.5770 hc        1 4QB      0.078200
     55 H141       -1.0770   -8.3820   -3.5070 hx        1 4QB      0.102700
     56 H142        0.3900   -7.2990   -3.6550 hx        1 4QB      0.102700
     57 HN4         0.9620   -8.1510   -1.7360 hn        1 4QB      0.476800
     58 H20        -1.7570  -11.1540    0.2560 ha        1 4QB      0.156500
     59 H21        -0.9600  -12.1400    2.3680 ha        1 4QB      0.168500
     60 H23         2.3020   -9.2220    2.4530 ha        1 4QB      0.168500
     61 H24         1.5000   -8.2600    0.3890 ha        1 4QB      0.156500
     62 HN3         0.6930  -12.2090    4.0240 hn        1 4QB      0.455800
     63 H27         2.3910  -12.8450    5.6380 h4        1 4QB      0.042100
     64 H25         4.8070  -10.2170    8.6350 ha        1 4QB      0.163000
     65 H8          5.2100   -7.7670    8.8680 ha        1 4QB      0.151000
     66 H15         2.7810   -6.9550    5.3880 ha        1 4QB      0.149000
     67 H32         4.2070   -6.1610    7.2660 ha        1 4QB      0.146000
     68 H52         0.3880   -4.3470   -0.4430 ho        1 4QB      0.486000
     69 H42        -0.1400   -7.1440   -1.0260 hn        1 4QB      0.476800
@<TRIPOS>BOND
     1    1    2 1   
     2    1   68 1   
     3    2    3 2   
     4    2    4 1   
     5    4    5 1   
     6    4   38 1   
     7    4   39 1   
     8    5    6 1   
     9    5    8 1   
    10    5   40 1   
    11    6    7 2   
    12    6   41 1   
    13    8    9 1   
    14    8   42 1   
    15    9   10 2   
    16    9   11 1   
    17   11   12 1   
    18   11   14 1   
    19   11   43 1   
    20   12   13 1   
    21   12   44 1   
    22   12   45 1   
    23   13   46 1   
    24   13   47 1   
    25   13   48 1   
    26   14   15 1   
    27   14   49 1   
    28   14   50 1   
    29   15   16 1   
    30   15   51 1   
    31   15   52 1   
    32   16   17 1   
    33   16   53 1   
    34   16   54 1   
    35   17   18 1   
    36   17   55 1   
    37   17   56 1   
    38   18   19 1   
    39   18   57 1   
    40   18   69 1   
    41   19   20 2   
    42   19   21 1   
    43   21   22 ar  
    44   21   26 ar  
    45   22   23 ar  
    46   22   58 1   
    47   23   24 ar  
    48   23   59 1   
    49   24   25 ar  
    50   24   27 1   
    51   25   26 ar  
    52   25   60 1   
    53   26   61 1   
    54   27   28 1   
    55   27   62 1   
    56   28   29 ar  
    57   28   30 ar  
    58   29   35 ar  
    59   30   31 ar  
    60   30   63 1   
    61   31   32 ar  
    62   32   33 ar  
    63   32   35 ar  
    64   33   34 ar  
    65   33   64 1   
    66   34   37 ar  
    67   34   65 1   
    68   35   36 ar  
    69   36   37 ar  
    70   36   66 1   
    71   37   67 1   
@<TRIPOS>SUBSTRUCTURE
     1 4QB         1 TEMP              0 ****  ****    0 ROOT
