@<TRIPOS>MOLECULE
4QB
   67    69     1     0     0
SMALL
bcc


@<TRIPOS>ATOM
      1 O37        34.0210   64.7370    7.7740 o         1 4QB     -0.849300
      2 C6         33.8190   64.8680    6.5210 c         1 4QB      0.897600
      3 O35        32.9400   65.6600    6.0830 o         1 4QB     -0.849300
      4 C7         34.6700   64.0520    5.5510 c3        1 4QB     -0.195400
      5 C28        34.2910   62.5610    5.5390 c3        1 4QB     -0.011300
      6 C18        35.4370   61.8170    4.8620 c         1 4QB      0.572900
      7 O33        35.5500   61.7570    3.6370 o         1 4QB     -0.556100
      8 N5         34.0210   62.0250    6.8600 n         1 4QB     -0.537900
      9 C16        32.8520   61.3050    7.0860 c         1 4QB      0.651100
     10 O34        32.2890   60.6670    6.1720 o         1 4QB     -0.626100
     11 C10        32.3230   61.3010    8.5220 c3        1 4QB     -0.130700
     12 C9         31.3800   60.1350    8.7610 c3        1 4QB     -0.071400
     13 C31        32.1120   58.8200    8.8410 c3        1 4QB     -0.093100
     14 C11        31.6510   62.6410    8.8000 c3        1 4QB     -0.098400
     15 C12        30.4040   62.8730    7.9680 c3        1 4QB     -0.076400
     16 C13        30.2670   64.3070    7.5000 c3        1 4QB     -0.104400
     17 C14        30.2460   65.3120    8.6520 c3        1 4QB      0.110000
     18 N4         31.4210   66.1420    8.7290 n         1 4QB     -0.541900
     19 C19        31.5230   67.0940    9.7050 c         1 4QB      0.661700
     20 O36        30.5940   67.2700   10.5370 o         1 4QB     -0.681100
     21 C17        32.7440   67.9540    9.7630 ca        1 4QB     -0.134600
     22 C20        32.6470   69.1540   10.4810 ca        1 4QB     -0.074500
     23 C21        33.7360   70.0070   10.5890 ca        1 4QB     -0.162000
     24 C22        34.9670   69.6650    9.9830 ca        1 4QB      0.117600
     25 C23        35.0620   68.4560    9.2710 ca        1 4QB     -0.162000
     26 C24        33.9560   67.6120    9.1610 ca        1 4QB     -0.074500
     27 N3         36.0950   70.5030   10.1830 nh        1 4QB     -0.705300
     28 C26        36.8580   71.0080    9.1220 ca        1 4QB      0.537900
     29 N1         36.7390   70.5590    7.8610 nb        1 4QB     -0.676000
     30 C27        37.8760   72.0250    9.4560 ca        1 4QB      0.270900
     31 N2         38.7070   72.5190    8.5690 nb        1 4QB     -0.615000
     32 C29        38.6050   72.0530    7.2660 ca        1 4QB      0.238300
     33 C25        39.4800   72.5440    6.2530 ca        1 4QB     -0.149300
     34 C8         39.3730   72.0790    4.9660 ca        1 4QB     -0.146000
     35 C30        37.6160   71.0680    6.9240 ca        1 4QB      0.335300
     36 C15        37.5390   70.6110    5.5710 ca        1 4QB     -0.165300
     37 C32        38.4010   71.1100    4.6260 ca        1 4QB     -0.119000
     38 H71        35.7420   64.1680    5.8520 hc        1 4QB      0.052200
     39 H72        34.5430   64.4500    4.5130 hc        1 4QB      0.052200
     40 H28        33.3690   62.4290    4.8910 h1        1 4QB      0.094700
     41 H18        36.1890   61.3450    5.5340 h4        1 4QB     -0.009800
     42 HN5        34.2940   62.6480    7.6040 hn        1 4QB      0.337500
     43 H10        33.1960   61.2000    9.2290 hc        1 4QB      0.059700
     44 H91        30.6270   60.0930    7.9290 hc        1 4QB      0.048200
     45 H92        30.8210   60.3160    9.7170 hc        1 4QB      0.048200
     46 H311       32.8510   58.8240    9.6790 hc        1 4QB      0.030367
     47 H312       31.3910   57.9850    9.0110 hc        1 4QB      0.030367
     48 H313       32.6600   58.6290    7.8860 hc        1 4QB      0.030367
     49 H111       32.3930   63.4710    8.6110 hc        1 4QB      0.072700
     50 H112       31.3860   62.6810    9.8890 hc        1 4QB      0.072700
     51 H121       29.5000   62.5800    8.5650 hc        1 4QB      0.035700
     52 H122       30.4250   62.2110    7.0590 hc        1 4QB      0.035700
     53 H131       29.3040   64.4050    6.9340 hc        1 4QB      0.067700
     54 H132       31.1000   64.5410    6.7760 hc        1 4QB      0.067700
     55 H141       30.1190   64.7690    9.6340 h1        1 4QB      0.030200
     56 H142       29.3460   65.9860    8.5410 h1        1 4QB      0.030200
     57 HN4        32.1700   65.9720    8.0770 hn        1 4QB      0.383500
     58 H20        31.6890   69.4100   10.9630 ha        1 4QB      0.183500
     59 H21        33.6300   70.9440   11.1550 ha        1 4QB      0.134500
     60 H23        36.0050   68.1580    8.7880 ha        1 4QB      0.134500
     61 H24        34.0700   66.6630    8.5900 ha        1 4QB      0.183500
     62 HN3        35.9690   71.1700   10.9180 hn        1 4QB      0.412800
     63 H27        37.9690   72.3960   10.4910 h4        1 4QB      0.025100
     64 H25        40.2370   73.2980    6.5190 ha        1 4QB      0.141000
     65 H8         40.0470   72.4550    4.1820 ha        1 4QB      0.129000
     66 H15        36.7820   69.8540    5.3060 ha        1 4QB      0.165000
     67 H32        38.3420   70.7570    3.5850 ha        1 4QB      0.135000
@<TRIPOS>BOND
     1    1    2 1   
     2    2    3 1   
     3    2    4 1   
     4    4    5 1   
     5    4   38 1   
     6    4   39 1   
     7    5    6 1   
     8    5    8 1   
     9    5   40 1   
    10    6    7 2   
    11    6   41 1   
    12    8    9 1   
    13    8   42 1   
    14    9   10 2   
    15    9   11 1   
    16   11   12 1   
    17   11   14 1   
    18   11   43 1   
    19   12   13 1   
    20   12   44 1   
    21   12   45 1   
    22   13   46 1   
    23   13   47 1   
    24   13   48 1   
    25   14   15 1   
    26   14   49 1   
    27   14   50 1   
    28   15   16 1   
    29   15   51 1   
    30   15   52 1   
    31   16   17 1   
    32   16   53 1   
    33   16   54 1   
    34   17   18 1   
    35   17   55 1   
    36   17   56 1   
    37   18   19 1   
    38   18   57 1   
    39   19   20 2   
    40   19   21 1   
    41   21   22 ar  
    42   21   26 ar  
    43   22   23 ar  
    44   22   58 1   
    45   23   24 ar  
    46   23   59 1   
    47   24   25 ar  
    48   24   27 1   
    49   25   26 ar  
    50   25   60 1   
    51   26   61 1   
    52   27   28 1   
    53   27   62 1   
    54   28   29 ar  
    55   28   30 ar  
    56   29   35 ar  
    57   30   31 ar  
    58   30   63 1   
    59   31   32 ar  
    60   32   33 ar  
    61   32   35 ar  
    62   33   34 ar  
    63   33   64 1   
    64   34   37 ar  
    65   34   65 1   
    66   35   36 ar  
    67   36   37 ar  
    68   36   66 1   
    69   37   67 1   
@<TRIPOS>SUBSTRUCTURE
     1 4QB         1 TEMP              0 ****  ****    0 ROOT
