@<TRIPOS>MOLECULE
4QC
   67    71     1     0     0
SMALL
bcc


@<TRIPOS>ATOM
      1 C1          0.3910    0.4620    0.1170 ca        1 4QC     -0.201600
      2 C2         -0.2300    0.3810   -1.2030 c         1 4QC      0.575700
      3 C3          2.2500    0.8550    1.6030 ca        1 4QC     -0.111000
      4 C7         -2.6020   -0.0590    4.7900 cc        1 4QC      0.242600
      5 C8         -1.6940   -0.9160    5.5080 cc        1 4QC     -0.134600
      6 C9         -0.5120   -0.9160    4.7390 cd        1 4QC     -0.166900
      7 C10        -4.0280    0.3190    5.1620 c3        1 4QC      0.634600
      8 C11         4.0770   -5.8750   10.3600 c3        1 4QC      0.176100
      9 C12        -0.8120   -2.8690    6.7000 c3        1 4QC      0.090000
     10 C13         0.7000   -1.6610    5.1360 c         1 4QC      0.758100
     11 C14         1.5850   -3.3680    6.6550 ca        1 4QC      0.071600
     12 C15         1.3570   -4.7210    6.9980 ca        1 4QC     -0.141500
     13 C16         2.4000   -5.5210    7.4510 ca        1 4QC     -0.116000
     14 C19         2.8930   -2.8520    6.7930 ca        1 4QC     -0.141500
     15 C20         3.1020   -3.9330   11.5190 c3        1 4QC      0.082600
     16 C21         5.6860   -6.3340    6.9550 ca        1 4QC     -0.107000
     17 C22         6.7360   -7.1970    7.2720 ca        1 4QC     -0.082000
     18 C24        -1.7980   -1.6940    6.7440 c3        1 4QC     -0.034100
     19 C27         4.8100   -5.8850    7.9510 cp        1 4QC     -0.023000
     20 F          -4.9410    0.0520    4.1760 f         1 4QC     -0.214300
     21 F1         -4.4960   -0.3440    6.2680 f         1 4QC     -0.214300
     22 F2         -4.1830    1.6490    5.4490 f         1 4QC     -0.214300
     23 O1          1.8070   -1.4720    4.6000 o         1 4QC     -0.631500
     24 N2         -0.7530   -0.0850    3.6250 na        1 4QC      0.192300
     25 N3         -1.9990    0.4130    3.6610 nd        1 4QC     -0.427800
     26 N4          0.5200   -2.5480    6.2060 n         1 4QC     -0.375000
     27 C           1.7340    0.8200    0.3130 ca        1 4QC     -0.085000
     28 C4          1.4490    0.5560    2.7080 ca        1 4QC     -0.023000
     29 C5          0.1040    0.1850    2.5150 ca        1 4QC      0.016800
     30 C6         -0.4240    0.1270    1.2090 ca        1 4QC     -0.025000
     31 C17         3.6970   -5.0070    7.5740 cp        1 4QC     -0.106000
     32 C18         3.9280   -3.6670    7.2410 ca        1 4QC     -0.116000
     33 C25         5.0100   -6.3050    9.2790 ca        1 4QC     -0.171300
     34 N7          4.2310   -4.4080   10.6810 n4        1 4QC     -0.684400
     35 C23         5.5300   -4.1370   11.3470 c3        1 4QC      0.082600
     36 O2         -1.1830   -0.2850   -1.5750 o         1 4QC     -0.394100
     37 N1          0.3540    1.2790   -2.2830 n4        1 4QC     -0.762400
     38 C28         6.9250   -7.6170    8.5890 ca        1 4QC     -0.111000
     39 C29         6.0670   -7.1670    9.5910 ca        1 4QC     -0.097000
     40 H3          3.3080    1.1270    1.7640 ha        1 4QC      0.177000
     41 H111        3.0090   -6.0330   10.0270 hx        1 4QC      0.105200
     42 H112        4.2550   -6.4550   11.3100 hx        1 4QC      0.105200
     43 H121       -0.7080   -3.2730    7.7470 h1        1 4QC      0.064700
     44 H122       -1.2540   -3.6820    6.0500 h1        1 4QC      0.064700
     45 H15         0.3570   -5.1700    6.8850 ha        1 4QC      0.161500
     46 H16         2.2070   -6.5810    7.6810 ha        1 4QC      0.150500
     47 H19         3.1120   -1.8090    6.5090 ha        1 4QC      0.161500
     48 H201        2.1380   -4.0660   10.9590 hx        1 4QC      0.103867
     49 H202        3.0650   -4.5270   12.4720 hx        1 4QC      0.103867
     50 H203        3.2510   -2.8470   11.7620 hx        1 4QC      0.103867
     51 H21         5.5360   -6.0100    5.9130 ha        1 4QC      0.160000
     52 H22         7.4130   -7.5510    6.4780 ha        1 4QC      0.164000
     53 H241       -2.8370   -2.1040    6.8780 hc        1 4QC      0.095700
     54 H242       -1.5830   -1.0310    7.6260 hc        1 4QC      0.095700
     55 H           2.4020    1.0530   -0.5310 ha        1 4QC      0.136000
     56 H4          1.8870    0.5930    3.7240 ha        1 4QC      0.195000
     57 H6         -1.4760   -0.1690    1.0310 ha        1 4QC      0.191000
     58 H18         4.9500   -3.2560    7.2950 ha        1 4QC      0.150500
     59 H231        6.3580   -4.5820   10.7290 hx        1 4QC      0.103867
     60 H232        5.6770   -3.0280   11.4410 hx        1 4QC      0.103867
     61 H233        5.5350   -4.6040   12.3670 hx        1 4QC      0.103867
     62 HN11        0.4250    2.2400   -1.9360 hn        1 4QC      0.471467
     63 HN12       -0.2510    1.2600   -3.1150 hn        1 4QC      0.471467
     64 H28         7.7480   -8.3060    8.8380 ha        1 4QC      0.166000
     65 H29         6.2160   -7.5070   10.6280 ha        1 4QC      0.146000
     66 H71         4.2140   -3.9000    9.7790 hn        1 4QC      0.458800
     67 H13         1.2880    0.9500   -2.5460 hn        1 4QC      0.471467
@<TRIPOS>BOND
     1    1    2 1   
     2    1   27 ar  
     3    1   30 ar  
     4    2   36 2   
     5    2   37 1   
     6    3   27 ar  
     7    3   28 ar  
     8    3   40 1   
     9    4    5 1   
    10    4    7 1   
    11    4   25 2   
    12    5    6 2   
    13    5   18 1   
    14    6   10 1   
    15    6   24 1   
    16    7   20 1   
    17    7   21 1   
    18    7   22 1   
    19    8   33 1   
    20    8   34 1   
    21    8   41 1   
    22    8   42 1   
    23    9   18 1   
    24    9   26 1   
    25    9   43 1   
    26    9   44 1   
    27   10   23 2   
    28   10   26 1   
    29   11   12 ar  
    30   11   14 ar  
    31   11   26 1   
    32   12   13 ar  
    33   12   45 1   
    34   13   31 ar  
    35   13   46 1   
    36   14   32 ar  
    37   14   47 1   
    38   15   34 1   
    39   15   48 1   
    40   15   49 1   
    41   15   50 1   
    42   16   17 ar  
    43   16   19 ar  
    44   16   51 1   
    45   17   38 ar  
    46   17   52 1   
    47   18   53 1   
    48   18   54 1   
    49   19   31 1   
    50   19   33 ar  
    51   24   25 1   
    52   24   29 1   
    53   27   55 1   
    54   28   29 ar  
    55   28   56 1   
    56   29   30 ar  
    57   30   57 1   
    58   31   32 ar  
    59   32   58 1   
    60   33   39 ar  
    61   34   35 1   
    62   34   66 1   
    63   35   59 1   
    64   35   60 1   
    65   35   61 1   
    66   37   62 1   
    67   37   63 1   
    68   37   67 1   
    69   38   39 ar  
    70   38   64 1   
    71   39   65 1   
@<TRIPOS>SUBSTRUCTURE
     1 4QC         1 TEMP              0 ****  ****    0 ROOT
