@<TRIPOS>MOLECULE
4QC
   67    71     1     0     0
SMALL
bcc


@<TRIPOS>ATOM
      1 C1          0.3780    0.4460    0.1120 ca        1 4QC     -0.201600
      2 C2         -0.2470    0.3610   -1.2060 c         1 4QC      0.575700
      3 C3          2.2400    0.8420    1.5920 ca        1 4QC     -0.111000
      4 C7         -2.6040   -0.0610    4.7930 cc        1 4QC      0.242600
      5 C8         -1.6950   -0.9160    5.5110 cc        1 4QC     -0.134600
      6 C9         -0.5140   -0.9180    4.7400 cd        1 4QC     -0.166900
      7 C10        -4.0300    0.3180    5.1680 c3        1 4QC      0.634600
      8 C11         4.0860   -5.8630   10.3650 c3        1 4QC      0.176100
      9 C12        -0.8110   -2.8660    6.7070 c3        1 4QC      0.090000
     10 C13         0.6980   -1.6620    5.1370 c         1 4QC      0.758100
     11 C14         1.5870   -3.3650    6.6590 ca        1 4QC      0.071600
     12 C15         1.3590   -4.7170    7.0060 ca        1 4QC     -0.141500
     13 C16         2.4030   -5.5160    7.4590 ca        1 4QC     -0.116000
     14 C19         2.8950   -2.8490    6.7920 ca        1 4QC     -0.141500
     15 C20         3.1140   -3.9180   11.5200 c3        1 4QC      0.082600
     16 C21         5.6880   -6.3310    6.9570 ca        1 4QC     -0.107000
     17 C22         6.7380   -7.1930    7.2740 ca        1 4QC     -0.082000
     18 C24        -1.7960   -1.6910    6.7500 c3        1 4QC     -0.034100
     19 C27         4.8140   -5.8800    7.9540 cp        1 4QC     -0.023000
     20 F          -4.9450    0.0480    4.1850 f         1 4QC     -0.214300
     21 F1         -4.4950   -0.3410    6.2770 f         1 4QC     -0.214300
     22 F2         -4.1830    1.6490    5.4520 f         1 4QC     -0.214300
     23 O1          1.8040   -1.4760    4.5980 o         1 4QC     -0.631500
     24 N2         -0.7580   -0.0900    3.6240 na        1 4QC      0.192300
     25 N3         -2.0040    0.4070    3.6610 nd        1 4QC     -0.427800
     26 N4          0.5200   -2.5460    6.2090 n         1 4QC     -0.375000
     27 C           1.7220    0.8040    0.3030 ca        1 4QC     -0.085000
     28 C4          1.4420    0.5470    2.7000 ca        1 4QC     -0.023000
     29 C5          0.0970    0.1760    2.5120 ca        1 4QC      0.016800
     30 C6         -0.4350    0.1140    1.2070 ca        1 4QC     -0.025000
     31 C17         3.7010   -5.0020    7.5770 cp        1 4QC     -0.106000
     32 C18         3.9310   -3.6630    7.2400 ca        1 4QC     -0.116000
     33 C25         5.0160   -6.2960    9.2820 ca        1 4QC     -0.171300
     34 N7          4.2410   -4.3950   10.6810 nx        1 4QC     -0.684400
     35 C23         5.5420   -4.1230   11.3430 c3        1 4QC      0.082600
     36 O2         -1.2010   -0.3050   -1.5740 o         1 4QC     -0.394100
     37 N1          0.3360    1.2550   -2.2910 nz        1 4QC     -0.762400
     38 C28         6.9300   -7.6100    8.5920 ca        1 4QC     -0.111000
     39 C29         6.0740   -7.1580    9.5940 ca        1 4QC     -0.097000
     40 H3          3.2990    1.1150    1.7500 ha        1 4QC      0.177000
     41 H111        4.2660   -6.4400   11.3160 hx        1 4QC      0.105200
     42 H112        3.0170   -6.0210   10.0340 hx        1 4QC      0.105200
     43 H121       -1.2540   -3.6800    6.0610 h1        1 4QC      0.064700
     44 H122       -0.7040   -3.2670    7.7560 h1        1 4QC      0.064700
     45 H15         0.3580   -5.1670    6.8970 ha        1 4QC      0.161500
     46 H16         2.2100   -6.5760    7.6920 ha        1 4QC      0.150500
     47 H19         3.1130   -1.8070    6.5040 ha        1 4QC      0.161500
     48 H201        2.1500   -4.0510   10.9630 hx        1 4QC      0.103867
     49 H202        3.0790   -4.5090   12.4750 hx        1 4QC      0.103867
     50 H203        3.2640   -2.8310   11.7610 hx        1 4QC      0.103867
     51 H21         5.5350   -6.0100    5.9150 ha        1 4QC      0.160000
     52 H22         7.4140   -7.5500    6.4790 ha        1 4QC      0.164000
     53 H241       -1.5790   -1.0250    7.6300 hc        1 4QC      0.095700
     54 H242       -2.8340   -2.1000    6.8880 hc        1 4QC      0.095700
     55 H           2.3870    1.0340   -0.5420 ha        1 4QC      0.136000
     56 H4          1.8820    0.5870    3.7150 ha        1 4QC      0.195000
     57 H6         -1.4870   -0.1820    1.0320 ha        1 4QC      0.191000
     58 H18         4.9520   -3.2520    7.2900 ha        1 4QC      0.150500
     59 H231        6.3690   -4.5690   10.7250 hx        1 4QC      0.103867
     60 H232        5.5490   -4.5870   12.3650 hx        1 4QC      0.103867
     61 H233        5.6890   -3.0140   11.4350 hx        1 4QC      0.103867
     62 HN11        0.4090    2.2170   -1.9470 hn        1 4QC      0.471467
     63 HN12        1.2680    0.9240   -2.5550 hn        1 4QC      0.471467
     64 H28         7.7540   -8.2990    8.8410 ha        1 4QC      0.166000
     65 H29         6.2260   -7.4950   10.6320 ha        1 4QC      0.146000
     66 H71         4.2230   -3.8900    9.7780 hn        1 4QC      0.458800
     67 H13        -0.2720    1.2340   -3.1210 hn        1 4QC      0.471467
@<TRIPOS>BOND
     1    1    2 1   
     2    1   27 ar  
     3    1   30 ar  
     4    2   36 2   
     5    2   37 1   
     6    3   27 ar  
     7    3   28 ar  
     8    3   40 1   
     9    4    5 1   
    10    4    7 1   
    11    4   25 2   
    12    5    6 2   
    13    5   18 1   
    14    6   10 1   
    15    6   24 1   
    16    7   20 1   
    17    7   21 1   
    18    7   22 1   
    19    8   33 1   
    20    8   34 1   
    21    8   41 1   
    22    8   42 1   
    23    9   18 1   
    24    9   26 1   
    25    9   43 1   
    26    9   44 1   
    27   10   23 2   
    28   10   26 1   
    29   11   12 ar  
    30   11   14 ar  
    31   11   26 1   
    32   12   13 ar  
    33   12   45 1   
    34   13   31 ar  
    35   13   46 1   
    36   14   32 ar  
    37   14   47 1   
    38   15   34 1   
    39   15   48 1   
    40   15   49 1   
    41   15   50 1   
    42   16   17 ar  
    43   16   19 ar  
    44   16   51 1   
    45   17   38 ar  
    46   17   52 1   
    47   18   53 1   
    48   18   54 1   
    49   19   31 1   
    50   19   33 ar  
    51   24   25 1   
    52   24   29 1   
    53   27   55 1   
    54   28   29 ar  
    55   28   56 1   
    56   29   30 ar  
    57   30   57 1   
    58   31   32 ar  
    59   32   58 1   
    60   33   39 ar  
    61   34   35 1   
    62   34   66 1   
    63   35   59 1   
    64   35   60 1   
    65   35   61 1   
    66   37   62 1   
    67   37   63 1   
    68   37   67 1   
    69   38   39 ar  
    70   38   64 1   
    71   39   65 1   
@<TRIPOS>SUBSTRUCTURE
     1 4QC         1 TEMP              0 ****  ****    0 ROOT
