@<TRIPOS>MOLECULE
4QC
   65    56     1     0     0
SMALL
bcc


@<TRIPOS>ATOM
      1 C1          1.9300   -5.4670   -3.4320 c1        1 4QC     -0.118000
      2 C2          3.3300   -6.0670   -3.4730 c1        1 4QC      0.343000
      3 C3          0.0160   -4.5460   -4.5810 c1        1 4QC     -0.129000
      4 C7         -1.8730   -5.2930    0.8570 c1        1 4QC     -0.212000
      5 C8         -1.7410   -3.9160    0.8630 c1        1 4QC     -0.079000
      6 C9         -0.9970   -3.5400   -0.2980 c1        1 4QC     -0.128000
      7 C10        -2.6770   -6.1200    1.8600 c2        1 4QC      0.516000
      8 C11         0.8540    5.9210    2.3880 c3        1 4QC     -0.036000
      9 C12        -2.3140   -1.4580    1.1380 c3        1 4QC     -0.018000
     10 C13        -0.7590   -1.9940   -0.5380 c1        1 4QC      0.386000
     11 C14        -0.6180    0.2110    0.5100 c1        1 4QC      0.062000
     12 C15        -1.2730    1.2570   -0.1500 c1        1 4QC     -0.128750
     13 C16        -0.7350    2.5460   -0.1230 c1        1 4QC     -0.128750
     14 C19         0.5700    0.4550    1.1940 c1        1 4QC     -0.130000
     15 C20        -0.0600    5.8730    4.5390 c3        1 4QC     -0.124000
     16 C21         1.6190    3.9740   -0.7560 c1        1 4QC     -0.113000
     17 C22         1.7740    5.1250   -1.5290 c1        1 4QC     -0.128750
     18 C24        -2.3860   -2.7790    1.6960 c2        1 4QC     -0.114000
     19 C27         1.0400    4.0570    0.5080 c1        1 4QC     -0.038000
     20 F          -2.2670   -5.8350    3.1070 f         1 4QC     -0.157000
     21 F1         -3.9810   -5.8240    1.7410 f         1 4QC     -0.157000
     22 F2         -2.4910   -7.4220    1.6170 f         1 4QC     -0.157000
     23 O1          0.0380   -1.6290   -1.3600 o         1 4QC     -0.343000
     24 N2         -0.6910   -4.6790   -0.9860 n3        1 4QC     -0.010000
     25 N3         -1.2330   -5.7810   -0.2740 n2        1 4QC      0.010000
     26 N4         -1.1580   -1.1450    0.4500 n3        1 4QC     -0.280000
     27 C           1.3000   -5.0940   -4.6150 c2        1 4QC     -0.091000
     28 C4         -0.6390   -4.3720   -3.3560 c1        1 4QC     -0.070000
     29 C5         -0.0090   -4.7450   -2.1700 c1        1 4QC      0.034000
     30 C6          1.2780   -5.2940   -2.2060 c1        1 4QC     -0.054000
     31 C17         0.4540    2.7910    0.5620 c1        1 4QC     -0.038000
     32 C18         1.1080    1.7460    1.2220 c1        1 4QC     -0.113000
     33 C25         0.6140    5.2980    1.0050 c1        1 4QC     -0.057000
     34 N7         -0.3660    5.8880    3.1460 n3        1 4QC     -0.260000
     35 C23        -1.1610    7.0610    2.8360 c3        1 4QC     -0.124000
     36 O2          3.8770   -6.3910   -2.4480 o         1 4QC     -0.359000
     37 N1          3.9750   -6.2850   -4.7230 n3        1 4QC     -0.432000
     38 C28         1.3490    6.3620   -1.0340 c1        1 4QC     -0.128750
     39 C29         0.7690    6.4450    0.2350 c1        1 4QC     -0.130000
     40 H3         -0.4250   -4.2840   -5.4110 ha        1 4QC      0.148000
     41 H111        1.1460    6.8430    2.2830 h1        1 4QC      0.081500
     42 H112        1.5470    5.4100    2.8620 h1        1 4QC      0.081500
     43 H121       -2.3770   -0.8370    1.8790 h1        1 4QC      0.097000
     44 H122       -3.0590   -1.3780    0.4980 h1        1 4QC      0.097000
     45 H15        -2.1030    1.0860   -0.6280 ha        1 4QC      0.140250
     46 H16        -1.1960    3.2810   -0.5870 ha        1 4QC      0.140250
     47 H19         1.0260   -0.2720    1.6540 ha        1 4QC      0.156000
     48 H201        0.4170    6.6930    4.7780 h1        1 4QC      0.072000
     49 H202       -0.8870    5.8160    5.0530 h1        1 4QC      0.072000
     50 H203        0.5060    5.0940    4.7420 h1        1 4QC      0.072000
     51 H21         1.9210    3.0930   -1.1090 ha        1 4QC      0.139000
     52 H22         2.1830    5.0670   -2.4220 ha        1 4QC      0.140250
     53 H241       -3.3250   -2.9980    1.8280 ha        1 4QC      0.120000
     54 H242       -1.9470   -2.7610    2.5790 ha        1 4QC      0.120000
     55 H           1.7610   -5.2150   -5.4770 ha        1 4QC      0.142000
     56 H4         -1.5410   -3.9870   -3.3320 ha        1 4QC      0.159000
     57 H6          1.6870   -5.6300   -1.3860 ha        1 4QC      0.179000
     58 H18         1.9490    1.9180    1.7060 ha        1 4QC      0.139000
     59 H231       -1.8620    7.1690    3.5130 h1        1 4QC      0.072000
     60 H232       -1.5720    6.9530    1.9580 h1        1 4QC      0.072000
     61 H233       -0.5880    7.8530    2.8330 h1        1 4QC      0.072000
     62 HN11        4.7300   -6.8080   -4.7660 hn        1 4QC      0.227500
     63 HN12        3.6230   -5.9300   -5.4850 hn        1 4QC      0.227500
     64 H28         1.4580    7.1640   -1.5730 ha        1 4QC      0.140250
     65 H29         0.4660    7.3250    0.5870 ha        1 4QC      0.132000
@<TRIPOS>BOND
     1    1   27 1   
     2    1   30 1   
     3    2   36 1   
     4    2   37 1   
     5    3   27 1   
     6    3   40 1   
     7    4    5 1   
     8    4   25 1   
     9    5    6 1   
    10    6   24 1   
    11    7   20 1   
    12    7   21 1   
    13    7   22 1   
    14    8   33 1   
    15    8   34 1   
    16    8   41 1   
    17    8   42 1   
    18    9   18 1   
    19    9   26 1   
    20    9   43 1   
    21    9   44 1   
    22   10   23 1   
    23   10   26 1   
    24   11   14 1   
    25   11   26 1   
    26   12   13 1   
    27   12   45 1   
    28   13   46 1   
    29   14   47 1   
    30   15   34 1   
    31   15   48 1   
    32   15   49 1   
    33   15   50 1   
    34   16   19 1   
    35   16   51 1   
    36   17   38 1   
    37   17   52 1   
    38   18   53 1   
    39   18   54 1   
    40   24   25 1   
    41   24   29 1   
    42   27   55 1   
    43   28   29 1   
    44   28   56 1   
    45   30   57 1   
    46   31   32 1   
    47   32   58 1   
    48   33   39 1   
    49   34   35 1   
    50   35   59 1   
    51   35   60 1   
    52   35   61 1   
    53   37   62 1   
    54   37   63 1   
    55   38   64 1   
    56   39   65 1   
@<TRIPOS>SUBSTRUCTURE
     1 4QC         1 TEMP              0 ****  ****    0 ROOT
