@<TRIPOS>MOLECULE
4QC
   67    71     1     0     0
SMALL
bcc


@<TRIPOS>ATOM
      1 C1          0.3650    0.4310    0.1070 ca        1 4QC     -0.201600
      2 C2         -0.2610    0.3420   -1.2110 c         1 4QC      0.575700
      3 C3          2.2260    0.8360    1.5860 ca        1 4QC     -0.111000
      4 C7         -2.6140   -0.0800    4.7910 cc        1 4QC      0.242600
      5 C8         -1.7010   -0.9300    5.5100 cc        1 4QC     -0.134600
      6 C9         -0.5210   -0.9290    4.7380 cd        1 4QC     -0.166900
      7 C10        -4.0400    0.2950    5.1650 c3        1 4QC      0.634600
      8 C11         4.0990   -5.8500   10.3680 c3        1 4QC      0.176100
      9 C12        -0.8090   -2.8750    6.7080 c3        1 4QC      0.090000
     10 C13         0.6940   -1.6680    5.1350 c         1 4QC      0.758100
     11 C14         1.5900   -3.3650    6.6600 ca        1 4QC      0.071600
     12 C15         1.3670   -4.7180    7.0080 ca        1 4QC     -0.141500
     13 C16         2.4150   -5.5110    7.4630 ca        1 4QC     -0.116000
     14 C19         2.8960   -2.8440    6.7920 ca        1 4QC     -0.141500
     15 C20         3.1180   -3.9080   11.5230 c3        1 4QC      0.082600
     16 C21         5.7040   -6.3140    6.9620 ca        1 4QC     -0.107000
     17 C22         6.7570   -7.1710    7.2800 ca        1 4QC     -0.082000
     18 C24        -1.7990   -1.7030    6.7490 c3        1 4QC     -0.034100
     19 C27         4.8270   -5.8650    7.9580 cp        1 4QC     -0.023000
     20 F          -4.9550    0.0210    4.1830 f         1 4QC     -0.214300
     21 F1         -4.5030   -0.3650    6.2750 f         1 4QC     -0.214300
     22 F2         -4.1990    1.6260    5.4480 f         1 4QC     -0.214300
     23 O1          1.8000   -1.4780    4.5950 o         1 4QC     -0.631500
     24 N2         -0.7680   -0.1040    3.6210 na        1 4QC      0.192300
     25 N3         -2.0160    0.3890    3.6580 nd        1 4QC     -0.427800
     26 N4          0.5200   -2.5510    6.2090 n         1 4QC     -0.375000
     27 C           1.7070    0.7940    0.2970 ca        1 4QC     -0.085000
     28 C4          1.4290    0.5390    2.6950 ca        1 4QC     -0.023000
     29 C5          0.0850    0.1640    2.5080 ca        1 4QC      0.016800
     30 C6         -0.4470    0.0990    1.2030 ca        1 4QC     -0.025000
     31 C17         3.7100   -4.9930    7.5800 cp        1 4QC     -0.107000
     32 C18         3.9350   -3.6530    7.2410 ca        1 4QC     -0.116000
     33 C25         5.0310   -6.2790    9.2870 ca        1 4QC     -0.171300
     34 N7          4.2470   -4.3810   10.6830 n4        1 4QC     -0.684400
     35 C23         5.5470   -4.1020   11.3460 c3        1 4QC      0.082600
     36 O2         -1.2130   -0.3280   -1.5770 o         1 4QC     -0.394100
     37 N1          0.3180    1.2370   -2.2970 n4        1 4QC     -0.762400
     38 C28         6.9500   -7.5860    8.5980 ca        1 4QC     -0.111000
     39 C29         6.0920   -7.1370    9.6000 ca        1 4QC     -0.097000
     40 H3          3.2830    1.1120    1.7430 ha        1 4QC      0.177000
     41 H111        4.2810   -6.4250   11.3200 hx        1 4QC      0.105200
     42 H112        3.0300   -6.0130   10.0380 hx        1 4QC      0.105200
     43 H121       -1.2500   -3.6920    6.0630 h1        1 4QC      0.064700
     44 H122       -0.7010   -3.2740    7.7570 h1        1 4QC      0.064700
     45 H15         0.3690   -5.1710    6.9000 ha        1 4QC      0.161500
     46 H16         2.2250   -6.5720    7.6980 ha        1 4QC      0.150500
     47 H19         3.1100   -1.8010    6.5030 ha        1 4QC      0.161500
     48 H201        2.1540   -4.0460   10.9650 hx        1 4QC      0.103867
     49 H202        3.2630   -2.8210   11.7620 hx        1 4QC      0.103867
     50 H203        3.0860   -4.4990   12.4770 hx        1 4QC      0.103867
     51 H21         5.5490   -5.9940    5.9190 ha        1 4QC      0.160000
     52 H22         7.4340   -7.5260    6.4850 ha        1 4QC      0.164000
     53 H241       -2.8360   -2.1160    6.8880 hc        1 4QC      0.095700
     54 H242       -1.5840   -1.0350    7.6280 hc        1 4QC      0.095700
     55 H           2.3710    1.0250   -0.5490 ha        1 4QC      0.136000
     56 H4          1.8700    0.5830    3.7090 ha        1 4QC      0.195000
     57 H6         -1.4980   -0.2020    1.0290 ha        1 4QC      0.191000
     58 H18         4.9550   -3.2380    7.2910 ha        1 4QC      0.150500
     59 H231        5.5560   -4.5660   12.3680 hx        1 4QC      0.103867
     60 H232        5.6890   -2.9930   11.4360 hx        1 4QC      0.103867
     61 H233        6.3750   -4.5450   10.7280 hx        1 4QC      0.103867
     62 HN11       -0.2900    1.2130   -3.1270 hn        1 4QC      0.471467
     63 HN12        0.3880    2.2000   -1.9540 hn        1 4QC      0.471467
     64 H28         7.7770   -8.2710    8.8480 ha        1 4QC      0.166000
     65 H29         6.2450   -7.4720   10.6380 ha        1 4QC      0.146000
     66 H71         4.2260   -3.8770    9.7800 hn        1 4QC      0.458800
     67 H13         1.2520    0.9090   -2.5610 hn        1 4QC      0.471467
@<TRIPOS>BOND
     1    1    2 1   
     2    1   27 ar  
     3    1   30 ar  
     4    2   36 2   
     5    2   37 1   
     6    3   27 ar  
     7    3   28 ar  
     8    3   40 1   
     9    4    5 1   
    10    4    7 1   
    11    4   25 2   
    12    5    6 2   
    13    5   18 1   
    14    6   10 1   
    15    6   24 1   
    16    7   20 1   
    17    7   21 1   
    18    7   22 1   
    19    8   33 1   
    20    8   34 1   
    21    8   41 1   
    22    8   42 1   
    23    9   18 1   
    24    9   26 1   
    25    9   43 1   
    26    9   44 1   
    27   10   23 2   
    28   10   26 1   
    29   11   12 ar  
    30   11   14 ar  
    31   11   26 1   
    32   12   13 ar  
    33   12   45 1   
    34   13   31 ar  
    35   13   46 1   
    36   14   32 ar  
    37   14   47 1   
    38   15   34 1   
    39   15   48 1   
    40   15   49 1   
    41   15   50 1   
    42   16   17 ar  
    43   16   19 ar  
    44   16   51 1   
    45   17   38 ar  
    46   17   52 1   
    47   18   53 1   
    48   18   54 1   
    49   19   31 1   
    50   19   33 ar  
    51   24   25 1   
    52   24   29 1   
    53   27   55 1   
    54   28   29 ar  
    55   28   56 1   
    56   29   30 ar  
    57   30   57 1   
    58   31   32 ar  
    59   32   58 1   
    60   33   39 ar  
    61   34   35 1   
    62   34   66 1   
    63   35   59 1   
    64   35   60 1   
    65   35   61 1   
    66   37   62 1   
    67   37   63 1   
    68   37   67 1   
    69   38   39 ar  
    70   38   64 1   
    71   39   65 1   
@<TRIPOS>SUBSTRUCTURE
     1 4QC         1 TEMP              0 ****  ****    0 ROOT
