@<TRIPOS>MOLECULE
4QC
   65    69     1     0     0
SMALL
bcc


@<TRIPOS>ATOM
      1 C1          5.0920   -3.1130    0.4770 ca        1 4QC     -0.141600
      2 C2          6.1810   -3.8130   -0.2660 c         1 4QC      0.670700
      3 C3          3.3940   -3.0310    2.1910 ca        1 4QC     -0.133000
      4 C7          3.6680    2.2490   -0.3570 cc        1 4QC      0.212600
      5 C8          2.2570    2.0110   -0.4590 cc        1 4QC     -0.155600
      6 C9          2.0880    0.6760   -0.0250 cd        1 4QC     -0.167900
      7 C10         4.4280    3.5170   -0.6800 c3        1 4QC      0.635600
      8 C11        -6.6000    1.0490   -0.5400 c3        1 4QC      0.211100
      9 C12        -0.0070    1.8910   -1.3920 c3        1 4QC      0.097000
     10 C13         0.7630    0.0250    0.0590 c         1 4QC      0.752100
     11 C14        -1.5950    0.2120   -0.5860 ca        1 4QC      0.052600
     12 C15        -2.3700    0.2880   -1.7640 ca        1 4QC     -0.143000
     13 C16        -3.6780   -0.1850   -1.7750 ca        1 4QC     -0.099000
     14 C19        -2.1690   -0.3640    0.5670 ca        1 4QC     -0.143000
     15 C20        -6.0310    2.9390    0.8430 c3        1 4QC      0.155100
     16 C21        -5.7910   -2.6730   -0.7400 ca        1 4QC     -0.119000
     17 C22        -7.0690   -3.2230   -0.7830 ca        1 4QC     -0.130000
     18 C24         1.1140    2.8150   -0.8950 c3        1 4QC     -0.028100
     19 C27        -5.6120   -1.2840   -0.6570 cp        1 4QC     -0.024000
     20 F           5.4520    3.3490   -1.5780 f         1 4QC     -0.229300
     21 F1          3.6530    4.5080   -1.2320 f         1 4QC     -0.229300
     22 F2          5.0160    4.1090    0.4090 f         1 4QC     -0.229300
     23 O1          0.5740   -1.0340    0.6820 o         1 4QC     -0.620500
     24 N2          3.3650    0.1910    0.3040 na        1 4QC      0.229300
     25 N3          4.3000    1.1210    0.1010 nd        1 4QC     -0.429800
     26 N4         -0.2730    0.7310   -0.5600 n         1 4QC     -0.377000
     27 C           4.4170   -3.7180    1.5400 ca        1 4QC     -0.089000
     28 C4          3.0370   -1.7430    1.7990 ca        1 4QC     -0.065000
     29 C5          3.7080   -1.1400    0.7180 ca        1 4QC     -0.018200
     30 C6          4.7390   -1.8290    0.0510 ca        1 4QC     -0.053000
     31 C17        -4.2440   -0.7550   -0.6290 cp        1 4QC     -0.041000
     32 C18        -3.4750   -0.8430    0.5360 ca        1 4QC     -0.099000
     33 C25        -6.7370   -0.4460   -0.6090 ca        1 4QC     -0.063300
     34 N7         -6.4890    1.5680    0.8190 n3        1 4QC     -0.730600
     35 C23        -7.6780    1.3640    1.6140 c3        1 4QC      0.155100
     36 O2          6.3160   -3.6950   -1.5000 o         1 4QC     -0.601100
     37 N1          7.0470   -4.6040    0.4510 n         1 4QC     -0.671000
     38 C28        -8.1860   -2.3890   -0.7420 ca        1 4QC     -0.128000
     39 C29        -8.0180   -1.0100   -0.6520 ca        1 4QC     -0.130000
     40 H3          2.8550   -3.5080    3.0230 ha        1 4QC      0.148000
     41 H111       -7.4780    1.5130   -1.0840 h1        1 4QC      0.039200
     42 H112       -5.6630    1.3460   -1.0970 h1        1 4QC      0.039200
     43 H121        0.2590    1.5400   -2.4320 h1        1 4QC      0.057700
     44 H122       -0.9560    2.4980   -1.4590 h1        1 4QC      0.057700
     45 H15        -1.9500    0.7150   -2.6870 ha        1 4QC      0.144500
     46 H16        -4.2690   -0.1180   -2.7010 ha        1 4QC      0.142000
     47 H19        -1.5790   -0.4590    1.4930 ha        1 4QC      0.144500
     48 H201       -5.9040    3.2580    1.9100 h1        1 4QC      0.031700
     49 H202       -5.0360    3.0020    0.3290 h1        1 4QC      0.031700
     50 H203       -6.7390    3.6540    0.3390 h1        1 4QC      0.031700
     51 H21        -4.9080   -3.3300   -0.7720 ha        1 4QC      0.139000
     52 H22        -7.1960   -4.3130   -0.8510 ha        1 4QC      0.133000
     53 H241        1.4020    3.5090   -1.7290 hc        1 4QC      0.080200
     54 H242        0.7480    3.4470   -0.0400 hc        1 4QC      0.080200
     55 H           4.6730   -4.7400    1.8590 ha        1 4QC      0.142000
     56 H4          2.2130   -1.2210    2.3140 ha        1 4QC      0.169000
     57 H6          5.2730   -1.3830   -0.8060 ha        1 4QC      0.177000
     58 H18        -3.9100   -1.2870    1.4450 ha        1 4QC      0.142000
     59 H231       -7.9430    0.2740    1.6030 h1        1 4QC      0.031700
     60 H232       -7.4630    1.6730    2.6700 h1        1 4QC      0.031700
     61 H233       -8.5650    1.9500    1.2440 h1        1 4QC      0.031700
     62 HN11        7.0120   -4.6360    1.4360 hn        1 4QC      0.314000
     63 HN12        7.7990   -5.0430   -0.0180 hn        1 4QC      0.314000
     64 H28        -9.1980   -2.8190   -0.7780 ha        1 4QC      0.132000
     65 H29        -8.9000   -0.3510   -0.6150 ha        1 4QC      0.132000
@<TRIPOS>BOND
     1    1    2 1   
     2    1   27 ar  
     3    1   30 ar  
     4    2   36 2   
     5    2   37 1   
     6    3   27 ar  
     7    3   28 ar  
     8    3   40 1   
     9    4    5 1   
    10    4    7 1   
    11    4   25 2   
    12    5    6 2   
    13    5   18 1   
    14    6   10 1   
    15    6   24 1   
    16    7   20 1   
    17    7   21 1   
    18    7   22 1   
    19    8   33 1   
    20    8   34 1   
    21    8   41 1   
    22    8   42 1   
    23    9   18 1   
    24    9   26 1   
    25    9   43 1   
    26    9   44 1   
    27   10   23 2   
    28   10   26 1   
    29   11   12 ar  
    30   11   14 ar  
    31   11   26 1   
    32   12   13 ar  
    33   12   45 1   
    34   13   31 ar  
    35   13   46 1   
    36   14   32 ar  
    37   14   47 1   
    38   15   34 1   
    39   15   48 1   
    40   15   49 1   
    41   15   50 1   
    42   16   17 ar  
    43   16   19 ar  
    44   16   51 1   
    45   17   38 ar  
    46   17   52 1   
    47   18   53 1   
    48   18   54 1   
    49   19   31 1   
    50   19   33 ar  
    51   24   25 1   
    52   24   29 1   
    53   27   55 1   
    54   28   29 ar  
    55   28   56 1   
    56   29   30 ar  
    57   30   57 1   
    58   31   32 ar  
    59   32   58 1   
    60   33   39 ar  
    61   34   35 1   
    62   35   59 1   
    63   35   60 1   
    64   35   61 1   
    65   37   62 1   
    66   37   63 1   
    67   38   39 ar  
    68   38   64 1   
    69   39   65 1   
@<TRIPOS>SUBSTRUCTURE
     1 4QC         1 TEMP              0 ****  ****    0 ROOT
