@<TRIPOS>MOLECULE
4QD
   77    81     1     0     0
SMALL
bcc


@<TRIPOS>ATOM
      1 C1          0.2300   -0.2630    0.1810 c3        1 4QD      0.065100
      2 N2          1.6700    0.0620    0.1540 n         1 4QD     -0.395000
      3 C3          2.2380   -0.1220    1.4530 c         1 4QD      0.805900
      4 N4          1.1670   -0.4990    2.4130 ne        1 4QD     -0.503100
      5 C5          0.0630   -0.5870    1.7240 c2        1 4QD      0.437200
      6 C6         -0.6550    0.9430   -0.1750 c3        1 4QD     -0.082900
      7 C7         -0.6950    1.1790   -1.6810 c3        1 4QD      0.153300
      8 N8         -1.1290    0.0060   -2.4380 n3        1 4QD     -0.722600
      9 C9         -0.3150   -1.1650   -2.1370 c3        1 4QD      0.153300
     10 C10        -0.2100   -1.4770   -0.6450 c3        1 4QD     -0.082900
     11 O11         3.4050    0.0490    1.7880 o         1 4QD     -0.453500
     12 N12        -1.2330   -0.9560    2.2870 ny        1 4QD     -0.716000
     13 C13         2.4910   -0.0220   -1.0020 ca        1 4QD      0.039600
     14 C14        -1.6370   -0.1270    3.4990 c3        1 4QD      0.127500
     15 C15        -1.9730    1.3120    3.0990 c3        1 4QD     -0.100900
     16 C16        -2.3190    2.1060    4.3450 c3        1 4QD     -0.078900
     17 C17        -3.4670    1.4740    5.1030 c3        1 4QD     -0.092400
     18 C18        -3.1750    0.0280    5.4420 c3        1 4QD     -0.078900
     19 C19        -2.8330   -0.7790    4.2020 c3        1 4QD     -0.100900
     20 C20         2.8580    1.1650   -1.6650 ca        1 4QD     -0.117000
     21 C21         3.7130    1.1100   -2.7660 ca        1 4QD     -0.096000
     22 C22         4.2100   -0.1020   -3.2300 ca        1 4QD     -0.137000
     23 C23         3.8450   -1.2910   -2.5710 ca        1 4QD      0.142900
     24 C24         2.9920   -1.2580   -1.4540 ca        1 4QD     -0.182000
     25 F25         4.3150   -2.4810   -3.0100 f         1 4QD     -0.119900
     26 C26        -1.1650    0.3170   -3.8680 c3        1 4QD      0.204100
     27 C27        -1.7390   -0.7560   -4.7490 ca        1 4QD     -0.064300
     28 C28        -0.9380   -1.8190   -5.1830 ca        1 4QD     -0.123000
     29 C29        -1.4350   -2.7600   -6.0830 ca        1 4QD     -0.096000
     30 C30        -2.7320   -2.6440   -6.5800 ca        1 4QD     -0.158000
     31 C31        -3.5270   -1.5770   -6.1450 ca        1 4QD      0.078100
     32 C32        -3.0520   -0.6400   -5.2160 ca        1 4QD     -0.111000
     33 O33        -4.7740   -1.3100   -6.7110 os        1 4QD     -0.385900
     34 C34        -5.7120   -2.3970   -6.6880 c3        1 4QD      0.131100
     35 C35        -6.8990   -1.9040   -7.5430 c3        1 4QD      0.094800
     36 C36        -6.2000   -2.6970   -5.2880 c3        1 4QD     -0.130100
     37 N37        -6.4790   -1.4410   -8.8960 nz        1 4QD     -0.833600
     38 H1         -0.2750    1.8760    0.3180 hc        1 4QD      0.060450
     39 H2         -1.6960    0.7560    0.1980 hc        1 4QD      0.060450
     40 H3         -1.4330    2.0080   -1.8830 h1        1 4QD      0.060950
     41 H4          0.3260    1.5370   -2.0120 h1        1 4QD      0.060950
     42 H6         -0.8030   -2.0500   -2.6390 h1        1 4QD      0.060950
     43 H7          0.7330   -1.0670   -2.5530 h1        1 4QD      0.060950
     44 H8          0.5110   -2.3270   -0.5180 hc        1 4QD      0.060450
     45 H9         -1.2140   -1.8170   -0.2800 hc        1 4QD      0.060450
     46 H10        -1.2000   -1.9460    2.5720 hn        1 4QD      0.465300
     47 H11        -0.7500   -0.1260    4.2040 hx        1 4QD      0.136700
     48 H12        -2.8450    1.3230    2.3930 hc        1 4QD      0.061950
     49 H13        -1.0980    1.7860    2.5810 hc        1 4QD      0.061950
     50 H14        -2.5960    3.1500    4.0390 hc        1 4QD      0.073950
     51 H15        -1.4170    2.1790    5.0090 hc        1 4QD      0.073950
     52 H16        -4.4050    1.5370    4.4910 hc        1 4QD      0.069200
     53 H17        -3.6460    2.0480    6.0510 hc        1 4QD      0.069200
     54 H18        -2.3260   -0.0280    6.1740 hc        1 4QD      0.073950
     55 H19        -4.0720   -0.4350    5.9330 hc        1 4QD      0.073950
     56 H20        -3.7210   -0.8050    3.5170 hc        1 4QD      0.061950
     57 H21        -2.5880   -1.8310    4.5040 hc        1 4QD      0.061950
     58 H22         2.5010    2.1430   -1.3060 ha        1 4QD      0.155000
     59 H23         4.0110    2.0470   -3.2660 ha        1 4QD      0.162000
     60 H24         4.8960   -0.1440   -4.0910 ha        1 4QD      0.173000
     61 H25         2.7560   -2.2010   -0.9390 ha        1 4QD      0.152000
     62 H26        -0.1300    0.5600   -4.2590 h1        1 4QD      0.056700
     63 H27        -1.7960    1.2470   -3.9810 h1        1 4QD      0.056700
     64 H28         0.1000   -1.9040   -4.8240 ha        1 4QD      0.148000
     65 H29        -0.7950   -3.5920   -6.4180 ha        1 4QD      0.159000
     66 H30        -3.1100   -3.3770   -7.3070 ha        1 4QD      0.138000
     67 H31        -3.7000    0.1860   -4.8900 ha        1 4QD      0.155000
     68 H32        -5.2460   -3.3110   -7.1500 h1        1 4QD      0.070700
     69 H33        -7.6420   -2.7430   -7.6590 hx        1 4QD      0.122700
     70 H34        -7.3930   -1.0320   -7.0230 hx        1 4QD      0.122700
     71 H35        -5.3360   -3.0290   -4.6600 hc        1 4QD      0.072367
     72 H36        -6.6460   -1.7870   -4.8170 hc        1 4QD      0.072367
     73 H37        -6.9640   -3.5110   -5.3100 hc        1 4QD      0.072367
     74 H38        -5.7290   -0.7420   -8.7920 hn        1 4QD      0.468467
     75 H39        -6.1180   -2.2250   -9.4470 hn        1 4QD      0.468467
     76 H122       -1.9440   -0.8450    1.5520 hn        1 4QD      0.465300
     77 H373       -7.2730   -1.0200   -9.3890 hn        1 4QD      0.468467
@<TRIPOS>BOND
     1    1    2 1   
     2    1    5 1   
     3    1    6 1   
     4    1   10 1   
     5    2    3 1   
     6    2   13 1   
     7    3    4 1   
     8    3   11 2   
     9    4    5 2   
    10    5   12 1   
    11    6    7 1   
    12    6   38 1   
    13    6   39 1   
    14    7    8 1   
    15    7   40 1   
    16    7   41 1   
    17    8    9 1   
    18    8   26 1   
    19    9   10 1   
    20    9   42 1   
    21    9   43 1   
    22   10   44 1   
    23   10   45 1   
    24   12   14 1   
    25   12   46 1   
    26   12   76 1   
    27   13   20 ar  
    28   13   24 ar  
    29   14   15 1   
    30   14   19 1   
    31   14   47 1   
    32   15   16 1   
    33   15   48 1   
    34   15   49 1   
    35   16   17 1   
    36   16   50 1   
    37   16   51 1   
    38   17   18 1   
    39   17   52 1   
    40   17   53 1   
    41   18   19 1   
    42   18   54 1   
    43   18   55 1   
    44   19   56 1   
    45   19   57 1   
    46   20   21 ar  
    47   20   58 1   
    48   21   22 ar  
    49   21   59 1   
    50   22   23 ar  
    51   22   60 1   
    52   23   24 ar  
    53   23   25 1   
    54   24   61 1   
    55   26   27 1   
    56   26   62 1   
    57   26   63 1   
    58   27   28 ar  
    59   27   32 ar  
    60   28   29 ar  
    61   28   64 1   
    62   29   30 ar  
    63   29   65 1   
    64   30   31 ar  
    65   30   66 1   
    66   31   32 ar  
    67   31   33 1   
    68   32   67 1   
    69   33   34 1   
    70   34   35 1   
    71   34   36 1   
    72   34   68 1   
    73   35   37 1   
    74   35   69 1   
    75   35   70 1   
    76   36   71 1   
    77   36   72 1   
    78   36   73 1   
    79   37   74 1   
    80   37   75 1   
    81   37   77 1   
@<TRIPOS>SUBSTRUCTURE
     1 4QD         1 TEMP              0 ****  ****    0 ROOT
