@<TRIPOS>MOLECULE
4QD
   77    81     1     0     0
SMALL
bcc


@<TRIPOS>ATOM
      1 C1          0.2330   -0.2680    0.1780 c3        1 4QD      0.065100
      2 N2          1.6740    0.0540    0.1500 n         1 4QD     -0.395000
      3 C3          2.2430   -0.1330    1.4480 c         1 4QD      0.805900
      4 N4          1.1720   -0.5080    2.4090 ne        1 4QD     -0.503100
      5 C5          0.0680   -0.5930    1.7210 c2        1 4QD      0.437200
      6 C6         -0.6500    0.9390   -0.1750 c3        1 4QD     -0.082900
      7 C7         -0.6910    1.1770   -1.6820 c3        1 4QD      0.153300
      8 N8         -1.1280    0.0040   -2.4380 n3        1 4QD     -0.722600
      9 C9         -0.3170   -1.1680   -2.1400 c3        1 4QD      0.153300
     10 C10        -0.2100   -1.4810   -0.6480 c3        1 4QD     -0.082900
     11 O11         3.4100    0.0360    1.7820 o         1 4QD     -0.453500
     12 N12        -1.2290   -0.9610    2.2860 n4        1 4QD     -0.716000
     13 C13         2.4930   -0.0310   -1.0070 ca        1 4QD      0.039600
     14 C14        -1.6290   -0.1310    3.4980 c3        1 4QD      0.127500
     15 C15        -1.9630    1.3080    3.0990 c3        1 4QD     -0.100900
     16 C16        -2.3060    2.1030    4.3460 c3        1 4QD     -0.078900
     17 C17        -3.4540    1.4720    5.1050 c3        1 4QD     -0.092400
     18 C18        -3.1650    0.0250    5.4440 c3        1 4QD     -0.078900
     19 C19        -2.8260   -0.7810    4.2030 c3        1 4QD     -0.100900
     20 C20         2.8620    1.1560   -1.6700 ca        1 4QD     -0.117000
     21 C21         3.7150    1.1000   -2.7720 ca        1 4QD     -0.096000
     22 C22         4.2090   -0.1120   -3.2380 ca        1 4QD     -0.137000
     23 C23         3.8420   -1.3020   -2.5790 ca        1 4QD      0.142900
     24 C24         2.9920   -1.2680   -1.4610 ca        1 4QD     -0.182000
     25 F25         4.3100   -2.4920   -3.0190 f         1 4QD     -0.119900
     26 C26        -1.1660    0.3160   -3.8680 c3        1 4QD      0.204100
     27 C27        -1.7440   -0.7540   -4.7490 ca        1 4QD     -0.064300
     28 C28        -0.9460   -1.8190   -5.1850 ca        1 4QD     -0.123000
     29 C29        -1.4460   -2.7580   -6.0850 ca        1 4QD     -0.096000
     30 C30        -2.7440   -2.6390   -6.5810 ca        1 4QD     -0.158000
     31 C31        -3.5350   -1.5710   -6.1430 ca        1 4QD      0.078100
     32 C32        -3.0570   -0.6360   -5.2150 ca        1 4QD     -0.111000
     33 O33        -4.7820   -1.3010   -6.7070 os        1 4QD     -0.385900
     34 C34        -5.7230   -2.3860   -6.6840 c3        1 4QD      0.131100
     35 C35        -6.9090   -1.8900   -7.5370 c3        1 4QD      0.094800
     36 C36        -6.2100   -2.6860   -5.2830 c3        1 4QD     -0.130100
     37 N37        -6.4910   -1.4270   -8.8900 n4        1 4QD     -0.833600
     38 H1         -1.6910    0.7540    0.1990 hc        1 4QD      0.060450
     39 H2         -0.2670    1.8710    0.3180 hc        1 4QD      0.060450
     40 H3          0.3300    1.5330   -2.0140 h1        1 4QD      0.060950
     41 H4         -1.4280    2.0070   -1.8810 h1        1 4QD      0.060950
     42 H6         -0.8070   -2.0520   -2.6420 h1        1 4QD      0.060950
     43 H7          0.7310   -1.0720   -2.5560 h1        1 4QD      0.060950
     44 H8         -1.2140   -1.8200   -0.2810 hc        1 4QD      0.060450
     45 H9          0.5090   -2.3320   -0.5220 hc        1 4QD      0.060450
     46 H10        -1.9400   -0.8480    1.5520 hn        1 4QD      0.465300
     47 H11        -0.7420   -0.1320    4.2030 hx        1 4QD      0.136700
     48 H12        -1.0880    1.7820    2.5810 hc        1 4QD      0.061950
     49 H13        -2.8360    1.3220    2.3950 hc        1 4QD      0.061950
     50 H14        -1.4030    2.1730    5.0090 hc        1 4QD      0.073950
     51 H15        -2.5820    3.1470    4.0420 hc        1 4QD      0.073950
     52 H16        -4.3940    1.5380    4.4950 hc        1 4QD      0.069200
     53 H17        -3.6320    2.0460    6.0530 hc        1 4QD      0.069200
     54 H18        -4.0630   -0.4360    5.9350 hc        1 4QD      0.073950
     55 H19        -2.3150   -0.0320    6.1750 hc        1 4QD      0.073950
     56 H20        -3.7140   -0.8060    3.5190 hc        1 4QD      0.061950
     57 H21        -2.5820   -1.8340    4.5050 hc        1 4QD      0.061950
     58 H22         2.5060    2.1350   -1.3100 ha        1 4QD      0.155000
     59 H23         4.0140    2.0370   -3.2720 ha        1 4QD      0.162000
     60 H24         4.8940   -0.1550   -4.1000 ha        1 4QD      0.173000
     61 H25         2.7540   -2.2110   -0.9460 ha        1 4QD      0.152000
     62 H26        -0.1310    0.5570   -4.2600 h1        1 4QD      0.056700
     63 H27        -1.7950    1.2480   -3.9790 h1        1 4QD      0.056700
     64 H28         0.0930   -1.9060   -4.8270 ha        1 4QD      0.148000
     65 H29        -0.8080   -3.5910   -6.4220 ha        1 4QD      0.159000
     66 H30        -3.1240   -3.3710   -7.3070 ha        1 4QD      0.138000
     67 H31        -3.7030    0.1920   -4.8860 ha        1 4QD      0.155000
     68 H32        -5.2590   -3.3000   -7.1470 h1        1 4QD      0.070700
     69 H33        -7.6550   -2.7270   -7.6520 hx        1 4QD      0.122700
     70 H34        -7.4010   -1.0180   -7.0150 hx        1 4QD      0.122700
     71 H35        -6.6530   -1.7760   -4.8110 hc        1 4QD      0.072367
     72 H36        -5.3460   -3.0200   -4.6570 hc        1 4QD      0.072367
     73 H37        -6.9750   -3.4990   -5.3040 hc        1 4QD      0.072367
     74 H38        -7.2850   -1.0030   -9.3810 hn        1 4QD      0.468467
     75 H39        -5.7400   -0.7290   -8.7870 hn        1 4QD      0.468467
     76 H122       -1.1970   -1.9510    2.5710 hn        1 4QD      0.465300
     77 H373       -6.1320   -2.2110   -9.4420 hn        1 4QD      0.468467
@<TRIPOS>BOND
     1    1    2 1   
     2    1    5 1   
     3    1    6 1   
     4    1   10 1   
     5    2    3 1   
     6    2   13 1   
     7    3    4 1   
     8    3   11 2   
     9    4    5 2   
    10    5   12 1   
    11    6    7 1   
    12    6   38 1   
    13    6   39 1   
    14    7    8 1   
    15    7   40 1   
    16    7   41 1   
    17    8    9 1   
    18    8   26 1   
    19    9   10 1   
    20    9   42 1   
    21    9   43 1   
    22   10   44 1   
    23   10   45 1   
    24   12   14 1   
    25   12   46 1   
    26   12   76 1   
    27   13   20 ar  
    28   13   24 ar  
    29   14   15 1   
    30   14   19 1   
    31   14   47 1   
    32   15   16 1   
    33   15   48 1   
    34   15   49 1   
    35   16   17 1   
    36   16   50 1   
    37   16   51 1   
    38   17   18 1   
    39   17   52 1   
    40   17   53 1   
    41   18   19 1   
    42   18   54 1   
    43   18   55 1   
    44   19   56 1   
    45   19   57 1   
    46   20   21 ar  
    47   20   58 1   
    48   21   22 ar  
    49   21   59 1   
    50   22   23 ar  
    51   22   60 1   
    52   23   24 ar  
    53   23   25 1   
    54   24   61 1   
    55   26   27 1   
    56   26   62 1   
    57   26   63 1   
    58   27   28 ar  
    59   27   32 ar  
    60   28   29 ar  
    61   28   64 1   
    62   29   30 ar  
    63   29   65 1   
    64   30   31 ar  
    65   30   66 1   
    66   31   32 ar  
    67   31   33 1   
    68   32   67 1   
    69   33   34 1   
    70   34   35 1   
    71   34   36 1   
    72   34   68 1   
    73   35   37 1   
    74   35   69 1   
    75   35   70 1   
    76   36   71 1   
    77   36   72 1   
    78   36   73 1   
    79   37   74 1   
    80   37   75 1   
    81   37   77 1   
@<TRIPOS>SUBSTRUCTURE
     1 4QD         1 TEMP              0 ****  ****    0 ROOT
