@<TRIPOS>MOLECULE
4QE
   48    51     1     0     0
SMALL
bcc


@<TRIPOS>ATOM
      1 CAU        -0.1310    0.3860    0.1950 c3        1 4QE     -0.074400
      2 CAV         1.3720    0.5540    0.1210 c3        1 4QE     -0.075400
      3 CAW         2.0220    0.2870    1.4640 c3        1 4QE     -0.077400
      4 CAX         1.6460   -1.0810    1.9940 c3        1 4QE     -0.075400
      5 CAY         0.1420   -1.2530    2.0690 c3        1 4QE     -0.074400
      6 CAT        -0.5020   -0.9950    0.7150 c3        1 4QE     -0.071700
      7 CAS        -2.0150   -1.1390    0.8410 c3        1 4QE      0.136400
      8 O6         -2.5040   -1.2630   -0.5100 os        1 4QE     -0.420100
      9 C6         -3.8520   -1.4180   -0.6850 ca        1 4QE      0.757600
     10 N1         -4.7100   -1.4450    0.3530 nb        1 4QE     -0.839000
     11 C2         -6.0710   -1.6170    0.0690 ca        1 4QE      0.913900
     12 N2         -6.9190   -1.7560    1.1740 nh        1 4QE     -0.926500
     13 N3         -6.6490   -1.7160   -1.1830 nb        1 4QE     -0.780000
     14 C4         -5.7430   -1.6850   -2.1990 ca        1 4QE      0.478800
     15 N4         -5.9450   -1.7680   -3.5760 na        1 4QE     -0.376000
     16 C5         -4.2980   -1.5390   -2.0310 ca        1 4QE     -0.218200
     17 N7         -3.6620   -1.5420   -3.2770 nc        1 4QE     -0.491100
     18 C8         -4.6550   -1.6830   -4.1810 cd        1 4QE      0.438400
     19 CAJ        -4.5200   -1.7230   -5.6410 ca        1 4QE     -0.117900
     20 CAK        -5.3440   -0.8940   -6.4150 ca        1 4QE     -0.112000
     21 CAL        -5.2420   -0.9020   -7.8030 ca        1 4QE     -0.140000
     22 CAM        -4.3140   -1.7370   -8.4260 ca        1 4QE     -0.111000
     23 CAN        -3.4930   -2.5590   -7.6610 ca        1 4QE     -0.139000
     24 CAO        -3.5810   -2.5650   -6.2610 ca        1 4QE     -0.024300
     25 CAP        -2.6870   -3.4490   -5.4790 c3        1 4QE     -0.061800
     26 H1         -0.5840    0.5260   -0.8220 hc        1 4QE      0.044700
     27 H2         -0.5640    1.1690    0.8710 hc        1 4QE      0.044700
     28 H3          1.6150    1.5950   -0.2140 hc        1 4QE      0.041200
     29 H4          1.7900   -0.1520   -0.6440 hc        1 4QE      0.041200
     30 H5          3.1360    0.3560    1.3620 hc        1 4QE      0.038700
     31 H6          1.7010    1.0730    2.1960 hc        1 4QE      0.038700
     32 H7          2.0870   -1.2230    3.0150 hc        1 4QE      0.041200
     33 H8          2.0780   -1.8720    1.3270 hc        1 4QE      0.041200
     34 H9         -0.2810   -0.5400    2.8250 hc        1 4QE      0.044700
     35 H10        -0.1000   -2.2930    2.4100 hc        1 4QE      0.044700
     36 H11        -0.1310   -1.7640   -0.0200 hc        1 4QE      0.070700
     37 H12        -2.4750   -0.2390    1.3230 h1        1 4QE      0.054700
     38 H13        -2.2840   -2.0630    1.4170 h1        1 4QE      0.054700
     39 H14        -6.5710   -1.4310    2.0460 hn        1 4QE      0.427800
     40 H15        -7.8890   -1.6220    1.0090 hn        1 4QE      0.427800
     41 H16        -6.8040   -1.8990   -4.0420 hn        1 4QE      0.317700
     42 H18        -6.0650   -0.2230   -5.9250 ha        1 4QE      0.135000
     43 H19        -5.8900   -0.2480   -8.4050 ha        1 4QE      0.135000
     44 H20        -4.2300   -1.7440   -9.5230 ha        1 4QE      0.134000
     45 H21        -2.7600   -3.2140   -8.1570 ha        1 4QE      0.137000
     46 H22        -3.2530   -3.9710   -4.6680 hc        1 4QE      0.055700
     47 H23        -2.2140   -4.2230   -6.1330 hc        1 4QE      0.055700
     48 H24        -1.8740   -2.8450   -5.0020 hc        1 4QE      0.055700
@<TRIPOS>BOND
     1    1    2 1   
     2    1    6 1   
     3    1   26 1   
     4    1   27 1   
     5    2    3 1   
     6    2   28 1   
     7    2   29 1   
     8    3    4 1   
     9    3   30 1   
    10    3   31 1   
    11    4    5 1   
    12    4   32 1   
    13    4   33 1   
    14    5    6 1   
    15    5   34 1   
    16    5   35 1   
    17    6    7 1   
    18    6   36 1   
    19    7    8 1   
    20    7   37 1   
    21    7   38 1   
    22    8    9 1   
    23    9   10 ar  
    24    9   16 ar  
    25   10   11 ar  
    26   11   12 1   
    27   11   13 ar  
    28   12   39 1   
    29   12   40 1   
    30   13   14 ar  
    31   14   15 1   
    32   14   16 ar  
    33   15   18 1   
    34   15   41 1   
    35   16   17 1   
    36   17   18 2   
    37   18   19 1   
    38   19   20 ar  
    39   19   24 ar  
    40   20   21 ar  
    41   20   42 1   
    42   21   22 ar  
    43   21   43 1   
    44   22   23 ar  
    45   22   44 1   
    46   23   24 ar  
    47   23   45 1   
    48   24   25 1   
    49   25   46 1   
    50   25   47 1   
    51   25   48 1   
@<TRIPOS>SUBSTRUCTURE
     1 4QE         1 TEMP              0 ****  ****    0 ROOT
