@<TRIPOS>MOLECULE
4QE
   48    51     1     0     0
SMALL
bcc


@<TRIPOS>ATOM
      1 CAU        -0.1190    0.3710    0.1940 c3        1 4QE     -0.074400
      2 CAV         1.3860    0.5270    0.1200 c3        1 4QE     -0.075400
      3 CAW         2.0330    0.2580    1.4630 c3        1 4QE     -0.077400
      4 CAX         1.6450   -1.1070    1.9960 c3        1 4QE     -0.075400
      5 CAY         0.1410   -1.2670    2.0700 c3        1 4QE     -0.074400
      6 CAT        -0.5010   -1.0060    0.7150 c3        1 4QE     -0.071700
      7 CAS        -2.0150   -1.1380    0.8410 c3        1 4QE      0.136400
      8 O6         -2.5040   -1.2610   -0.5110 os        1 4QE     -0.420100
      9 C6         -3.8530   -1.4050   -0.6850 ca        1 4QE      0.757600
     10 N1         -4.7120   -1.4230    0.3520 nb        1 4QE     -0.839000
     11 C2         -6.0740   -1.5850    0.0680 ca        1 4QE      0.913900
     12 N2         -6.9230   -1.7150    1.1730 nv        1 4QE     -0.926500
     13 N3         -6.6530   -1.6830   -1.1840 nb        1 4QE     -0.780000
     14 C4         -5.7460   -1.6610   -2.2000 ca        1 4QE      0.478800
     15 N4         -5.9480   -1.7450   -3.5770 na        1 4QE     -0.376000
     16 C5         -4.3000   -1.5260   -2.0320 ca        1 4QE     -0.218200
     17 N7         -3.6630   -1.5360   -3.2770 nc        1 4QE     -0.491100
     18 C8         -4.6570   -1.6710   -4.1810 cd        1 4QE      0.438400
     19 CAJ        -4.5210   -1.7160   -5.6410 ca        1 4QE     -0.117900
     20 CAK        -5.3390   -0.8820   -6.4170 ca        1 4QE     -0.112000
     21 CAL        -5.2360   -0.8930   -7.8050 ca        1 4QE     -0.140000
     22 CAM        -4.3150   -1.7370   -8.4260 ca        1 4QE     -0.111000
     23 CAN        -3.5000   -2.5640   -7.6590 ca        1 4QE     -0.139000
     24 CAO        -3.5900   -2.5670   -6.2590 ca        1 4QE     -0.024300
     25 CAP        -2.7040   -3.4570   -5.4750 c3        1 4QE     -0.061800
     26 H1         -0.5690    0.5140   -0.8240 hc        1 4QE      0.044450
     27 H2         -0.5450    1.1590    0.8680 hc        1 4QE      0.044450
     28 H3          1.7980   -0.1830   -0.6430 hc        1 4QE      0.041200
     29 H4          1.6370    1.5670   -0.2160 hc        1 4QE      0.041200
     30 H5          1.7170    1.0470    2.1950 hc        1 4QE      0.038700
     31 H6          3.1480    0.3180    1.3630 hc        1 4QE      0.038700
     32 H7          2.0720   -1.9020    1.3290 hc        1 4QE      0.041200
     33 H8          2.0850   -1.2510    3.0170 hc        1 4QE      0.041200
     34 H9         -0.1100   -2.3050    2.4120 hc        1 4QE      0.044450
     35 H10        -0.2780   -0.5500    2.8250 hc        1 4QE      0.044450
     36 H11        -0.1360   -1.7790   -0.0190 hc        1 4QE      0.070700
     37 H12        -2.4680   -0.2330    1.3210 h1        1 4QE      0.054700
     38 H13        -2.2920   -2.0580    1.4180 h1        1 4QE      0.054700
     39 H14        -7.8930   -1.5740    1.0080 hn        1 4QE      0.427800
     40 H15        -6.5730   -1.3920    2.0450 hn        1 4QE      0.427800
     41 H16        -6.8070   -1.8700   -4.0430 hn        1 4QE      0.317700
     42 H18        -6.0540   -0.2030   -5.9290 ha        1 4QE      0.135000
     43 H19        -5.8780   -0.2350   -8.4090 ha        1 4QE      0.135000
     44 H20        -4.2300   -1.7460   -9.5230 ha        1 4QE      0.134000
     45 H21        -2.7730   -3.2270   -8.1530 ha        1 4QE      0.137000
     46 H22        -1.8850   -2.8580   -4.9980 hc        1 4QE      0.055700
     47 H23        -2.2360   -4.2350   -6.1270 hc        1 4QE      0.055700
     48 H24        -3.2740   -3.9720   -4.6630 hc        1 4QE      0.055700
@<TRIPOS>BOND
     1    1    2 1   
     2    1    6 1   
     3    1   26 1   
     4    1   27 1   
     5    2    3 1   
     6    2   28 1   
     7    2   29 1   
     8    3    4 1   
     9    3   30 1   
    10    3   31 1   
    11    4    5 1   
    12    4   32 1   
    13    4   33 1   
    14    5    6 1   
    15    5   34 1   
    16    5   35 1   
    17    6    7 1   
    18    6   36 1   
    19    7    8 1   
    20    7   37 1   
    21    7   38 1   
    22    8    9 1   
    23    9   10 ar  
    24    9   16 ar  
    25   10   11 ar  
    26   11   12 1   
    27   11   13 ar  
    28   12   39 1   
    29   12   40 1   
    30   13   14 ar  
    31   14   15 1   
    32   14   16 ar  
    33   15   18 1   
    34   15   41 1   
    35   16   17 1   
    36   17   18 2   
    37   18   19 1   
    38   19   20 ar  
    39   19   24 ar  
    40   20   21 ar  
    41   20   42 1   
    42   21   22 ar  
    43   21   43 1   
    44   22   23 ar  
    45   22   44 1   
    46   23   24 ar  
    47   23   45 1   
    48   24   25 1   
    49   25   46 1   
    50   25   47 1   
    51   25   48 1   
@<TRIPOS>SUBSTRUCTURE
     1 4QE         1 TEMP              0 ****  ****    0 ROOT
