@<TRIPOS>MOLECULE
4QF
   67    71     1     0     0
SMALL
bcc


@<TRIPOS>ATOM
      1 C1          0.1720    0.3330   -0.3980 c3        1 4QF     -0.076400
      2 C2          1.6110    0.3950    0.1090 c3        1 4QF      0.156800
      3 C4          1.2090   -1.1730    1.8830 c3        1 4QF      0.180500
      4 C5         -0.2620   -1.3400    1.4530 c3        1 4QF     -0.091400
      5 C6         -0.5020   -0.9950   -0.0210 c3        1 4QF      0.066100
      6 C7         -2.0630   -0.8530   -0.2650 c2        1 4QF      0.440200
      7 C9         -1.4130   -2.5370   -1.5880 c         1 4QF      0.804900
      8 C12         0.9190   -2.9380   -0.8670 ca        1 4QF      0.040600
      9 C13         2.0770   -2.6640   -1.6220 ca        1 4QF     -0.115000
     10 C14         3.1730   -3.5230   -1.5490 ca        1 4QF     -0.097000
     11 C15         3.1470   -4.6550   -0.7430 ca        1 4QF     -0.138000
     12 C16         1.9900   -4.9360    0.0080 ca        1 4QF      0.144900
     13 C17         0.8740   -4.0850   -0.0510 ca        1 4QF     -0.179000
     14 C20        -4.0690   -0.3350    1.1320 c3        1 4QF      0.127500
     15 C21        -4.9770    0.8360    1.5270 c3        1 4QF     -0.100900
     16 C22        -6.2300    0.2890    2.1850 c3        1 4QF     -0.077900
     17 N3          1.6940    0.1730    1.5460 n3        1 4QF     -0.733600
     18 N8         -2.5520   -1.6960   -1.1300 ne        1 4QF     -0.516100
     19 N10        -0.2030   -2.0750   -0.9880 n         1 4QF     -0.386000
     20 O11        -1.5430   -3.4390   -2.4100 o         1 4QF     -0.468500
     21 F18         1.9450   -6.0340    0.7960 f         1 4QF     -0.121900
     22 N19        -2.8350    0.1860    0.4130 n4        1 4QF     -0.715000
     23 C23        -5.8990   -0.5690    3.3880 c3        1 4QF     -0.091400
     24 C24        -4.9460   -1.6870    3.0220 c3        1 4QF     -0.077900
     25 C25        -3.6860   -1.1500    2.3690 c3        1 4QF     -0.100900
     26 C26         3.0220    0.4450    2.0920 c3        1 4QF      0.214100
     27 C27         3.5760    1.7900    1.7280 ca        1 4QF     -0.109300
     28 C28         4.7720    1.8830    1.0080 ca        1 4QF     -0.120000
     29 C29         5.3200    3.1340    0.7230 ca        1 4QF     -0.128000
     30 C30         4.6760    4.2950    1.1500 ca        1 4QF     -0.115000
     31 C31         3.4830    4.2050    1.8680 ca        1 4QF     -0.128000
     32 C32         2.9350    2.9570    2.1580 ca        1 4QF     -0.120000
     33 C33         1.2940   -1.5040    3.3730 c3        1 4QF     -0.100100
     34 H1         -0.4040    1.1830    0.0530 hc        1 4QF      0.057700
     35 H2          0.1820    0.4750   -1.5110 hc        1 4QF      0.057700
     36 H3          2.2290   -0.3520   -0.4740 h1        1 4QF      0.064700
     37 H4          2.0170    1.4240   -0.1100 h1        1 4QF      0.064700
     38 H5          1.8100   -1.9590    1.3240 h1        1 4QF      0.046700
     39 H6         -0.5640   -2.4010    1.6570 hc        1 4QF      0.057200
     40 H7         -0.8950   -0.6760    2.0990 hc        1 4QF      0.057200
     41 H8          2.1190   -1.7860   -2.2860 ha        1 4QF      0.154000
     42 H9          4.0710   -3.3040   -2.1510 ha        1 4QF      0.159000
     43 H10         4.0110   -5.3360   -0.6910 ha        1 4QF      0.170000
     44 H11        -0.0250   -4.3470    0.5270 ha        1 4QF      0.151000
     45 H12        -4.6200   -0.9980    0.3980 hx        1 4QF      0.131700
     46 H15        -6.8740    1.1530    2.5020 hc        1 4QF      0.070700
     47 H16        -6.8170   -0.3110    1.4400 hc        1 4QF      0.070700
     48 H18        -2.2150    0.6450    1.0960 hn        1 4QF      0.468300
     49 H19        -5.4440    0.0670    4.1920 hc        1 4QF      0.067700
     50 H20        -6.8450   -1.0070    3.8030 hc        1 4QF      0.067700
     51 H21        -4.6580   -2.2560    3.9450 hc        1 4QF      0.070700
     52 H22        -5.4530   -2.4080    2.3270 hc        1 4QF      0.070700
     53 H23        -3.0170   -2.0040    2.0810 hc        1 4QF      0.063950
     54 H24        -3.1320   -0.5050    3.1020 hc        1 4QF      0.063950
     55 H25         2.9220    0.4110    3.2170 h1        1 4QF      0.051200
     56 H26         3.7580   -0.3560    1.7870 h1        1 4QF      0.051200
     57 H27         5.2900    0.9710    0.6750 ha        1 4QF      0.133000
     58 H28         6.2650    3.2020    0.1630 ha        1 4QF      0.140500
     59 H29         5.1120    5.2800    0.9270 ha        1 4QF      0.143000
     60 H30         2.9790    5.1200    2.2130 ha        1 4QF      0.140500
     61 H31         2.0010    2.8840    2.7340 ha        1 4QF      0.133000
     62 H32         0.8340   -0.7020    3.9970 hc        1 4QF      0.052033
     63 H33         0.7590   -2.4640    3.5680 hc        1 4QF      0.052033
     64 H34         2.3600   -1.6320    3.6830 hc        1 4QF      0.052033
     65 H13        -4.4460    1.5170    2.2430 hc        1 4QF      0.063950
     66 H192       -3.1360    0.8840   -0.2840 hn        1 4QF      0.468300
     67 H14        -5.2670    1.4330    0.6220 hc        1 4QF      0.063950
@<TRIPOS>BOND
     1    1    2 1   
     2    1    5 1   
     3    1   34 1   
     4    1   35 1   
     5    2   17 1   
     6    2   36 1   
     7    2   37 1   
     8    3    4 1   
     9    3   17 1   
    10    3   33 1   
    11    3   38 1   
    12    4    5 1   
    13    4   39 1   
    14    4   40 1   
    15    5    6 1   
    16    5   19 1   
    17    6   18 2   
    18    6   22 1   
    19    7   18 1   
    20    7   19 1   
    21    7   20 2   
    22    8    9 ar  
    23    8   13 ar  
    24    8   19 1   
    25    9   10 ar  
    26    9   41 1   
    27   10   11 ar  
    28   10   42 1   
    29   11   12 ar  
    30   11   43 1   
    31   12   13 ar  
    32   12   21 1   
    33   13   44 1   
    34   14   15 1   
    35   14   22 1   
    36   14   25 1   
    37   14   45 1   
    38   15   16 1   
    39   15   65 1   
    40   15   67 1   
    41   16   23 1   
    42   16   46 1   
    43   16   47 1   
    44   17   26 1   
    45   22   48 1   
    46   22   66 1   
    47   23   24 1   
    48   23   49 1   
    49   23   50 1   
    50   24   25 1   
    51   24   51 1   
    52   24   52 1   
    53   25   53 1   
    54   25   54 1   
    55   26   27 1   
    56   26   55 1   
    57   26   56 1   
    58   27   28 ar  
    59   27   32 ar  
    60   28   29 ar  
    61   28   57 1   
    62   29   30 ar  
    63   29   58 1   
    64   30   31 ar  
    65   30   59 1   
    66   31   32 ar  
    67   31   60 1   
    68   32   61 1   
    69   33   62 1   
    70   33   63 1   
    71   33   64 1   
@<TRIPOS>SUBSTRUCTURE
     1 4QF         1 TEMP              0 ****  ****    0 ROOT
