@<TRIPOS>MOLECULE
4QF
   67    71     1     0     0
SMALL
bcc


@<TRIPOS>ATOM
      1 C1          0.1860    0.3410   -0.3910 c3        1 4QF     -0.076400
      2 C2          1.6210    0.3970    0.1260 c3        1 4QF      0.156800
      3 C4          1.2050   -1.1780    1.8900 c3        1 4QF      0.180500
      4 C5         -0.2620   -1.3410    1.4490 c3        1 4QF     -0.091400
      5 C6         -0.4930   -0.9890   -0.0250 c3        1 4QF      0.065100
      6 C7         -2.0510   -0.8430   -0.2790 c2        1 4QF      0.440200
      7 C9         -1.3950   -2.5220   -1.6070 c         1 4QF      0.804900
      8 C12         0.9310   -2.9310   -0.8700 ca        1 4QF      0.040600
      9 C13         2.0950   -2.6550   -1.6140 ca        1 4QF     -0.115000
     10 C14         3.1890   -3.5170   -1.5370 ca        1 4QF     -0.097000
     11 C15         3.1540   -4.6530   -0.7370 ca        1 4QF     -0.138000
     12 C16         1.9900   -4.9360    0.0040 ca        1 4QF      0.144900
     13 C17         0.8760   -4.0820   -0.0600 ca        1 4QF     -0.179000
     14 C20        -4.0660   -0.3290    1.1080 c3        1 4QF      0.127500
     15 C21        -4.9750    0.8410    1.5020 c3        1 4QF     -0.100900
     16 C22        -6.2330    0.2920    2.1500 c3        1 4QF     -0.077900
     17 N3          1.6940    0.1690    1.5630 n3        1 4QF     -0.733600
     18 N8         -2.5360   -1.6810   -1.1520 ne        1 4QF     -0.516100
     19 N10        -0.1880   -2.0640   -0.9960 n         1 4QF     -0.386000
     20 O11        -1.5210   -3.4190   -2.4340 o         1 4QF     -0.467500
     21 F18         1.9360   -6.0380    0.7850 f         1 4QF     -0.121900
     22 N19        -2.8270    0.1940    0.3990 ny        1 4QF     -0.715000
     23 C23        -5.9100   -0.5730    3.3500 c3        1 4QF     -0.091400
     24 C24        -4.9570   -1.6910    2.9840 c3        1 4QF     -0.077900
     25 C25        -3.6920   -1.1520    2.3430 c3        1 4QF     -0.100900
     26 C26         3.0180    0.4360    2.1190 c3        1 4QF      0.214100
     27 C27         3.5770    1.7830    1.7660 ca        1 4QF     -0.109300
     28 C28         4.7780    1.8780    1.0550 ca        1 4QF     -0.120000
     29 C29         5.3290    3.1290    0.7790 ca        1 4QF     -0.128000
     30 C30         4.6840    4.2890    1.2080 ca        1 4QF     -0.115000
     31 C31         3.4860    4.1970    1.9170 ca        1 4QF     -0.128000
     32 C32         2.9340    2.9480    2.1970 ca        1 4QF     -0.120000
     33 C33         1.2800   -1.5170    3.3780 c3        1 4QF     -0.100100
     34 H1         -0.3920    1.1880    0.0600 hc        1 4QF      0.057700
     35 H2          0.2040    0.4880   -1.5030 hc        1 4QF      0.057700
     36 H3          2.2420   -0.3470   -0.4560 h1        1 4QF      0.064700
     37 H4          2.0300    1.4280   -0.0850 h1        1 4QF      0.064700
     38 H5          1.8090   -1.9620    1.3310 h1        1 4QF      0.046700
     39 H6         -0.8990   -0.6800    2.0930 hc        1 4QF      0.057200
     40 H7         -0.5670   -2.4030    1.6460 hc        1 4QF      0.057200
     41 H8          2.1450   -1.7730   -2.2730 ha        1 4QF      0.154000
     42 H9          4.0920   -3.2970   -2.1300 ha        1 4QF      0.159000
     43 H10         4.0150   -5.3370   -0.6810 ha        1 4QF      0.170000
     44 H11        -0.0280   -4.3450    0.5080 ha        1 4QF      0.151000
     45 H12        -4.6130   -0.9880    0.3660 hx        1 4QF      0.131700
     46 H15        -6.8770    1.1550    2.4670 hc        1 4QF      0.070700
     47 H16        -6.8160   -0.3030    1.3970 hc        1 4QF      0.070700
     48 H18        -3.1220    0.8950   -0.2960 hn        1 4QF      0.468300
     49 H19        -5.4600    0.0590    4.1610 hc        1 4QF      0.067700
     50 H20        -6.8600   -1.0120    3.7560 hc        1 4QF      0.067700
     51 H21        -5.4610   -2.4070    2.2820 hc        1 4QF      0.070700
     52 H22        -4.6760   -2.2650    3.9060 hc        1 4QF      0.070700
     53 H23        -3.0230   -2.0050    2.0540 hc        1 4QF      0.063950
     54 H24        -3.1420   -0.5110    3.0830 hc        1 4QF      0.063950
     55 H25         3.7560   -0.3640    1.8150 h1        1 4QF      0.051200
     56 H26         2.9110    0.3970    3.2430 h1        1 4QF      0.051200
     57 H27         5.2970    0.9670    0.7210 ha        1 4QF      0.133000
     58 H28         6.2780    3.2000    0.2260 ha        1 4QF      0.140500
     59 H29         5.1220    5.2750    0.9930 ha        1 4QF      0.143000
     60 H30         2.9800    5.1110    2.2630 ha        1 4QF      0.140500
     61 H31         1.9950    2.8730    2.7660 ha        1 4QF      0.133000
     62 H32         0.7430   -2.4780    3.5650 hc        1 4QF      0.052033
     63 H33         2.3430   -1.6480    3.6940 hc        1 4QF      0.052033
     64 H34         0.8160   -0.7180    4.0030 hc        1 4QF      0.052033
     65 H13        -4.4470    1.5170    2.2260 hc        1 4QF      0.063950
     66 H192       -2.2110    0.6480    1.0880 hn        1 4QF      0.468300
     67 H14        -5.2580    1.4430    0.5990 hc        1 4QF      0.063950
@<TRIPOS>BOND
     1    1    2 1   
     2    1    5 1   
     3    1   34 1   
     4    1   35 1   
     5    2   17 1   
     6    2   36 1   
     7    2   37 1   
     8    3    4 1   
     9    3   17 1   
    10    3   33 1   
    11    3   38 1   
    12    4    5 1   
    13    4   39 1   
    14    4   40 1   
    15    5    6 1   
    16    5   19 1   
    17    6   18 2   
    18    6   22 1   
    19    7   18 1   
    20    7   19 1   
    21    7   20 2   
    22    8    9 ar  
    23    8   13 ar  
    24    8   19 1   
    25    9   10 ar  
    26    9   41 1   
    27   10   11 ar  
    28   10   42 1   
    29   11   12 ar  
    30   11   43 1   
    31   12   13 ar  
    32   12   21 1   
    33   13   44 1   
    34   14   15 1   
    35   14   22 1   
    36   14   25 1   
    37   14   45 1   
    38   15   16 1   
    39   15   65 1   
    40   15   67 1   
    41   16   23 1   
    42   16   46 1   
    43   16   47 1   
    44   17   26 1   
    45   22   48 1   
    46   22   66 1   
    47   23   24 1   
    48   23   49 1   
    49   23   50 1   
    50   24   25 1   
    51   24   51 1   
    52   24   52 1   
    53   25   53 1   
    54   25   54 1   
    55   26   27 1   
    56   26   55 1   
    57   26   56 1   
    58   27   28 ar  
    59   27   32 ar  
    60   28   29 ar  
    61   28   57 1   
    62   29   30 ar  
    63   29   58 1   
    64   30   31 ar  
    65   30   59 1   
    66   31   32 ar  
    67   31   60 1   
    68   32   61 1   
    69   33   62 1   
    70   33   63 1   
    71   33   64 1   
@<TRIPOS>SUBSTRUCTURE
     1 4QF         1 TEMP              0 ****  ****    0 ROOT
