@<TRIPOS>MOLECULE
4QH
   60    63     1     0     0
SMALL
bcc


@<TRIPOS>ATOM
      1 CAC         0.3060   -0.9940    0.0080 c3        1 4QH      0.105700
      2 OAU         1.7270   -1.0430    0.0990 os        1 4QH     -0.303900
      3 CBA         2.2670   -0.6540    1.3080 ca        1 4QH      0.079100
      4 CAO         1.5370   -0.2730    2.4260 ca        1 4QH     -0.069000
      5 CAZ         3.6920   -0.6660    1.3660 ca        1 4QH      0.175100
      6 OAT         4.3250   -1.0530    0.2120 os        1 4QH     -0.294900
      7 CAB         5.7500   -1.0860    0.2550 c3        1 4QH      0.106700
      8 CAM         4.3360   -0.2990    2.5500 ca        1 4QH     -0.217000
      9 CAN         3.5810    0.0810    3.6580 ca        1 4QH      0.003000
     10 CBC         2.1870    0.1030    3.6150 ca        1 4QH     -0.404500
     11 SBI         1.2940    0.5330    4.9650 sy        1 4QH      1.522200
     12 OAG         0.0510   -0.1310    4.9260 o         1 4QH     -0.652300
     13 OAH         2.0830    0.3430    6.1200 o         1 4QH     -0.652300
     14 NAR         1.0930    2.1500    4.7950 nh        1 4QH     -0.760500
     15 CAY         0.2220    2.8460    3.9490 ca        1 4QH      0.176600
     16 CAP        -1.0030    2.2680    3.5290 ca        1 4QH     -0.173000
     17 CBE        -1.8290    2.9910    2.6840 ca        1 4QH      0.010600
     18 NBG        -3.0560    2.6320    2.0770 n         1 4QH     -0.333000
     19 CAD        -3.9640    1.6850    2.6440 c3        1 4QH      0.076300
     20 CBD        -3.5240    3.7920    1.3600 c         1 4QH      0.771500
     21 OAF        -4.6020    3.8760    0.7510 o         1 4QH     -0.610500
     22 NBH        -2.4790    4.7840    1.3540 n         1 4QH     -0.330000
     23 CAE        -2.7600    6.1670    1.1360 c3        1 4QH      0.079300
     24 CBF        -1.4740    4.3230    2.2380 ca        1 4QH     -0.019400
     25 CAQ        -0.2870    4.9030    2.6550 ca        1 4QH     -0.122000
     26 CBB         0.5460    4.1560    3.5010 ca        1 4QH      0.048100
     27 OAV         1.7980    4.6610    3.8560 os        1 4QH     -0.254200
     28 CAX         1.7920    5.9320    4.4340 ca        1 4QH      0.059100
     29 CAK         0.7910    6.3610    5.3160 ca        1 4QH     -0.122500
     30 CAI         0.9050    7.6050    5.9230 ca        1 4QH     -0.158500
     31 CAW         2.0260    8.4110    5.6460 ca        1 4QH      0.109100
     32 OAS         2.0370    9.6270    6.3030 os        1 4QH     -0.325900
     33 CAA         3.1710   10.4550    6.0730 c3        1 4QH      0.112700
     34 CAJ         3.0250    7.9770    4.7660 ca        1 4QH     -0.158500
     35 CAL         2.9060    6.7320    4.1510 ca        1 4QH     -0.122500
     36 H1         -0.1610   -1.6990    0.7380 h1        1 4QH      0.049367
     37 H2         -0.0660    0.0470    0.1720 h1        1 4QH      0.049367
     38 H3          0.1060   -1.3230   -1.0440 h1        1 4QH      0.049367
     39 H4          0.4340   -0.2730    2.4020 ha        1 4QH      0.159000
     40 H5          6.1040   -1.8160    1.0230 h1        1 4QH      0.050700
     41 H6          6.1620   -0.0680    0.4580 h1        1 4QH      0.050700
     42 H7          6.0270   -1.4280   -0.7750 h1        1 4QH      0.050700
     43 H8          5.4330   -0.3090    2.6170 ha        1 4QH      0.149000
     44 H9          4.0990    0.3550    4.5950 ha        1 4QH      0.156000
     45 H10         1.7350    2.7620    5.2570 hn        1 4QH      0.464800
     46 H11        -1.3040    1.2620    3.8720 ha        1 4QH      0.185000
     47 H12        -3.4380    0.6970    2.7370 h1        1 4QH      0.057700
     48 H13        -4.3240    2.0000    3.6600 h1        1 4QH      0.057700
     49 H14        -4.8460    1.5810    1.9560 h1        1 4QH      0.057700
     50 H15        -1.8420    6.6550    0.7110 h1        1 4QH      0.055033
     51 H16        -3.0460    6.6970    2.0860 h1        1 4QH      0.055033
     52 H17        -3.6060    6.2480    0.4010 h1        1 4QH      0.055033
     53 H18         0.0130    5.9130    2.3430 ha        1 4QH      0.161000
     54 H19        -0.0770    5.7170    5.5190 ha        1 4QH      0.150500
     55 H20         0.1360    7.9680    6.6190 ha        1 4QH      0.148500
     56 H21         4.1070    9.9430    6.4020 h1        1 4QH      0.045367
     57 H22         2.9680   11.3550    6.7080 h1        1 4QH      0.045367
     58 H23         3.2390   10.7410    4.9950 h1        1 4QH      0.045367
     59 H24         3.9020    8.6030    4.5500 ha        1 4QH      0.148500
     60 H25         3.6790    6.3700    3.4590 ha        1 4QH      0.150500
@<TRIPOS>BOND
     1    1    2 1   
     2    1   36 1   
     3    1   37 1   
     4    1   38 1   
     5    2    3 1   
     6    3    4 ar  
     7    3    5 ar  
     8    4   10 ar  
     9    4   39 1   
    10    5    6 1   
    11    5    8 ar  
    12    6    7 1   
    13    7   40 1   
    14    7   41 1   
    15    7   42 1   
    16    8    9 ar  
    17    8   43 1   
    18    9   10 ar  
    19    9   44 1   
    20   10   11 1   
    21   11   12 2   
    22   11   13 2   
    23   11   14 1   
    24   14   15 1   
    25   14   45 1   
    26   15   16 ar  
    27   15   26 ar  
    28   16   17 ar  
    29   16   46 1   
    30   17   18 1   
    31   17   24 ar  
    32   18   19 1   
    33   18   20 1   
    34   19   47 1   
    35   19   48 1   
    36   19   49 1   
    37   20   21 2   
    38   20   22 1   
    39   22   23 1   
    40   22   24 1   
    41   23   50 1   
    42   23   51 1   
    43   23   52 1   
    44   24   25 ar  
    45   25   26 ar  
    46   25   53 1   
    47   26   27 1   
    48   27   28 1   
    49   28   29 ar  
    50   28   35 ar  
    51   29   30 ar  
    52   29   54 1   
    53   30   31 ar  
    54   30   55 1   
    55   31   32 1   
    56   31   34 ar  
    57   32   33 1   
    58   33   56 1   
    59   33   57 1   
    60   33   58 1   
    61   34   35 ar  
    62   34   59 1   
    63   35   60 1   
@<TRIPOS>SUBSTRUCTURE
     1 4QH         1 TEMP              0 ****  ****    0 ROOT
