@<TRIPOS>MOLECULE
4QH
   60    63     1     0     0
SMALL
bcc


@<TRIPOS>ATOM
      1 CAC         0.2860   -0.9930    0.0080 c3        1 4QH      0.105700
      2 OAU         1.7060   -1.0450    0.0930 os        1 4QH     -0.303900
      3 CBA         2.2520   -0.6570    1.3000 ca        1 4QH      0.079100
      4 CAO         1.5270   -0.2740    2.4210 ca        1 4QH     -0.069000
      5 CAZ         3.6770   -0.6720    1.3530 ca        1 4QH      0.175100
      6 OAT         4.3050   -1.0610    0.1980 os        1 4QH     -0.294900
      7 CAB         5.7300   -1.0970    0.2350 c3        1 4QH      0.106700
      8 CAM         4.3260   -0.3070    2.5350 ca        1 4QH     -0.217000
      9 CAN         3.5760    0.0750    3.6460 ca        1 4QH      0.003000
     10 CBC         2.1820    0.1000    3.6080 ca        1 4QH     -0.404500
     11 SBI         1.2950    0.5330    4.9610 sy        1 4QH      1.522200
     12 OAG         0.0510   -0.1280    4.9270 o         1 4QH     -0.652300
     13 OAH         2.0880    0.3410    6.1140 o         1 4QH     -0.652300
     14 NAR         1.0970    2.1500    4.7920 nu        1 4QH     -0.760500
     15 CAY         0.2240    2.8480    3.9500 ca        1 4QH      0.176600
     16 CAP        -1.0030    2.2720    3.5340 ca        1 4QH     -0.173000
     17 CBE        -1.8310    2.9980    2.6920 ca        1 4QH      0.010600
     18 NBG        -3.0610    2.6420    2.0900 n         1 4QH     -0.333000
     19 CAD        -3.9690    1.6960    2.6600 c3        1 4QH      0.076300
     20 CBD        -3.5300    3.8030    1.3750 c         1 4QH      0.771500
     21 OAF        -4.6090    3.8890    0.7700 o         1 4QH     -0.610500
     22 NBH        -2.4830    4.7920    1.3650 n         1 4QH     -0.330000
     23 CAE        -2.7610    6.1770    1.1490 c3        1 4QH      0.079300
     24 CBF        -1.4750    4.3300    2.2460 ca        1 4QH     -0.019400
     25 CAQ        -0.2850    4.9060    2.6590 ca        1 4QH     -0.121000
     26 CBB         0.5500    4.1570    3.5010 ca        1 4QH      0.048100
     27 OAV         1.8040    4.6600    3.8520 os        1 4QH     -0.254200
     28 CAX         1.8030    5.9290    4.4320 ca        1 4QH      0.059100
     29 CAK         0.8060    6.3590    5.3180 ca        1 4QH     -0.122500
     30 CAI         0.9240    7.6010    5.9280 ca        1 4QH     -0.158500
     31 CAW         2.0460    8.4060    5.6490 ca        1 4QH      0.109100
     32 OAS         2.0600    9.6200    6.3080 os        1 4QH     -0.325900
     33 CAA         3.1950   10.4470    6.0760 c3        1 4QH      0.112700
     34 CAJ         3.0400    7.9720    4.7640 ca        1 4QH     -0.158500
     35 CAL         2.9170    6.7290    4.1470 ca        1 4QH     -0.122500
     36 H1         -0.0840    0.0480    0.1740 h1        1 4QH      0.049367
     37 H2         -0.1790   -1.6980    0.7400 h1        1 4QH      0.049367
     38 H3          0.0810   -1.3230   -1.0420 h1        1 4QH      0.049367
     39 H4          0.4230   -0.2720    2.4010 ha        1 4QH      0.159000
     40 H5          6.1440   -0.0790    0.4360 h1        1 4QH      0.050700
     41 H6          6.0030   -1.4390   -0.7960 h1        1 4QH      0.050700
     42 H7          6.0860   -1.8270    1.0020 h1        1 4QH      0.050700
     43 H8          5.4240   -0.3190    2.5990 ha        1 4QH      0.149000
     44 H9          4.0980    0.3480    4.5810 ha        1 4QH      0.156000
     45 H10         1.7430    2.7610    5.2510 hn        1 4QH      0.464800
     46 H11        -1.3060    1.2680    3.8780 ha        1 4QH      0.185000
     47 H12        -3.4450    0.7070    2.7510 h1        1 4QH      0.057700
     48 H13        -4.3250    2.0120    3.6780 h1        1 4QH      0.057700
     49 H14        -4.8540    1.5950    1.9750 h1        1 4QH      0.057700
     50 H15        -3.6090    6.2600    0.4170 h1        1 4QH      0.055033
     51 H16        -1.8440    6.6620    0.7210 h1        1 4QH      0.055033
     52 H17        -3.0420    6.7070    2.0990 h1        1 4QH      0.055033
     53 H18         0.0160    5.9160    2.3450 ha        1 4QH      0.161000
     54 H19        -0.0630    5.7160    5.5240 ha        1 4QH      0.150500
     55 H20         0.1580    7.9640    6.6280 ha        1 4QH      0.148500
     56 H21         4.1320    9.9330    6.4000 h1        1 4QH      0.045367
     57 H22         3.2590   10.7350    4.9980 h1        1 4QH      0.045367
     58 H23         2.9960   11.3450    6.7130 h1        1 4QH      0.045367
     59 H24         3.9170    8.5960    4.5460 ha        1 4QH      0.148500
     60 H25         3.6870    6.3670    3.4500 ha        1 4QH      0.150500
@<TRIPOS>BOND
     1    1    2 1   
     2    1   36 1   
     3    1   37 1   
     4    1   38 1   
     5    2    3 1   
     6    3    4 ar  
     7    3    5 ar  
     8    4   10 ar  
     9    4   39 1   
    10    5    6 1   
    11    5    8 ar  
    12    6    7 1   
    13    7   40 1   
    14    7   41 1   
    15    7   42 1   
    16    8    9 ar  
    17    8   43 1   
    18    9   10 ar  
    19    9   44 1   
    20   10   11 1   
    21   11   12 2   
    22   11   13 2   
    23   11   14 1   
    24   14   15 1   
    25   14   45 1   
    26   15   16 ar  
    27   15   26 ar  
    28   16   17 ar  
    29   16   46 1   
    30   17   18 1   
    31   17   24 ar  
    32   18   19 1   
    33   18   20 1   
    34   19   47 1   
    35   19   48 1   
    36   19   49 1   
    37   20   21 2   
    38   20   22 1   
    39   22   23 1   
    40   22   24 1   
    41   23   50 1   
    42   23   51 1   
    43   23   52 1   
    44   24   25 ar  
    45   25   26 ar  
    46   25   53 1   
    47   26   27 1   
    48   27   28 1   
    49   28   29 ar  
    50   28   35 ar  
    51   29   30 ar  
    52   29   54 1   
    53   30   31 ar  
    54   30   55 1   
    55   31   32 1   
    56   31   34 ar  
    57   32   33 1   
    58   33   56 1   
    59   33   57 1   
    60   33   58 1   
    61   34   35 ar  
    62   34   59 1   
    63   35   60 1   
@<TRIPOS>SUBSTRUCTURE
     1 4QH         1 TEMP              0 ****  ****    0 ROOT
