@<TRIPOS>MOLECULE
4QO
   56    57     1     0     0
SMALL
bcc


@<TRIPOS>ATOM
      1 C18        -0.0800    0.4470   -0.0110 ca        1 4QO     -0.069000
      2 C17         1.3010    0.2350   -0.2150 ca        1 4QO      0.046600
      3 C19        -0.5830    0.5520    1.2810 ca        1 4QO     -0.083000
      4 C11         0.5380   -1.5650   -4.5740 c3        1 4QO     -0.132600
      5 C12         2.8140   -2.0200   -3.6870 c3        1 4QO     -0.132600
      6 C1          3.9710   -0.7420   -6.0470 ca        1 4QO     -0.129000
      7 C2          2.5860   -0.9360   -5.9280 ca        1 4QO     -0.195300
      8 C3          1.7970   -1.0030   -7.0810 ca        1 4QO     -0.093000
      9 C4          2.3940   -0.8860   -8.3370 ca        1 4QO     -0.112000
     10 C5          3.7670   -0.6900   -8.4540 ca        1 4QO     -0.065000
     11 C6          4.5720   -0.6190   -7.3040 ca        1 4QO     -0.020800
     12 C7          6.0190   -0.4190   -7.4220 ce        1 4QO     -0.089400
     13 C8          6.4720    0.5030   -8.4960 c3        1 4QO     -0.066900
     14 C9          6.8870   -1.0520   -6.6220 c2        1 4QO     -0.184000
     15 C10         1.9840   -1.0700   -4.5520 c3        1 4QO      0.241500
     16 C14         1.2770    0.5370   -2.6570 c         1 4QO      0.649100
     17 O1          0.1840    1.1100   -2.7490 o         1 4QO     -0.485100
     18 N2          1.8740    0.0790   -1.5010 ns        1 4QO     -0.446100
     19 C22         2.1500    0.1500    0.9070 ca        1 4QO     -0.082000
     20 C21         1.6370    0.2650    2.2110 ca        1 4QO     -0.158600
     21 C23         2.6430    0.1050    3.2810 c         1 4QO      0.560700
     22 O2          3.6840   -0.5320    3.1720 o         1 4QO     -0.411100
     23 N3          2.4240    0.8110    4.6010 nx        1 4QO     -0.593200
     24 C26         2.7860   -0.0770    5.7390 c3        1 4QO      0.084100
     25 C27         3.2240    2.0660    4.6360 c3        1 4QO      0.084100
     26 C20         0.2580    0.4560    2.3960 ca        1 4QO      0.040400
     27 Cl1        -0.4690    0.5440    3.9270 cl        1 4QO     -0.019400
     28 N1          2.0180    0.3660   -3.9630 ny        1 4QO     -0.673800
     29 H1         -0.7840    0.5310   -0.8610 ha        1 4QO      0.199000
     30 H2         -1.6710    0.7040    1.4240 ha        1 4QO      0.200000
     31 H3         -0.1440   -0.8580   -5.1080 hc        1 4QO      0.079700
     32 H4          0.5150   -2.5510   -5.1040 hc        1 4QO      0.079700
     33 H5          0.1530   -1.7130   -3.5350 hc        1 4QO      0.079700
     34 H6          2.2510   -2.3420   -2.7790 hc        1 4QO      0.079700
     35 H7          3.0250   -2.9370   -4.3000 hc        1 4QO      0.079700
     36 H8          3.7960   -1.5840   -3.3850 hc        1 4QO      0.079700
     37 H10         0.7090   -1.1630   -7.0260 ha        1 4QO      0.149000
     38 H11         1.7690   -0.9530   -9.2440 ha        1 4QO      0.169000
     39 H12         4.2310   -0.5970   -9.4510 ha        1 4QO      0.171000
     40 H13         6.4710   -0.0280   -9.4820 hc        1 4QO      0.057033
     41 H14         7.5120    0.8640   -8.2990 hc        1 4QO      0.057033
     42 H15         5.7970    1.3900   -8.5730 hc        1 4QO      0.057033
     43 H16         6.5740   -1.7640   -5.8480 ha        1 4QO      0.125000
     44 H17         7.9730   -0.9120   -6.7190 ha        1 4QO      0.125000
     45 H18         2.7420   -0.4160   -1.5450 hn        1 4QO      0.355500
     46 H19         3.2350   -0.0260    0.7840 ha        1 4QO      0.174000
     47 H20         3.8620   -0.3910    5.6480 hx        1 4QO      0.113700
     48 H21         2.6350    0.4810    6.7020 hx        1 4QO      0.113700
     49 H22         2.1290   -0.9880    5.7200 hx        1 4QO      0.113700
     50 H23         3.0480    2.5870    5.6160 hx        1 4QO      0.113700
     51 H24         2.9060    2.7350    3.7930 hx        1 4QO      0.113700
     52 H25         4.3150    1.8160    4.5370 hx        1 4QO      0.113700
     53 H26         2.9970    0.6560   -3.8830 hn        1 4QO      0.472300
     54 H31         1.4140    1.0520    4.6810 hn        1 4QO      0.468800
     55 H121        1.5470    0.9810   -4.6470 hn        1 4QO      0.472300
     56 H9          4.6100   -0.7020   -5.1520 ha        1 4QO      0.125000
@<TRIPOS>BOND
     1    1    2 ar  
     2    1    3 ar  
     3    1   29 1   
     4    2   18 1   
     5    2   19 ar  
     6    3   26 ar  
     7    3   30 1   
     8    4   15 1   
     9    4   31 1   
    10    4   32 1   
    11    4   33 1   
    12    5   15 1   
    13    5   34 1   
    14    5   35 1   
    15    5   36 1   
    16    6    7 ar  
    17    6   11 ar  
    18    6   56 1   
    19    7    8 ar  
    20    7   15 1   
    21    8    9 ar  
    22    8   37 1   
    23    9   10 ar  
    24    9   38 1   
    25   10   11 ar  
    26   10   39 1   
    27   11   12 1   
    28   12   13 1   
    29   12   14 2   
    30   13   40 1   
    31   13   41 1   
    32   13   42 1   
    33   14   43 1   
    34   14   44 1   
    35   15   28 1   
    36   16   17 2   
    37   16   18 1   
    38   16   28 1   
    39   18   45 1   
    40   19   20 ar  
    41   19   46 1   
    42   20   21 1   
    43   20   26 ar  
    44   21   22 2   
    45   21   23 1   
    46   23   24 1   
    47   23   25 1   
    48   23   54 1   
    49   24   47 1   
    50   24   48 1   
    51   24   49 1   
    52   25   50 1   
    53   25   51 1   
    54   25   52 1   
    55   26   27 1   
    56   28   53 1   
    57   28   55 1   
@<TRIPOS>SUBSTRUCTURE
     1 4QO         1 TEMP              0 ****  ****    0 ROOT
