@<TRIPOS>MOLECULE
4QO
   56    57     1     0     0
SMALL
bcc


@<TRIPOS>ATOM
      1 C18        -0.0770    0.4530   -0.0100 ca        1 4QO     -0.069000
      2 C17         1.3040    0.2430   -0.2150 ca        1 4QO      0.046600
      3 C19        -0.5780    0.5640    1.2820 ca        1 4QO     -0.083000
      4 C11         0.5320   -1.5730   -4.5670 c3        1 4QO     -0.132600
      5 C12         2.8070   -2.0290   -3.6800 c3        1 4QO     -0.132600
      6 C1          3.9650   -0.7620   -6.0450 ca        1 4QO     -0.129000
      7 C2          2.5800   -0.9540   -5.9240 ca        1 4QO     -0.195300
      8 C3          1.7910   -1.0240   -7.0770 ca        1 4QO     -0.093000
      9 C4          2.3870   -0.9120   -8.3340 ca        1 4QO     -0.112000
     10 C5          3.7600   -0.7190   -8.4520 ca        1 4QO     -0.065000
     11 C6          4.5660   -0.6450   -7.3030 ca        1 4QO     -0.020800
     12 C7          6.0130   -0.4480   -7.4220 ce        1 4QO     -0.089400
     13 C8          6.4670    0.4690   -8.4990 c3        1 4QO     -0.066900
     14 C9          6.8800   -1.0810   -6.6210 c2        1 4QO     -0.184000
     15 C10         1.9780   -1.0810   -4.5480 c3        1 4QO      0.241500
     16 C14         1.2760    0.5340   -2.6580 c         1 4QO      0.649100
     17 O1          0.1830    1.1070   -2.7510 o         1 4QO     -0.485100
     18 N2          1.8750    0.0810   -1.5010 n         1 4QO     -0.446100
     19 C22         2.1550    0.1650    0.9060 ca        1 4QO     -0.082000
     20 C21         1.6440    0.2860    2.2100 ca        1 4QO     -0.158600
     21 C23         2.6520    0.1350    3.2790 c         1 4QO      0.560700
     22 O2          3.6940   -0.5020    3.1720 o         1 4QO     -0.411100
     23 N3          2.4340    0.8480    4.5950 n4        1 4QO     -0.593200
     24 C26         2.8000   -0.0330    5.7380 c3        1 4QO      0.084100
     25 C27         3.2310    2.1040    4.6210 c3        1 4QO      0.084100
     26 C20         0.2650    0.4760    2.3960 ca        1 4QO      0.040400
     27 CL1        -0.4600    0.5710    3.9280 cl        1 4QO     -0.019400
     28 N1          2.0140    0.3570   -3.9640 n4        1 4QO     -0.673800
     29 H1         -0.7820    0.5320   -0.8600 ha        1 4QO      0.199000
     30 H2         -1.6660    0.7160    1.4260 ha        1 4QO      0.200000
     31 H3         -0.1490   -0.8680   -5.1040 hc        1 4QO      0.079700
     32 H4          0.5060   -2.5620   -5.0930 hc        1 4QO      0.079700
     33 H5          0.1470   -1.7180   -3.5280 hc        1 4QO      0.079700
     34 H6          2.2440   -2.3460   -2.7690 hc        1 4QO      0.079700
     35 H7          3.7910   -1.5930   -3.3800 hc        1 4QO      0.079700
     36 H8          3.0160   -2.9490   -4.2880 hc        1 4QO      0.079700
     37 H10         0.7020   -1.1810   -7.0210 ha        1 4QO      0.149000
     38 H11         1.7620   -0.9810   -9.2410 ha        1 4QO      0.169000
     39 H12         4.2230   -0.6300   -9.4500 ha        1 4QO      0.171000
     40 H13         6.4640   -0.0650   -9.4840 hc        1 4QO      0.057033
     41 H14         7.5080    0.8280   -8.3050 hc        1 4QO      0.057033
     42 H15         5.7940    1.3570   -8.5790 hc        1 4QO      0.057033
     43 H16         6.5660   -1.7890   -5.8440 ha        1 4QO      0.125000
     44 H17         7.9670   -0.9430   -6.7180 ha        1 4QO      0.125000
     45 H18         2.7430   -0.4140   -1.5440 hn        1 4QO      0.355500
     46 H19         3.2400   -0.0090    0.7820 ha        1 4QO      0.174000
     47 H20         3.8770   -0.3450    5.6460 hx        1 4QO      0.113700
     48 H21         2.1450   -0.9450    5.7250 hx        1 4QO      0.113700
     49 H22         2.6510    0.5310    6.6990 hx        1 4QO      0.113700
     50 H23         2.9100    2.7680    3.7750 hx        1 4QO      0.113700
     51 H24         3.0550    2.6310    5.5990 hx        1 4QO      0.113700
     52 H25         4.3230    1.8560    4.5220 hx        1 4QO      0.113700
     53 H26         2.9940    0.6470   -3.8880 hn        1 4QO      0.472300
     54 H31         1.4230    1.0870    4.6760 hn        1 4QO      0.468800
     55 H121        1.5430    0.9710   -4.6500 hn        1 4QO      0.472300
     56 H9          4.6050   -0.7200   -5.1500 ha        1 4QO      0.125000
@<TRIPOS>BOND
     1    1    2 ar  
     2    1    3 ar  
     3    1   29 1   
     4    2   18 1   
     5    2   19 ar  
     6    3   26 ar  
     7    3   30 1   
     8    4   15 1   
     9    4   31 1   
    10    4   32 1   
    11    4   33 1   
    12    5   15 1   
    13    5   34 1   
    14    5   35 1   
    15    5   36 1   
    16    6    7 ar  
    17    6   11 ar  
    18    6   56 1   
    19    7    8 ar  
    20    7   15 1   
    21    8    9 ar  
    22    8   37 1   
    23    9   10 ar  
    24    9   38 1   
    25   10   11 ar  
    26   10   39 1   
    27   11   12 1   
    28   12   13 1   
    29   12   14 2   
    30   13   40 1   
    31   13   41 1   
    32   13   42 1   
    33   14   43 1   
    34   14   44 1   
    35   15   28 1   
    36   16   17 2   
    37   16   18 1   
    38   16   28 1   
    39   18   45 1   
    40   19   20 ar  
    41   19   46 1   
    42   20   21 1   
    43   20   26 ar  
    44   21   22 2   
    45   21   23 1   
    46   23   24 1   
    47   23   25 1   
    48   23   54 1   
    49   24   47 1   
    50   24   48 1   
    51   24   49 1   
    52   25   50 1   
    53   25   51 1   
    54   25   52 1   
    55   26   27 1   
    56   28   53 1   
    57   28   55 1   
@<TRIPOS>SUBSTRUCTURE
     1 4QO         1 TEMP              0 ****  ****    0 ROOT
