@<TRIPOS>MOLECULE
4R8
   56    55     1     0     0
SMALL
bcc


@<TRIPOS>ATOM
      1 C22         2.4120   -1.9880    5.2500 c3        1 4R8     -0.088100
      2 C21         2.9100   -2.4000    3.8870 c3        1 4R8     -0.066200
      3 C20         3.2880   -1.2370    3.0510 c2        1 4R8     -0.172200
      4 C19         4.1500   -1.2890    2.0290 c2        1 4R8     -0.169200
      5 C18         4.8540   -2.5220    1.6050 c3        1 4R8     -0.035000
      6 C17         5.8800   -2.2980    0.5610 c2        1 4R8     -0.167200
      7 C16         6.7210   -3.2500    0.1390 c2        1 4R8     -0.175200
      8 C15         6.7200   -4.6340    0.6720 c3        1 4R8     -0.030000
      9 C14         7.7370   -5.5080    0.0410 c2        1 4R8     -0.161200
     10 C13         7.9980   -6.7670    0.4080 c2        1 4R8     -0.176200
     11 C12         7.3460   -7.4860    1.5300 c3        1 4R8     -0.028000
     12 C11         6.9410   -8.8640    1.1590 c2        1 4R8     -0.166200
     13 C10         6.5410   -9.7970    2.0300 c2        1 4R8     -0.175200
     14 C9          6.4630   -9.6190    3.5000 c3        1 4R8     -0.047200
     15 C8          5.1740   -8.9250    3.9120 c3        1 4R8     -0.036200
     16 C7          5.1370   -8.6580    5.3700 c2        1 4R8     -0.218200
     17 C6          5.6630   -7.5920    5.9810 c2        1 4R8     -0.131200
     18 C5          6.4400   -6.5170    5.3170 c3        1 4R8     -0.176200
     19 C4          5.6330   -5.2580    5.1430 c         1 4R8      0.601100
     20 O3          5.4770   -4.7580    4.0160 o         1 4R8     -0.615100
     21 C3          5.0450   -4.6360    6.3740 c3        1 4R8     -0.168400
     22 C2          6.1040   -4.1680    7.3480 c3        1 4R8     -0.194400
     23 C1          6.6650   -5.3360    8.1800 c         1 4R8      0.900600
     24 O1          5.8490   -6.0570    8.8260 o         1 4R8     -0.845300
     25 O2          7.9140   -5.5290    8.1600 o         1 4R8     -0.845300
     26 H221        3.2080   -1.4390    5.8080 hc        1 4R8      0.031033
     27 H222        2.1290   -2.8910    5.8430 hc        1 4R8      0.031033
     28 H223        1.5180   -1.3240    5.1660 hc        1 4R8      0.031033
     29 H211        2.1080   -2.9820    3.3540 hc        1 4R8      0.063700
     30 H212        3.7900   -3.0970    4.0070 hc        1 4R8      0.063700
     31 H20         2.8040   -0.2830    3.3170 ha        1 4R8      0.107000
     32 H19         4.3740   -0.3780    1.4510 ha        1 4R8      0.107000
     33 H181        5.3370   -3.0120    2.5050 hc        1 4R8      0.079200
     34 H182        4.0970   -3.2680    1.2240 hc        1 4R8      0.079200
     35 H17         5.9310   -1.2840    0.1320 ha        1 4R8      0.109000
     36 H16         7.4670   -3.0230   -0.6380 ha        1 4R8      0.109000
     37 H151        5.6970   -5.0850    0.5200 hc        1 4R8      0.076200
     38 H152        6.8750   -4.6020    1.7920 hc        1 4R8      0.076200
     39 H14         8.3030   -5.0610   -0.7940 ha        1 4R8      0.108000
     40 H13         8.7670   -7.3480   -0.1280 ha        1 4R8      0.109000
     41 H121        8.0670   -7.5190    2.3970 hc        1 4R8      0.070200
     42 H122        6.4410   -6.9200    1.8940 hc        1 4R8      0.070200
     43 H11         6.9700   -9.0950    0.0810 ha        1 4R8      0.110000
     44 H10         6.2350  -10.7910    1.6630 ha        1 4R8      0.106000
     45 H9C1        7.3370   -9.0120    3.8630 hc        1 4R8      0.047700
     46 H9C2        6.5230  -10.6190    4.0060 hc        1 4R8      0.047700
     47 H8          5.0780   -7.9620    3.3400 hc        1 4R8      0.038700
     48 H7          4.6170   -9.4240    5.9680 ha        1 4R8      0.111000
     49 H6          5.5690   -7.4550    7.0820 ha        1 4R8      0.191000
     50 H5C1        7.3220   -6.2590    5.9810 hc        1 4R8      0.090200
     51 H5C2        6.8320   -6.8490    4.3180 hc        1 4R8      0.090200
     52 H3C1        4.3890   -3.7750    6.0720 hc        1 4R8      0.061200
     53 H3C2        4.4050   -5.4050    6.8910 hc        1 4R8      0.061200
     54 H2C1        6.9390   -3.6570    6.8090 hc        1 4R8      0.034200
     55 H2C2        5.6430   -3.4340    8.0570 hc        1 4R8      0.034200
     56 HOT         4.3010   -9.5680    3.6240 hc        1 4R8      0.038700
@<TRIPOS>BOND
     1    1    2 1   
     2    1   26 1   
     3    1   27 1   
     4    1   28 1   
     5    2    3 1   
     6    2   29 1   
     7    2   30 1   
     8    3    4 2   
     9    3   31 1   
    10    4    5 1   
    11    4   32 1   
    12    5    6 1   
    13    5   33 1   
    14    5   34 1   
    15    6    7 2   
    16    6   35 1   
    17    7    8 1   
    18    7   36 1   
    19    8    9 1   
    20    8   37 1   
    21    8   38 1   
    22    9   10 2   
    23    9   39 1   
    24   10   11 1   
    25   10   40 1   
    26   11   12 1   
    27   11   41 1   
    28   11   42 1   
    29   12   13 2   
    30   12   43 1   
    31   13   14 1   
    32   13   44 1   
    33   14   15 1   
    34   14   45 1   
    35   14   46 1   
    36   15   16 1   
    37   15   47 1   
    38   15   56 1   
    39   16   17 2   
    40   16   48 1   
    41   17   18 1   
    42   17   49 1   
    43   18   19 1   
    44   18   50 1   
    45   18   51 1   
    46   19   20 2   
    47   19   21 1   
    48   21   22 1   
    49   21   52 1   
    50   21   53 1   
    51   22   23 1   
    52   22   54 1   
    53   22   55 1   
    54   23   24 1   
    55   23   25 1   
@<TRIPOS>SUBSTRUCTURE
     1 4R8         1 TEMP              0 ****  ****    0 ROOT
