@<TRIPOS>MOLECULE
4R8
   56    50     1     0     0
SMALL
bcc


@<TRIPOS>ATOM
      1 C22        -5.0830    0.6580   -9.1120 c3        1 4R8     -0.208000
      2 C21        -5.2330    0.2930   -7.6520 c3        1 4R8     -0.134000
      3 C20        -5.9810    1.3920   -6.9310 c2        1 4R8     -0.175000
      4 C19        -6.0880    1.3660   -5.5880 c1        1 4R8     -0.163000
      5 C18        -5.4600    0.2360   -4.8010 c2        1 4R8     -0.102333
      6 C17        -5.4800    0.5760   -3.3270 c2        1 4R8     -0.179667
      7 C16        -4.7660   -0.1630   -2.4550 c1        1 4R8     -0.148000
      8 C15        -4.7860    0.1770   -0.9810 c2        1 4R8     -0.102333
      9 C14        -3.7670   -0.6720   -0.2540 c2        1 4R8     -0.179667
     10 C13        -3.1140   -0.1740    0.8140 c1        1 4R8     -0.148000
     11 C12        -2.0950   -1.0240    1.5420 c2        1 4R8     -0.102333
     12 C11        -1.2080   -0.1350    2.3860 c2        1 4R8     -0.179667
     13 C10        -0.0090   -0.5840    2.8060 c1        1 4R8     -0.148000
     14 C9          0.8790    0.3040    3.6500 c2        1 4R8     -0.133000
     15 C8          2.3060   -0.1930    3.5770 c3        1 4R8     -0.121000
     16 C7          3.2310    0.9700    3.2950 c2        1 4R8     -0.216000
     17 C6          4.5510    0.8550    3.5390 c1        1 4R8     -0.128000
     18 C5          5.1080   -0.4380    4.0950 c2        1 4R8     -0.205000
     19 C4          6.5630   -0.5690    3.7040 c2        1 4R8      0.253000
     20 O3          6.8740   -0.6310    2.5310 o         1 4R8     -0.356000
     21 C3          7.6330   -0.6200    4.7730 c3        1 4R8     -0.194000
     22 C2          8.9840   -0.8310    4.1260 c3        1 4R8     -0.223000
     23 C1         10.0700   -0.6910    5.1690 c2        1 4R8      0.321000
     24 O1         10.5070    0.4500    5.4740 o         1 4R8     -0.581500
     25 O2         10.5410   -1.7150    5.7290 o         1 4R8     -0.581500
     26 H221       -4.5860    1.4990   -9.1890 hc        1 4R8      0.071667
     27 H222       -5.9710    0.7660   -9.5150 hc        1 4R8      0.071667
     28 H223       -4.5970   -0.0530   -9.5790 hc        1 4R8      0.071667
     29 H211       -4.3480    0.1830   -7.2510 hc        1 4R8      0.088500
     30 H212       -5.7320   -0.5460   -7.5750 hc        1 4R8      0.088500
     31 H20        -6.3870    2.1210   -7.4380 ha        1 4R8      0.118000
     32 H19        -6.5710    2.0750   -5.1220 ha        1 4R8      0.121000
     33 H181       -4.5350    0.1100   -5.0940 ha        1 4R8      0.090000
     34 H182       -5.9660   -0.5870   -4.9530 ha        1 4R8      0.090000
     35 H17        -6.0110    1.3300   -3.0070 ha        1 4R8      0.119333
     36 H16        -4.2370   -0.9180   -2.7750 ha        1 4R8      0.123667
     37 H151       -5.6770    0.0010   -0.6180 ha        1 4R8      0.090000
     38 H152       -4.5670    1.1230   -0.8620 ha        1 4R8      0.090000
     39 H14        -3.5870   -1.5830   -0.5550 ha        1 4R8      0.119333
     40 H13        -3.3010    0.7330    1.1210 ha        1 4R8      0.123667
     41 H121       -2.5570   -1.6650    2.1180 ha        1 4R8      0.090000
     42 H122       -1.5480   -1.5060    0.8900 ha        1 4R8      0.090000
     43 H11        -1.5060    0.7610    2.6300 ha        1 4R8      0.119333
     44 H10         0.2860   -1.4840    2.5680 ha        1 4R8      0.123667
     45 H9C1        0.8360    1.2220    3.3130 ha        1 4R8      0.085500
     46 H9C2        0.5730    0.2830    4.5780 ha        1 4R8      0.085500
     47 H8          2.5510   -0.6060    4.4290 hc        1 4R8      0.085500
     48 H7          2.8720    1.8040    2.9360 ha        1 4R8      0.111000
     49 H6          5.1490    1.6050    3.3580 ha        1 4R8      0.190000
     50 H5C1        4.6030   -1.1930    3.7330 ha        1 4R8      0.126500
     51 H5C2        5.0320   -0.4330    5.0710 ha        1 4R8      0.126500
     52 H3C1        7.6370    0.2230    5.2700 hc        1 4R8      0.098500
     53 H3C2        7.4460   -1.3590    5.3870 hc        1 4R8      0.098500
     54 H2C1        9.1170   -0.1630    3.4240 hc        1 4R8      0.071500
     55 H2C2        9.0210   -1.7270    3.7350 hc        1 4R8      0.071500
     56 HOT         2.3840   -0.8540    2.8600 hc        1 4R8      0.085500
@<TRIPOS>BOND
     1    1    2 1   
     2    1   26 1   
     3    1   27 1   
     4    1   28 1   
     5    2    3 1   
     6    2   29 1   
     7    2   30 1   
     8    3    4 1   
     9    3   31 1   
    10    4   32 1   
    11    5    6 1   
    12    5   33 1   
    13    5   34 1   
    14    6    7 1   
    15    6   35 1   
    16    7   36 1   
    17    8    9 1   
    18    8   37 1   
    19    8   38 1   
    20    9   10 1   
    21    9   39 1   
    22   10   40 1   
    23   11   12 1   
    24   11   41 1   
    25   11   42 1   
    26   12   13 1   
    27   12   43 1   
    28   13   44 1   
    29   14   15 1   
    30   14   45 1   
    31   14   46 1   
    32   15   16 1   
    33   15   47 1   
    34   15   56 1   
    35   16   17 1   
    36   16   48 1   
    37   17   49 1   
    38   18   19 1   
    39   18   50 1   
    40   18   51 1   
    41   19   20 1   
    42   19   21 1   
    43   21   22 1   
    44   21   52 1   
    45   21   53 1   
    46   22   23 1   
    47   22   54 1   
    48   22   55 1   
    49   23   24 1   
    50   23   25 1   
@<TRIPOS>SUBSTRUCTURE
     1 4R8         1 TEMP              0 ****  ****    0 ROOT
