@<TRIPOS>MOLECULE
4R8
   56    55     1     0     0
SMALL
bcc


@<TRIPOS>ATOM
      1 C22        -1.5980   -3.8650   -0.9180 c3        1 4R8     -0.114100
      2 C21        -2.2810   -2.7400   -0.1830 c3        1 4R8     -0.052200
      3 C20        -3.6990   -3.0320    0.1320 c2        1 4R8     -0.138200
      4 C19        -4.5600   -2.1530    0.6560 c2        1 4R8     -0.217200
      5 C18        -4.2090   -0.7490    0.9770 c3        1 4R8     -0.017000
      6 C17        -5.1830   -0.0930    1.8820 c2        1 4R8     -0.154200
      7 C16        -5.2480    1.2270    2.0880 c2        1 4R8     -0.190200
      8 C15        -4.3640    2.2090    1.4150 c3        1 4R8     -0.019000
      9 C14        -4.4820    3.5830    1.9620 c2        1 4R8     -0.160200
     10 C13        -3.7800    4.6370    1.5340 c2        1 4R8     -0.174200
     11 C12        -2.7850    4.6160    0.4320 c3        1 4R8     -0.018000
     12 C11        -1.4860    5.1950    0.8590 c2        1 4R8     -0.186200
     13 C10        -0.3030    4.5810    0.7640 c2        1 4R8     -0.152200
     14 C9         -0.0980    3.2130    0.2320 c3        1 4R8     -0.052200
     15 C8          1.3370    2.7410    0.3890 c3        1 4R8     -0.034200
     16 C7          1.4940    1.3510   -0.1000 c2        1 4R8     -0.214200
     17 C6          2.4830    0.9530   -0.9060 c2        1 4R8     -0.129200
     18 C5          2.6150   -0.4440   -1.3720 c3        1 4R8     -0.187200
     19 C4          3.8090   -0.6980   -2.2430 c         1 4R8      0.588100
     20 O3          4.7230    0.1270   -2.3990 o         1 4R8     -0.599100
     21 C3          3.8200   -2.0240   -2.9490 c3        1 4R8     -0.169400
     22 C2          3.5220   -3.1910   -2.0360 c3        1 4R8     -0.191400
     23 C1          2.0290   -3.2840   -1.6860 c         1 4R8      0.896600
     24 O1          1.1740   -3.1120   -2.6050 o         1 4R8     -0.849300
     25 O2          1.7130   -3.5210   -0.4840 o         1 4R8     -0.849300
     26 H221       -1.6260   -4.8030   -0.3130 hc        1 4R8      0.055367
     27 H222       -2.1010   -4.0590   -1.8950 hc        1 4R8      0.055367
     28 H223       -0.5190   -3.6040   -1.1190 hc        1 4R8      0.055367
     29 H211       -1.7270   -2.5310    0.7740 hc        1 4R8      0.049200
     30 H212       -2.2210   -1.8000   -0.7990 hc        1 4R8      0.049200
     31 H20        -4.0330   -4.0600   -0.0940 ha        1 4R8      0.114000
     32 H19        -5.6010   -2.4480    0.8630 ha        1 4R8      0.106000
     33 H181       -3.1870   -0.7130    1.4530 hc        1 4R8      0.059200
     34 H182       -4.1280   -0.1630    0.0160 hc        1 4R8      0.059200
     35 H17        -5.8750   -0.7680    2.4140 ha        1 4R8      0.117000
     36 H16        -5.9930    1.6410    2.7870 ha        1 4R8      0.112000
     37 H151       -3.2920    1.8650    1.5000 hc        1 4R8      0.061700
     38 H152       -4.6060    2.2220    0.3140 hc        1 4R8      0.061700
     39 H14        -5.2060    3.7120    2.7850 ha        1 4R8      0.114000
     40 H13        -3.9200    5.6230    2.0080 ha        1 4R8      0.112000
     41 H121       -2.6440    3.5710    0.0430 hc        1 4R8      0.052700
     42 H122       -3.1870    5.2310   -0.4230 hc        1 4R8      0.052700
     43 H11        -1.5510    6.2120    1.2780 ha        1 4R8      0.110000
     44 H10         0.6120    5.1020    1.0950 ha        1 4R8      0.116000
     45 H9C1       -0.7830    2.4940    0.7600 hc        1 4R8      0.053700
     46 H9C2       -0.3770    3.1880   -0.8570 hc        1 4R8      0.053700
     47 H8          2.0240    3.4380   -0.1600 hc        1 4R8      0.037200
     48 H7          0.7330    0.6350    0.2560 ha        1 4R8      0.129000
     49 H6          3.2560    1.6550   -1.2650 ha        1 4R8      0.128000
     50 H5C1        2.6740   -1.1550   -0.4940 hc        1 4R8      0.121700
     51 H5C2        1.6920   -0.7660   -1.9400 hc        1 4R8      0.121700
     52 H3C1        3.0240   -1.9900   -3.7450 hc        1 4R8      0.061700
     53 H3C2        4.8140   -2.1640   -3.4500 hc        1 4R8      0.061700
     54 H2C1        3.8070   -4.1400   -2.5570 hc        1 4R8      0.033200
     55 H2C2        4.1210   -3.1200   -1.0940 hc        1 4R8      0.033200
     56 HOT         1.6230    2.7810    1.4760 hc        1 4R8      0.037200
@<TRIPOS>BOND
     1    1    2 1   
     2    1   26 1   
     3    1   27 1   
     4    1   28 1   
     5    2    3 1   
     6    2   29 1   
     7    2   30 1   
     8    3    4 2   
     9    3   31 1   
    10    4    5 1   
    11    4   32 1   
    12    5    6 1   
    13    5   33 1   
    14    5   34 1   
    15    6    7 2   
    16    6   35 1   
    17    7    8 1   
    18    7   36 1   
    19    8    9 1   
    20    8   37 1   
    21    8   38 1   
    22    9   10 2   
    23    9   39 1   
    24   10   11 1   
    25   10   40 1   
    26   11   12 1   
    27   11   41 1   
    28   11   42 1   
    29   12   13 2   
    30   12   43 1   
    31   13   14 1   
    32   13   44 1   
    33   14   15 1   
    34   14   45 1   
    35   14   46 1   
    36   15   16 1   
    37   15   47 1   
    38   15   56 1   
    39   16   17 2   
    40   16   48 1   
    41   17   18 1   
    42   17   49 1   
    43   18   19 1   
    44   18   50 1   
    45   18   51 1   
    46   19   20 2   
    47   19   21 1   
    48   21   22 1   
    49   21   52 1   
    50   21   53 1   
    51   22   23 1   
    52   22   54 1   
    53   22   55 1   
    54   23   24 1   
    55   23   25 1   
@<TRIPOS>SUBSTRUCTURE
     1 4R8         1 TEMP              0 ****  ****    0 ROOT
