@<TRIPOS>MOLECULE
4R8
   56    55     1     0     0
SMALL
bcc


@<TRIPOS>ATOM
      1 C22         2.1910   -2.1730    5.1700 c3        1 4R8     -0.088100
      2 C21         2.7700   -2.5300    3.8240 c3        1 4R8     -0.066200
      3 C20         3.1330   -1.3320    3.0310 c2        1 4R8     -0.172200
      4 C19         4.0420   -1.3210    2.0500 c2        1 4R8     -0.169200
      5 C18         4.8210   -2.5110    1.6350 c3        1 4R8     -0.035000
      6 C17         5.8830   -2.2160    0.6450 c2        1 4R8     -0.167200
      7 C16         6.7860   -3.1190    0.2440 c2        1 4R8     -0.175200
      8 C15         6.8240   -4.5140    0.7460 c3        1 4R8     -0.030000
      9 C14         7.9090   -5.3260    0.1450 c2        1 4R8     -0.161200
     10 C13         8.2090   -6.5810    0.4960 c2        1 4R8     -0.176200
     11 C12         7.5380   -7.3560    1.5680 c3        1 4R8     -0.028000
     12 C11         7.2120   -8.7410    1.1470 c2        1 4R8     -0.166200
     13 C10         6.8120   -9.7110    1.9750 c2        1 4R8     -0.175200
     14 C9          6.6560   -9.5740    3.4420 c3        1 4R8     -0.047200
     15 C8          5.3200   -8.9460    3.8070 c3        1 4R8     -0.036200
     16 C7          5.2010   -8.7180    5.2680 c2        1 4R8     -0.218200
     17 C6          5.6510   -7.6470    5.9280 c2        1 4R8     -0.131200
     18 C5          6.4100   -6.5230    5.3270 c3        1 4R8     -0.176200
     19 C4          5.5580   -5.2960    5.1430 c         1 4R8      0.601100
     20 O3          5.4340   -4.7740    4.0230 o         1 4R8     -0.615100
     21 C3          4.8850   -4.7310    6.3590 c3        1 4R8     -0.168400
     22 C2          5.8750   -4.2420    7.3940 c3        1 4R8     -0.194400
     23 C1          6.4460   -5.4060    8.2250 c         1 4R8      0.900600
     24 O1          5.6330   -6.1780    8.8130 o         1 4R8     -0.845300
     25 O2          7.7020   -5.5450    8.2610 o         1 4R8     -0.845300
     26 H221        2.9350   -1.6020    5.7770 hc        1 4R8      0.031033
     27 H222        1.9230   -3.1020    5.7300 hc        1 4R8      0.031033
     28 H223        1.2720   -1.5480    5.0580 hc        1 4R8      0.031033
     29 H211        2.0220   -3.1350    3.2410 hc        1 4R8      0.063700
     30 H212        3.6740   -3.1890    3.9700 hc        1 4R8      0.063700
     31 H20         2.5930   -0.4070    3.2950 ha        1 4R8      0.107000
     32 H19         4.2510   -0.3870    1.5040 ha        1 4R8      0.107000
     33 H181        5.2840   -3.0000    2.5450 hc        1 4R8      0.079200
     34 H182        4.1190   -3.2810    1.2020 hc        1 4R8      0.079200
     35 H17         5.9080   -1.1910    0.2410 ha        1 4R8      0.109000
     36 H16         7.5560   -2.8400   -0.4930 ha        1 4R8      0.109000
     37 H151        5.8310   -5.0070    0.5350 hc        1 4R8      0.076200
     38 H152        6.9240   -4.5020    1.8720 hc        1 4R8      0.076200
     39 H14         8.4930   -4.8340   -0.6510 ha        1 4R8      0.108000
     40 H13         9.0290   -7.1130   -0.0140 ha        1 4R8      0.109000
     41 H121        8.2180   -7.3800    2.4680 hc        1 4R8      0.070200
     42 H122        6.5930   -6.8390    1.9010 hc        1 4R8      0.070200
     43 H11         7.3030   -8.9420    0.0660 ha        1 4R8      0.110000
     44 H10         6.5680  -10.7080    1.5700 ha        1 4R8      0.106000
     45 H9C1        7.4840   -8.9400    3.8620 hc        1 4R8      0.047700
     46 H9C2        6.7360  -10.5830    3.9280 hc        1 4R8      0.047700
     47 H8          5.2080   -7.9740    3.2540 hc        1 4R8      0.038700
     48 H7          4.6870   -9.5200    5.8220 ha        1 4R8      0.111000
     49 H6          5.4980   -7.5410    7.0260 ha        1 4R8      0.191000
     50 H5C1        7.2470   -6.2450    6.0400 hc        1 4R8      0.090200
     51 H5C2        6.8630   -6.8120    4.3410 hc        1 4R8      0.090200
     52 H3C1        4.2070   -3.8910    6.0450 hc        1 4R8      0.061200
     53 H3C2        4.2550   -5.5390    6.8260 hc        1 4R8      0.061200
     54 H2C1        6.7120   -3.6830    6.9080 hc        1 4R8      0.034200
     55 H2C2        5.3490   -3.5470    8.0960 hc        1 4R8      0.034200
     56 HOT         4.4900   -9.6190    3.4620 hc        1 4R8      0.038700
@<TRIPOS>BOND
     1    1    2 1   
     2    1   26 1   
     3    1   27 1   
     4    1   28 1   
     5    2    3 1   
     6    2   29 1   
     7    2   30 1   
     8    3    4 2   
     9    3   31 1   
    10    4    5 1   
    11    4   32 1   
    12    5    6 1   
    13    5   33 1   
    14    5   34 1   
    15    6    7 2   
    16    6   35 1   
    17    7    8 1   
    18    7   36 1   
    19    8    9 1   
    20    8   37 1   
    21    8   38 1   
    22    9   10 2   
    23    9   39 1   
    24   10   11 1   
    25   10   40 1   
    26   11   12 1   
    27   11   41 1   
    28   11   42 1   
    29   12   13 2   
    30   12   43 1   
    31   13   14 1   
    32   13   44 1   
    33   14   15 1   
    34   14   45 1   
    35   14   46 1   
    36   15   16 1   
    37   15   47 1   
    38   15   56 1   
    39   16   17 2   
    40   16   48 1   
    41   17   18 1   
    42   17   49 1   
    43   18   19 1   
    44   18   50 1   
    45   18   51 1   
    46   19   20 2   
    47   19   21 1   
    48   21   22 1   
    49   21   52 1   
    50   21   53 1   
    51   22   23 1   
    52   22   54 1   
    53   22   55 1   
    54   23   24 1   
    55   23   25 1   
@<TRIPOS>SUBSTRUCTURE
     1 4R8         1 TEMP              0 ****  ****    0 ROOT
