@<TRIPOS>MOLECULE
4RB
   41    43     1     0     0
SMALL
bcc


@<TRIPOS>ATOM
      1 C1G        -2.8080   -1.4620   -0.5460 ca        1 4RB     -0.128000
      2 C1E        -3.9100   -0.6140   -0.5270 ca        1 4RB     -0.118500
      3 C1R        -3.8900    0.5650    0.2280 ca        1 4RB     -0.104600
      4 C1Q        -5.0950    1.4950    0.2400 c         1 4RB      0.906200
      5 O1D        -5.0130    2.5570    0.9190 o         1 4RB     -0.827800
      6 O1B        -6.1100    1.1550   -0.4320 o         1 4RB     -0.827800
      7 C1F        -2.7470    0.8750    0.9710 ca        1 4RB     -0.118500
      8 C1H        -1.6380    0.0330    0.9590 ca        1 4RB     -0.128000
      9 C1S        -1.6570   -1.1430    0.1950 ca        1 4RB     -0.079800
     10 C1U        -0.5360   -2.0570    0.1620 cc        1 4RB     -0.007300
     11 C1K        -0.5640   -3.4830    0.1030 cd        1 4RB     -0.026400
     12 N1N         0.6980   -4.0290    0.0680 nd        1 4RB     -0.265600
     13 C1V         1.5580   -2.9700    0.1010 cc        1 4RB     -0.133300
     14 C1J         2.9870   -2.8950    0.0820 cc        1 4RB     -0.021000
     15 C1I         3.5800   -1.6700    0.1170 cd        1 4RB     -0.286300
     16 N1X         0.8280   -1.7180    0.1600 na        1 4RB      0.197200
     17 N1O         1.3910   -0.5180    0.1830 nc        1 4RB     -0.524800
     18 C1T         2.7460   -0.4650    0.1790 cd        1 4RB      0.591200
     19 N1P         3.4120    0.7640    0.3350 nh        1 4RB     -0.817900
     20 C1W         2.7440    2.0270    0.0730 c3        1 4RB      0.199500
     21 C1L         2.7580    2.4800   -1.3960 c3        1 4RB     -0.103400
     22 C1A         1.9650    1.5740   -2.2980 c3        1 4RB     -0.099100
     23 C1M         3.3910    3.1440    0.9260 c3        1 4RB      0.123400
     24 O1C         4.7260    3.3310    0.4830 oh        1 4RB     -0.610800
     25 H1G        -2.8280   -2.3840   -1.1450 ha        1 4RB      0.116000
     26 H1E        -4.8190   -0.8470   -1.1040 ha        1 4RB      0.154000
     27 H1F        -2.7490    1.8030    1.5650 ha        1 4RB      0.154000
     28 H1H        -0.7540    0.2920    1.5570 ha        1 4RB      0.116000
     29 H1K        -1.4620   -4.1020    0.0940 h4        1 4RB      0.183000
     30 H1J         3.5580   -3.8330    0.0360 ha        1 4RB      0.154000
     31 H1I         4.6720   -1.5640    0.1100 ha        1 4RB      0.141000
     32 HN1P        4.3420    0.7460   -0.0340 hn        1 4RB      0.406800
     33 H1W         1.6680    1.9560    0.4150 h1        1 4RB      0.101700
     34 H1L         2.3230    3.5140   -1.4340 hc        1 4RB      0.047200
     35 H1LA        3.8190    2.5550   -1.7510 hc        1 4RB      0.047200
     36 H1A         1.9330    1.9970   -3.3310 hc        1 4RB      0.041367
     37 H1AA        2.4260    0.5570   -2.3520 hc        1 4RB      0.041367
     38 H1AB        0.9160    1.4630   -1.9280 hc        1 4RB      0.041367
     39 H1M         2.8070    4.0920    0.7770 h1        1 4RB      0.034700
     40 H1MA        3.3770    2.8680    2.0140 h1        1 4RB      0.034700
     41 HO1C        5.1360    3.9450    1.1030 ho        1 4RB      0.397000
@<TRIPOS>BOND
     1    1    2 ar  
     2    1    9 ar  
     3    1   25 1   
     4    2    3 ar  
     5    2   26 1   
     6    3    4 1   
     7    3    7 ar  
     8    4    5 1   
     9    4    6 1   
    10    7    8 ar  
    11    7   27 1   
    12    8    9 ar  
    13    8   28 1   
    14    9   10 1   
    15   10   11 2   
    16   10   16 1   
    17   11   12 1   
    18   11   29 1   
    19   12   13 2   
    20   13   14 1   
    21   13   16 1   
    22   14   15 2   
    23   14   30 1   
    24   15   18 1   
    25   15   31 1   
    26   16   17 1   
    27   17   18 2   
    28   18   19 1   
    29   19   20 1   
    30   19   32 1   
    31   20   21 1   
    32   20   23 1   
    33   20   33 1   
    34   21   22 1   
    35   21   34 1   
    36   21   35 1   
    37   22   36 1   
    38   22   37 1   
    39   22   38 1   
    40   23   24 1   
    41   23   39 1   
    42   23   40 1   
    43   24   41 1   
@<TRIPOS>SUBSTRUCTURE
     1 4RB         1 TEMP              0 ****  ****    0 ROOT
