@<TRIPOS>MOLECULE
4RB
   41    43     1     0     0
SMALL
bcc


@<TRIPOS>ATOM
      1 C1G         0.0260   -0.4330    0.1520 ca        1 4RB     -0.128000
      2 C1E         1.4160   -0.4080    0.1190 ca        1 4RB     -0.118500
      3 C1R         2.1450    0.1680    1.1650 ca        1 4RB     -0.104600
      4 C1Q         3.6670    0.1850    1.1300 c         1 4RB      0.906200
      5 O1D         4.2740    0.6960    2.1130 o         1 4RB     -0.827800
      6 O1B         4.2390   -0.3140    0.1200 o         1 4RB     -0.827800
      7 C1F         1.4540    0.7270    2.2450 ca        1 4RB     -0.118500
      8 C1H         0.0620    0.7080    2.2880 ca        1 4RB     -0.128000
      9 C1S        -0.6650    0.1230    1.2430 ca        1 4RB     -0.079800
     10 C1U        -2.1110    0.0920    1.2350 cc        1 4RB     -0.007300
     11 C1K        -2.9900    0.2360    0.1180 cd        1 4RB     -0.026400
     12 N1N        -4.3130    0.1360    0.4780 nd        1 4RB     -0.265600
     13 C1V        -4.3130   -0.0760    1.8260 cc        1 4RB     -0.133300
     14 C1J        -5.3740   -0.2660    2.7670 cc        1 4RB     -0.021000
     15 C1I        -5.0610   -0.4680    4.0770 cd        1 4RB     -0.286300
     16 N1X        -2.9560   -0.1100    2.3400 na        1 4RB      0.197200
     17 N1O        -2.6360   -0.3180    3.6100 nc        1 4RB     -0.524800
     18 C1T        -3.6540   -0.4820    4.4900 cd        1 4RB      0.591200
     19 N1P        -3.3960   -0.5750    5.8700 nu        1 4RB     -0.817900
     20 C1W        -2.0810   -0.9330    6.3720 c3        1 4RB      0.199500
     21 C1L        -1.8070   -2.4430    6.4630 c3        1 4RB     -0.103400
     22 C1A        -1.7640   -3.1150    5.1180 c3        1 4RB     -0.099100
     23 C1M        -1.8770   -0.3220    7.7790 c3        1 4RB      0.123400
     24 O1C        -2.7960   -0.9350    8.6710 oh        1 4RB     -0.610800
     25 H1G        -0.5400   -0.8910   -0.6710 ha        1 4RB      0.116000
     26 H1E         1.9740   -0.8420   -0.7270 ha        1 4RB      0.154000
     27 H1F         2.0420    1.1820    3.0590 ha        1 4RB      0.154000
     28 H1H        -0.4600    1.1610    3.1420 ha        1 4RB      0.116000
     29 H1K        -2.6830    0.4140   -0.9130 h4        1 4RB      0.183000
     30 H1J        -6.4090   -0.2440    2.3970 ha        1 4RB      0.154000
     31 H1I        -5.8420   -0.6130    4.8340 ha        1 4RB      0.141000
     32 HN1P       -4.1290   -1.0400    6.3670 hn        1 4RB      0.406800
     33 H1W        -1.2900   -0.4650    5.7110 h1        1 4RB      0.101700
     34 H1L        -2.5830   -2.9220    7.1160 hc        1 4RB      0.047200
     35 H1LA       -0.8170   -2.5760    6.9760 hc        1 4RB      0.047200
     36 H1A        -1.4720   -4.1870    5.2360 hc        1 4RB      0.041367
     37 H1AA       -1.0190   -2.6170    4.4490 hc        1 4RB      0.041367
     38 H1AB       -2.7620   -3.0780    4.6180 hc        1 4RB      0.041367
     39 H1M        -0.8270   -0.5350    8.1140 h1        1 4RB      0.034700
     40 H1MA       -2.0410    0.7880    7.7550 h1        1 4RB      0.034700
     41 HO1C       -2.7270   -0.4560    9.5050 ho        1 4RB      0.397000
@<TRIPOS>BOND
     1    1    2 ar  
     2    1    9 ar  
     3    1   25 1   
     4    2    3 ar  
     5    2   26 1   
     6    3    4 1   
     7    3    7 ar  
     8    4    5 1   
     9    4    6 1   
    10    7    8 ar  
    11    7   27 1   
    12    8    9 ar  
    13    8   28 1   
    14    9   10 1   
    15   10   11 2   
    16   10   16 1   
    17   11   12 1   
    18   11   29 1   
    19   12   13 2   
    20   13   14 1   
    21   13   16 1   
    22   14   15 2   
    23   14   30 1   
    24   15   18 1   
    25   15   31 1   
    26   16   17 1   
    27   17   18 2   
    28   18   19 1   
    29   19   20 1   
    30   19   32 1   
    31   20   21 1   
    32   20   23 1   
    33   20   33 1   
    34   21   22 1   
    35   21   34 1   
    36   21   35 1   
    37   22   36 1   
    38   22   37 1   
    39   22   38 1   
    40   23   24 1   
    41   23   39 1   
    42   23   40 1   
    43   24   41 1   
@<TRIPOS>SUBSTRUCTURE
     1 4RB         1 TEMP              0 ****  ****    0 ROOT
