@<TRIPOS>MOLECULE
4RB
   41    35     1     0     0
SMALL
bcc


@<TRIPOS>ATOM
      1 C1G         2.5640    3.5600   -1.0640 c1        1 4RB     -0.132000
      2 C1E         3.9350    3.7830   -0.9920 c1        1 4RB     -0.115000
      3 C1R         4.7980    2.7270   -0.7200 c1        1 4RB     -0.081000
      4 C1Q         6.3020    2.9500   -0.7450 c1        1 4RB      0.355000
      5 O1D         6.8920    3.3840    0.2830 o         1 4RB     -0.561000
      6 O1B         6.9640    2.6720   -1.7820 o         1 4RB     -0.561000
      7 C1F         4.2900    1.4480   -0.5200 c2        1 4RB     -0.121000
      8 C1H         2.9190    1.2250   -0.5920 c1        1 4RB     -0.123000
      9 C1S         2.0550    2.2810   -0.8640 c1        1 4RB     -0.070000
     10 C1U         0.6870    2.0310   -1.0670 c1        1 4RB     -0.075500
     11 C1K         1.0600    2.2120   -2.3810 c1        1 4RB     -0.075500
     12 N1N         0.6590    1.1340   -3.0780 n2        1 4RB     -0.077500
     13 C1V         0.0330    0.2700   -2.2060 c1        1 4RB     -0.102000
     14 C1J        -0.6070   -0.9540   -2.4040 c1        1 4RB     -0.117500
     15 C1I        -1.2110   -1.5870   -1.3520 c1        1 4RB     -0.117500
     16 N1X         0.0550    0.8310   -0.9710 n2        1 4RB     -0.077500
     17 N1O        -0.5610    0.1840    0.1020 n1        1 4RB     -0.072000
     18 C1T        -1.1860   -1.0120   -0.0900 c1        1 4RB      0.043000
     19 N1P        -2.4550   -1.6380    0.1830 n3        1 4RB     -0.258000
     20 C1W        -2.8510   -1.8860    1.5250 c3        1 4RB     -0.057000
     21 C1L        -2.9720   -3.3860    1.7500 c3        1 4RB     -0.180000
     22 C1A        -2.6850   -3.7070    3.2240 c3        1 4RB     -0.216000
     23 C1M        -4.1900   -1.2260    1.7870 c3        1 4RB     -0.016000
     24 O1C        -3.9990    0.1610    1.9990 oh        1 4RB     -0.329000
     25 H1G         1.9550    4.3060   -1.2570 ha        1 4RB      0.112000
     26 H1E         4.2930    4.6860   -1.1340 ha        1 4RB      0.156000
     27 H1F         4.9000    0.7020   -0.3270 ha        1 4RB      0.153000
     28 H1H         2.5610    0.3230   -0.4500 ha        1 4RB      0.119000
     29 H1K         1.4800    3.0160   -2.7550 DU        1 4RB      0.184000
     30 H1J        -0.5710   -1.3900   -3.2820 ha        1 4RB      0.149000
     31 H1I        -1.6610   -2.4470   -1.4900 ha        1 4RB      0.149000
     32 HN1P       -3.0250   -1.8410   -0.5080 hn        1 4RB      0.180000
     33 H1W        -2.1780   -1.5160    2.1380 h1        1 4RB      0.148000
     34 H1L        -3.8820   -3.6800    1.5220 hc        1 4RB      0.079500
     35 H1LA       -2.3230   -3.8560    1.1800 hc        1 4RB      0.079500
     36 H1A        -3.4320   -3.3930    3.7790 hc        1 4RB      0.085333
     37 H1AA       -2.5820   -4.6800    3.3330 hc        1 4RB      0.085333
     38 H1AB       -1.8580   -3.2570    3.5020 hc        1 4RB      0.085333
     39 H1M        -4.7800   -1.3610    1.0110 h1        1 4RB      0.082500
     40 H1MA       -4.6020   -1.6260    2.5840 h1        1 4RB      0.082500
     41 HO1C       -4.7910    0.5540    2.1290 ho        1 4RB      0.210000
@<TRIPOS>BOND
     1    1    9 1   
     2    1   25 1   
     3    2    3 1   
     4    2   26 1   
     5    3    7 1   
     6    4    5 1   
     7    4    6 1   
     8    7    8 1   
     9    7   27 1   
    10    8   28 1   
    11   10   11 1   
    12   10   16 1   
    13   11   12 1   
    14   12   13 1   
    15   13   16 1   
    16   14   15 1   
    17   14   30 1   
    18   15   31 1   
    19   17   18 1   
    20   18   19 1   
    21   19   20 1   
    22   19   32 1   
    23   20   21 1   
    24   20   23 1   
    25   20   33 1   
    26   21   22 1   
    27   21   34 1   
    28   21   35 1   
    29   22   36 1   
    30   22   37 1   
    31   22   38 1   
    32   23   24 1   
    33   23   39 1   
    34   23   40 1   
    35   24   41 1   
@<TRIPOS>SUBSTRUCTURE
     1 4RB         1 TEMP              0 ****  ****    0 ROOT
