@<TRIPOS>MOLECULE
4RB
   41    43     1     0     0
SMALL
bcc


@<TRIPOS>ATOM
      1 C1G         0.0200   -0.4340    0.1490 ca        1 4RB     -0.128000
      2 C1E         1.4100   -0.4110    0.1140 ca        1 4RB     -0.118500
      3 C1R         2.1410    0.1640    1.1590 ca        1 4RB     -0.104600
      4 C1Q         3.6630    0.1790    1.1210 c         1 4RB      0.906200
      5 O1D         4.2720    0.6890    2.1040 o         1 4RB     -0.827800
      6 O1B         4.2330   -0.3200    0.1100 o         1 4RB     -0.827800
      7 C1F         1.4530    0.7240    2.2400 ca        1 4RB     -0.118500
      8 C1H         0.0610    0.7060    2.2860 ca        1 4RB     -0.128000
      9 C1S        -0.6690    0.1230    1.2410 ca        1 4RB     -0.079800
     10 C1U        -2.1150    0.0930    1.2360 cc        1 4RB     -0.007300
     11 C1K        -2.9950    0.2390    0.1210 cd        1 4RB     -0.026400
     12 N1N        -4.3180    0.1400    0.4830 nd        1 4RB     -0.265600
     13 C1V        -4.3150   -0.0730    1.8310 cc        1 4RB     -0.133300
     14 C1J        -5.3750   -0.2610    2.7740 cc        1 4RB     -0.021000
     15 C1I        -5.0600   -0.4650    4.0830 cd        1 4RB     -0.286300
     16 N1X        -2.9570   -0.1080    2.3420 na        1 4RB      0.197200
     17 N1O        -2.6360   -0.3170    3.6120 nc        1 4RB     -0.524800
     18 C1T        -3.6520   -0.4800    4.4940 cd        1 4RB      0.591200
     19 N1P        -3.3920   -0.5730    5.8730 nh        1 4RB     -0.817900
     20 C1W        -2.0760   -0.9330    6.3730 c3        1 4RB      0.199500
     21 C1L        -1.8030   -2.4430    6.4630 c3        1 4RB     -0.103400
     22 C1A        -1.7640   -3.1150    5.1180 c3        1 4RB     -0.099100
     23 C1M        -1.8700   -0.3220    7.7800 c3        1 4RB      0.123400
     24 O1C        -2.7870   -0.9340    8.6730 oh        1 4RB     -0.610800
     25 H1G        -0.5480   -0.8910   -0.6730 ha        1 4RB      0.116000
     26 H1E         1.9660   -0.8440   -0.7340 ha        1 4RB      0.154000
     27 H1F         2.0430    1.1780    3.0530 ha        1 4RB      0.154000
     28 H1H        -0.4590    1.1600    3.1410 ha        1 4RB      0.116000
     29 H1K        -2.6900    0.4160   -0.9110 h4        1 4RB      0.183000
     30 H1J        -6.4110   -0.2380    2.4060 ha        1 4RB      0.154000
     31 H1I        -5.8400   -0.6090    4.8420 ha        1 4RB      0.141000
     32 HN1P       -4.1250   -1.0380    6.3710 hn        1 4RB      0.406800
     33 H1W        -1.2860   -0.4660    5.7110 h1        1 4RB      0.101700
     34 H1L        -2.5790   -2.9220    7.1170 hc        1 4RB      0.047200
     35 H1LA       -0.8130   -2.5760    6.9740 hc        1 4RB      0.047200
     36 H1A        -1.0200   -2.6180    4.4470 hc        1 4RB      0.041367
     37 H1AA       -2.7630   -3.0770    4.6200 hc        1 4RB      0.041367
     38 H1AB       -1.4730   -4.1870    5.2350 hc        1 4RB      0.041367
     39 H1M        -2.0320    0.7880    7.7550 h1        1 4RB      0.034700
     40 H1MA       -0.8190   -0.5360    8.1130 h1        1 4RB      0.034700
     41 HO1C       -2.7160   -0.4560    9.5070 ho        1 4RB      0.397000
@<TRIPOS>BOND
     1    1    2 ar  
     2    1    9 ar  
     3    1   25 1   
     4    2    3 ar  
     5    2   26 1   
     6    3    4 1   
     7    3    7 ar  
     8    4    5 1   
     9    4    6 1   
    10    7    8 ar  
    11    7   27 1   
    12    8    9 ar  
    13    8   28 1   
    14    9   10 1   
    15   10   11 2   
    16   10   16 1   
    17   11   12 1   
    18   11   29 1   
    19   12   13 2   
    20   13   14 1   
    21   13   16 1   
    22   14   15 2   
    23   14   30 1   
    24   15   18 1   
    25   15   31 1   
    26   16   17 1   
    27   17   18 2   
    28   18   19 1   
    29   19   20 1   
    30   19   32 1   
    31   20   21 1   
    32   20   23 1   
    33   20   33 1   
    34   21   22 1   
    35   21   34 1   
    36   21   35 1   
    37   22   36 1   
    38   22   37 1   
    39   22   38 1   
    40   23   24 1   
    41   23   39 1   
    42   23   40 1   
    43   24   41 1   
@<TRIPOS>SUBSTRUCTURE
     1 4RB         1 TEMP              0 ****  ****    0 ROOT
