@<TRIPOS>MOLECULE
4RB
   42    44     1     0     0
SMALL
bcc


@<TRIPOS>ATOM
      1 C1G        -0.4380   -0.3480    0.7590 ca        1 4RB     -0.098500
      2 C1E         0.7110   -0.6950    1.4630 ca        1 4RB     -0.136500
      3 C1R         1.1920    0.1480    2.4730 ca        1 4RB     -0.072600
      4 C1Q         2.0170   -0.4280    3.6140 c         1 4RB      0.921200
      5 O1D         1.3100   -0.9410    4.5450 o         1 4RB     -0.827300
      6 O1B         3.2640   -0.3800    3.6100 o         1 4RB     -0.827300
      7 C1F         0.7050    1.4590    2.5550 ca        1 4RB     -0.136500
      8 C1H        -0.4460    1.8170    1.8600 ca        1 4RB     -0.098500
      9 C1S        -1.0940    0.8570    1.0640 ca        1 4RB     -0.126800
     10 C1U        -2.5430    0.8920    0.9820 cc        1 4RB      0.024700
     11 C1K        -3.5890    1.3740    0.1770 cd        1 4RB      0.021600
     12 N1N        -4.8490    1.0830    0.7030 nd        1 4RB     -0.233600
     13 C1V        -4.6430    0.4090    1.8550 cc        1 4RB     -0.073300
     14 C1J        -5.4970   -0.1550    2.8650 cc        1 4RB     -0.015000
     15 C1I        -4.9340   -0.7840    3.9420 cd        1 4RB     -0.251300
     16 N1X        -3.2110    0.2530    2.0790 na        1 4RB      0.138200
     17 N1O        -2.6620   -0.3470    3.0990 nc        1 4RB     -0.368800
     18 C1T        -3.4840   -0.8670    4.0270 cd        1 4RB      0.396200
     19 N1P        -2.8690   -1.5580    5.1720 n4        1 4RB     -0.737700
     20 C1W        -1.3610   -1.3990    5.3360 c3        1 4RB      0.104500
     21 C1L        -0.7760   -2.5580    6.1400 c3        1 4RB     -0.121400
     22 C1A        -1.0410   -3.9150    5.5450 c3        1 4RB     -0.108100
     23 C1M        -1.0460   -0.0590    6.0230 c3        1 4RB      0.097400
     24 O1C        -1.6830    0.0030    7.2840 oh        1 4RB     -0.633800
     25 H1G        -0.8760   -1.0430    0.0290 ha        1 4RB      0.127500
     26 H1E         1.2070   -1.6600    1.2820 ha        1 4RB      0.146500
     27 H1F         1.1960    2.1790    3.2270 ha        1 4RB      0.146500
     28 H1H        -0.8910    2.8140    1.9910 ha        1 4RB      0.127500
     29 H1K        -3.4930    1.9220   -0.7640 h4        1 4RB      0.205000
     30 H1J        -6.5870   -0.0580    2.7410 ha        1 4RB      0.183000
     31 H1I        -5.5540   -1.2190    4.7370 ha        1 4RB      0.158000
     32 HN1P       -3.0850   -2.5560    5.0750 hn        1 4RB      0.453300
     33 H1W        -0.8360   -1.3920    4.3220 hx        1 4RB      0.190700
     34 H1L        -1.1280   -2.5190    7.2030 hc        1 4RB      0.097200
     35 H1LA        0.3420   -2.3640    6.1250 hc        1 4RB      0.097200
     36 H1A        -0.8600   -3.9080    4.4420 hc        1 4RB      0.043367
     37 H1AA       -2.0840   -4.2650    5.7400 hc        1 4RB      0.043367
     38 H1AB       -0.3460   -4.6630    6.0010 hc        1 4RB      0.043367
     39 H1M         0.0790    0.0280    6.0740 h1        1 4RB      0.113200
     40 H1MA       -1.4540    0.8030    5.4310 h1        1 4RB      0.113200
     41 HO1C       -1.0390   -0.2620    7.9520 ho        1 4RB      0.421000
     42 H1P2       -3.3100   -1.1910    6.0270 hn        1 4RB      0.453300
@<TRIPOS>BOND
     1    1    2 ar  
     2    1    9 ar  
     3    1   25 1   
     4    2    3 ar  
     5    2   26 1   
     6    3    4 1   
     7    3    7 ar  
     8    4    5 1   
     9    4    6 1   
    10    7    8 ar  
    11    7   27 1   
    12    8    9 ar  
    13    8   28 1   
    14    9   10 1   
    15   10   11 2   
    16   10   16 1   
    17   11   12 1   
    18   11   29 1   
    19   12   13 2   
    20   13   14 1   
    21   13   16 1   
    22   14   15 2   
    23   14   30 1   
    24   15   18 1   
    25   15   31 1   
    26   16   17 1   
    27   17   18 2   
    28   18   19 1   
    29   19   20 1   
    30   19   32 1   
    31   19   42 1   
    32   20   21 1   
    33   20   23 1   
    34   20   33 1   
    35   21   22 1   
    36   21   34 1   
    37   21   35 1   
    38   22   36 1   
    39   22   37 1   
    40   22   38 1   
    41   23   24 1   
    42   23   39 1   
    43   23   40 1   
    44   24   41 1   
@<TRIPOS>SUBSTRUCTURE
     1 4RB         1 TEMP              0 ****  ****    0 ROOT
