@<TRIPOS>MOLECULE
4RG
   28    29     1     0     0
SMALL
bcc


@<TRIPOS>ATOM
      1 CAA         0.0290    0.9350   -0.2470 c         1 4RG      0.908200
      2 CAB         1.4140    0.3250   -0.0820 ca        1 4RG     -0.127600
      3 CAC         2.0300    0.3110    1.1710 ca        1 4RG     -0.096000
      4 CAD         3.3100   -0.2340    1.3270 ca        1 4RG     -0.138300
      5 CAE         3.9720   -0.7800    0.2240 ca        1 4RG     -0.126000
      6 CAF         3.3540   -0.7780   -1.0260 ca        1 4RG     -0.169000
      7 CAG         2.0830   -0.2260   -1.1800 ca        1 4RG     -0.097000
      8 OAH        -0.4960    0.9070   -1.3960 o         1 4RG     -0.830800
      9 OAI        -0.5190    1.4400    0.7740 o         1 4RG     -0.830800
     10 CAJ         3.9540   -0.1720    2.6690 c3        1 4RG      0.185700
     11 OAK         4.7880   -1.3370    2.8220 os        1 4RG     -0.321900
     12 CAL         5.4550   -1.4420    4.0190 ca        1 4RG      0.146100
     13 CAM         6.2510   -2.6000    4.1520 ca        1 4RG     -0.188500
     14 CAN         6.9710   -2.8000    5.3210 ca        1 4RG     -0.100000
     15 CAO         6.9130   -1.8690    6.3610 ca        1 4RG     -0.183000
     16 CAP         6.1250   -0.7290    6.2250 ca        1 4RG     -0.100000
     17 CAQ         5.3930   -0.5040    5.0600 ca        1 4RG     -0.188500
     18 HAC         1.4810    0.7430    2.0250 ha        1 4RG      0.151000
     19 HAE         4.9720   -1.2170    0.3520 ha        1 4RG      0.117000
     20 HAF         3.8740   -1.2130   -1.8900 ha        1 4RG      0.106000
     21 HAG         1.5790   -0.2100   -2.1590 ha        1 4RG      0.151000
     22 HAJ         4.6000    0.7440    2.7520 h1        1 4RG      0.039200
     23 HAJA        3.1830   -0.1660    3.4860 h1        1 4RG      0.039200
     24 HAM         6.2840   -3.3240    3.3260 ha        1 4RG      0.144000
     25 HAN         7.5920   -3.7020    5.4290 ha        1 4RG      0.122500
     26 HAO         7.4870   -2.0380    7.2820 ha        1 4RG      0.121000
     27 HAP         6.0750    0.0050    7.0430 ha        1 4RG      0.122500
     28 HAQ         4.7740    0.3990    4.9710 ha        1 4RG      0.144000
@<TRIPOS>BOND
     1    1    2 1   
     2    1    8 1   
     3    1    9 1   
     4    2    3 ar  
     5    2    7 ar  
     6    3    4 ar  
     7    3   18 1   
     8    4    5 ar  
     9    4   10 1   
    10    5    6 ar  
    11    5   19 1   
    12    6    7 ar  
    13    6   20 1   
    14    7   21 1   
    15   10   11 1   
    16   10   22 1   
    17   10   23 1   
    18   11   12 1   
    19   12   13 ar  
    20   12   17 ar  
    21   13   14 ar  
    22   13   24 1   
    23   14   15 ar  
    24   14   25 1   
    25   15   16 ar  
    26   15   26 1   
    27   16   17 ar  
    28   16   27 1   
    29   17   28 1   
@<TRIPOS>SUBSTRUCTURE
     1 4RG         1 TEMP              0 ****  ****    0 ROOT
