@<TRIPOS>MOLECULE
4RG
   28    29     1     0     0
SMALL
bcc


@<TRIPOS>ATOM
      1 CAA         0.0670    0.8860   -0.3320 c         1 4RG      0.908200
      2 CAB         1.4590    0.3020   -0.1380 ca        1 4RG     -0.127600
      3 CAC         2.0420    0.2850    1.1320 ca        1 4RG     -0.096000
      4 CAD         3.3290   -0.2350    1.3150 ca        1 4RG     -0.138300
      5 CAE         4.0310   -0.7540    0.2230 ca        1 4RG     -0.126000
      6 CAF         3.4460   -0.7490   -1.0430 ca        1 4RG     -0.169000
      7 CAG         2.1680   -0.2210   -1.2240 ca        1 4RG     -0.097000
      8 OAH        -0.4270    0.8630   -1.4940 o         1 4RG     -0.830800
      9 OAI        -0.5180    1.3670    0.6810 o         1 4RG     -0.830800
     10 CAJ         3.9360   -0.1780    2.6740 c3        1 4RG      0.185700
     11 OAK         4.7920   -1.3260    2.8340 os        1 4RG     -0.321900
     12 CAL         5.4300   -1.4310    4.0470 ca        1 4RG      0.146100
     13 CAM         6.2490   -2.5720    4.1850 ca        1 4RG     -0.188500
     14 CAN         6.9430   -2.7730    5.3700 ca        1 4RG     -0.100000
     15 CAO         6.8360   -1.8570    6.4200 ca        1 4RG     -0.183000
     16 CAP         6.0260   -0.7340    6.2790 ca        1 4RG     -0.100000
     17 CAQ         5.3190   -0.5100    5.0970 ca        1 4RG     -0.188500
     18 HAC         1.4630    0.6950    1.9760 ha        1 4RG      0.151000
     19 HAE         5.0360   -1.1730    0.3720 ha        1 4RG      0.117000
     20 HAF         3.9980   -1.1630   -1.8980 ha        1 4RG      0.106000
     21 HAG         1.6900   -0.2030   -2.2160 ha        1 4RG      0.151000
     22 HAJ         4.5590    0.7510    2.7860 h1        1 4RG      0.039200
     23 HAJA        3.1440   -0.2000    3.4710 h1        1 4RG      0.039200
     24 HAM         6.3200   -3.2840    3.3510 ha        1 4RG      0.144000
     25 HAN         7.5820   -3.6610    5.4820 ha        1 4RG      0.122500
     26 HAO         7.3890   -2.0250    7.3540 ha        1 4RG      0.121000
     27 HAP         5.9370   -0.0120    7.1040 ha        1 4RG      0.122500
     28 HAQ         4.6820    0.3800    5.0040 ha        1 4RG      0.144000
@<TRIPOS>BOND
     1    1    2 1   
     2    1    8 1   
     3    1    9 1   
     4    2    3 ar  
     5    2    7 ar  
     6    3    4 ar  
     7    3   18 1   
     8    4    5 ar  
     9    4   10 1   
    10    5    6 ar  
    11    5   19 1   
    12    6    7 ar  
    13    6   20 1   
    14    7   21 1   
    15   10   11 1   
    16   10   22 1   
    17   10   23 1   
    18   11   12 1   
    19   12   13 ar  
    20   12   17 ar  
    21   13   14 ar  
    22   13   24 1   
    23   14   15 ar  
    24   14   25 1   
    25   15   16 ar  
    26   15   26 1   
    27   16   17 ar  
    28   16   27 1   
    29   17   28 1   
@<TRIPOS>SUBSTRUCTURE
     1 4RG         1 TEMP              0 ****  ****    0 ROOT
