@<TRIPOS>MOLECULE
4RG
   28    24     1     0     0
SMALL
bcc


@<TRIPOS>ATOM
      1 CAA        -1.7390    1.9790   -3.7470 c1        1 4RG      0.357000
      2 CAB        -1.8570    0.7600   -2.8580 c1        1 4RG     -0.107000
      3 CAC        -1.1500    0.6990   -1.6680 c2        1 4RG     -0.096000
      4 CAD        -1.2810   -0.4040   -0.8390 c1        1 4RG     -0.131000
      5 CAE        -2.1200   -1.4470   -1.2010 c1        1 4RG     -0.143500
      6 CAF        -2.8280   -1.3860   -2.3910 c1        1 4RG     -0.143500
      7 CAG        -2.6960   -0.2820   -3.2200 c1        1 4RG     -0.097000
      8 OAH        -2.3430    3.0410   -3.4420 o         1 4RG     -0.565500
      9 OAI        -1.0490    1.9270   -4.7980 o         1 4RG     -0.565500
     10 CAJ        -0.5420   -0.4510    0.4800 c3        1 4RG      0.028000
     11 OAK         0.8030   -0.0810    0.2790 os        1 4RG     -0.205000
     12 CAL         1.5730   -0.0710    1.4560 c2        1 4RG      0.101000
     13 CAM         2.5390   -1.0440    1.6570 c2        1 4RG     -0.167000
     14 CAN         3.3600   -0.9850    2.7730 c1        1 4RG     -0.104000
     15 CAO         3.2140    0.0460    3.6870 c1        1 4RG     -0.143500
     16 CAP         2.2480    1.0190    3.4850 c1        1 4RG     -0.143500
     17 CAQ         1.4270    0.9600    2.3700 c1        1 4RG     -0.210000
     18 HAC        -0.5590    1.4330   -1.4130 ha        1 4RG      0.151000
     19 HAE        -2.2120   -2.2240   -0.6170 ha        1 4RG      0.116750
     20 HAF        -3.4180   -2.1200   -2.6450 ha        1 4RG      0.116750
     21 HAG        -3.2100   -0.2300   -4.0480 ha        1 4RG      0.151000
     22 HAJ        -0.9610    0.1700    1.1110 h1        1 4RG      0.078500
     23 HAJA       -0.5800   -1.3600    0.8430 h1        1 4RG      0.078500
     24 HAM         2.6380   -1.7740    1.0170 ha        1 4RG      0.146000
     25 HAN         4.0400   -1.6700    2.9150 ha        1 4RG      0.122000
     26 HAO         3.7920    0.0880    4.4720 ha        1 4RG      0.116750
     27 HAP         2.1640    1.7610    4.1130 ha        1 4RG      0.116750
     28 HAQ         0.7470    1.6450    2.2280 ha        1 4RG      0.142000
@<TRIPOS>BOND
     1    1    8 1   
     2    1    9 1   
     3    2    3 1   
     4    2    7 1   
     5    3    4 1   
     6    3   18 1   
     7    4   10 1   
     8    5    6 1   
     9    5   19 1   
    10    6   20 1   
    11    7   21 1   
    12   10   11 1   
    13   10   22 1   
    14   10   23 1   
    15   11   12 1   
    16   12   13 1   
    17   12   17 1   
    18   13   14 1   
    19   13   24 1   
    20   14   25 1   
    21   15   16 1   
    22   15   26 1   
    23   16   27 1   
    24   17   28 1   
@<TRIPOS>SUBSTRUCTURE
     1 4RG         1 TEMP              0 ****  ****    0 ROOT
