@<TRIPOS>MOLECULE
4RG
   28    29     1     0     0
SMALL
bcc


@<TRIPOS>ATOM
      1 CAA        -4.3400   -0.7270    0.7760 c         1 4RG      0.908200
      2 CAB        -3.1590    0.0960    0.2810 ca        1 4RG     -0.127600
      3 CAC        -1.8560   -0.2690    0.6280 ca        1 4RG     -0.096000
      4 CAD        -0.7660    0.4920    0.1900 ca        1 4RG     -0.138300
      5 CAE        -0.9800    1.6180   -0.6100 ca        1 4RG     -0.126000
      6 CAF        -2.2800    1.9770   -0.9660 ca        1 4RG     -0.169000
      7 CAG        -3.3640    1.2230   -0.5210 ca        1 4RG     -0.097000
      8 OAH        -5.4990   -0.3700    0.4210 o         1 4RG     -0.830800
      9 OAI        -4.0970   -1.7220    1.5170 o         1 4RG     -0.830800
     10 CAJ         0.6020    0.1020    0.6340 c3        1 4RG      0.185700
     11 OAK         1.5300    0.4410   -0.4150 os        1 4RG     -0.321900
     12 CAL         2.8480    0.1380   -0.1700 ca        1 4RG      0.146100
     13 CAM         3.7330    0.4650   -1.2190 ca        1 4RG     -0.188500
     14 CAN         5.0890    0.2040   -1.0710 ca        1 4RG     -0.100000
     15 CAO         5.5780   -0.3760    0.1030 ca        1 4RG     -0.183000
     16 CAP         4.6980   -0.6970    1.1330 ca        1 4RG     -0.100000
     17 CAQ         3.3320   -0.4450    1.0090 ca        1 4RG     -0.188500
     18 HAC        -1.7160   -1.1660    1.2540 ha        1 4RG      0.151000
     19 HAE        -0.1220    2.2070   -0.9610 ha        1 4RG      0.117000
     20 HAF        -2.4450    2.8600   -1.6000 ha        1 4RG      0.106000
     21 HAG        -4.3990    1.4910   -0.7870 ha        1 4RG      0.151000
     22 HAJ         0.8890    0.6680    1.5620 h1        1 4RG      0.039200
     23 HAJA        0.6630   -1.0020    0.8310 h1        1 4RG      0.039200
     24 HAM         3.3330    0.9180   -2.1360 ha        1 4RG      0.144000
     25 HAN         5.7820    0.4560   -1.8870 ha        1 4RG      0.122500
     26 HAO         6.6520   -0.5790    0.2090 ha        1 4RG      0.121000
     27 HAP         5.0800   -1.1560    2.0580 ha        1 4RG      0.122500
     28 HAQ         2.6530   -0.7070    1.8320 ha        1 4RG      0.144000
@<TRIPOS>BOND
     1    1    2 1   
     2    1    8 1   
     3    1    9 1   
     4    2    3 ar  
     5    2    7 ar  
     6    3    4 ar  
     7    3   18 1   
     8    4    5 ar  
     9    4   10 1   
    10    5    6 ar  
    11    5   19 1   
    12    6    7 ar  
    13    6   20 1   
    14    7   21 1   
    15   10   11 1   
    16   10   22 1   
    17   10   23 1   
    18   11   12 1   
    19   12   13 ar  
    20   12   17 ar  
    21   13   14 ar  
    22   13   24 1   
    23   14   15 ar  
    24   14   25 1   
    25   15   16 ar  
    26   15   26 1   
    27   16   17 ar  
    28   16   27 1   
    29   17   28 1   
@<TRIPOS>SUBSTRUCTURE
     1 4RG         1 TEMP              0 ****  ****    0 ROOT
