@<TRIPOS>MOLECULE
4RR
   41    43     1     0     0
SMALL
bcc


@<TRIPOS>ATOM
      1 O3          6.5110   -4.2040    7.4920 o         1 4RR     -0.628500
      2 C2          6.3820   -3.0040    7.2080 c         1 4RR      0.695500
      3 C1          5.1050   -2.3230    6.7290 c3        1 4RR     -0.158400
      4 N4          7.4020   -2.0650    7.2910 n         1 4RR     -0.585900
      5 C5          6.9890   -0.7670    6.8130 c3        1 4RR      0.091000
      6 C6          5.4410   -0.8260    6.6510 c3        1 4RR     -0.028400
      7 C7          4.9450   -0.1350    5.4300 ca        1 4RR     -0.080300
      8 C8          3.7700   -0.5720    4.8010 ca        1 4RR     -0.168000
      9 C9          3.2770    0.0930    3.6790 ca        1 4RR      0.106100
     10 C16         3.9640    1.2300    3.1740 ca        1 4RR      0.106100
     11 C19         5.1140    1.6790    3.8230 ca        1 4RR     -0.179000
     12 C20         5.5960    0.9990    4.9420 ca        1 4RR     -0.124000
     13 O17         3.4130    1.8090    2.0500 os        1 4RR     -0.302900
     14 C18         4.0170    3.0220    1.6150 c3        1 4RR      0.109700
     15 O10         2.1040   -0.2380    3.0340 os        1 4RR     -0.311900
     16 C11         1.7360   -1.6300    3.0660 c3        1 4RR      0.138100
     17 C12         0.9630   -1.8940    1.7680 c3        1 4RR     -0.094900
     18 C13        -0.4200   -2.3950    2.1520 c3        1 4RR     -0.077400
     19 C14        -0.4300   -2.6230    3.6580 c3        1 4RR     -0.077400
     20 C15         0.7840   -1.9100    4.2330 c3        1 4RR     -0.094900
     21 H181        3.9840    3.7950    2.4200 h1        1 4RR      0.044700
     22 H182        3.3820    3.3290    0.7450 h1        1 4RR      0.044700
     23 H183        5.0710    2.8410    1.2880 h1        1 4RR      0.044700
     24 H19         5.6520    2.5660    3.4580 ha        1 4RR      0.140000
     25 H20         6.4990    1.3790    5.4430 ha        1 4RR      0.132000
     26 H8          3.2150   -1.4350    5.2000 ha        1 4RR      0.144000
     27 H11         2.6560   -2.2680    3.1260 h1        1 4RR      0.052700
     28 H151        0.4850   -0.9440    4.7140 hc        1 4RR      0.056950
     29 H152        1.2830   -2.5390    5.0110 hc        1 4RR      0.056950
     30 H141       -1.3730   -2.2330    4.1140 hc        1 4RR      0.044200
     31 H142       -0.3780   -3.7180    3.8840 hc        1 4RR      0.044200
     32 H131       -0.6660   -3.3410    1.6070 hc        1 4RR      0.044200
     33 H132       -1.1960   -1.6380    1.8720 hc        1 4RR      0.044200
     34 H121        1.5090   -2.6520    1.1550 hc        1 4RR      0.056950
     35 H122        0.8960   -0.9520    1.1650 hc        1 4RR      0.056950
     36 H6          4.9790   -0.3090    7.5400 hc        1 4RR      0.071700
     37 H51         7.4870   -0.5330    5.8310 h1        1 4RR      0.045700
     38 H52         7.2770    0.0260    7.5550 h1        1 4RR      0.045700
     39 HN4         8.3510   -2.2950    7.4250 hn        1 4RR      0.330500
     40 H11A        4.8370   -2.7500    5.7300 hc        1 4RR      0.082700
     41 H12         4.2720   -2.5260    7.4430 hc        1 4RR      0.082700
@<TRIPOS>BOND
     1    1    2 2   
     2    2    3 1   
     3    2    4 1   
     4    3    6 1   
     5    3   40 1   
     6    3   41 1   
     7    4    5 1   
     8    4   39 1   
     9    5    6 1   
    10    5   37 1   
    11    5   38 1   
    12    6    7 1   
    13    6   36 1   
    14    7    8 ar  
    15    7   12 ar  
    16    8    9 ar  
    17    8   26 1   
    18    9   10 ar  
    19    9   15 1   
    20   10   11 ar  
    21   10   13 1   
    22   11   12 ar  
    23   11   24 1   
    24   12   25 1   
    25   13   14 1   
    26   14   21 1   
    27   14   22 1   
    28   14   23 1   
    29   15   16 1   
    30   16   17 1   
    31   16   20 1   
    32   16   27 1   
    33   17   18 1   
    34   17   34 1   
    35   17   35 1   
    36   18   19 1   
    37   18   32 1   
    38   18   33 1   
    39   19   20 1   
    40   19   30 1   
    41   19   31 1   
    42   20   28 1   
    43   20   29 1   
@<TRIPOS>SUBSTRUCTURE
     1 4RR         1 TEMP              0 ****  ****    0 ROOT
