@<TRIPOS>MOLECULE
4RR
   41    43     1     0     0
SMALL
bcc


@<TRIPOS>ATOM
      1 O3          0.0670    0.8160    0.3910 o         1 4RR     -0.628500
      2 C2          1.2410    0.4220    0.3330 c         1 4RR      0.695500
      3 C1          2.1240    0.0420    1.5160 c3        1 4RR     -0.158400
      4 N4          1.9520    0.2520   -0.8470 n         1 4RR     -0.585900
      5 C5          3.3240   -0.1300   -0.6080 c3        1 4RR      0.091000
      6 C6          3.4230   -0.5020    0.9020 c3        1 4RR     -0.028400
      7 C7          4.6720   -0.0220    1.5510 ca        1 4RR     -0.080300
      8 C8          4.6810    0.2930    2.9180 ca        1 4RR     -0.168000
      9 C9          5.8570    0.7080    3.5420 ca        1 4RR      0.106100
     10 C16         7.0600    0.8020    2.7920 ca        1 4RR      0.106100
     11 C19         7.0520    0.4570    1.4400 ca        1 4RR     -0.179000
     12 C20         5.8660    0.0480    0.8300 ca        1 4RR     -0.124000
     13 O17         8.1660    1.2390    3.4900 os        1 4RR     -0.302900
     14 C18         9.3990    1.2120    2.7810 c3        1 4RR      0.109700
     15 O10         5.9630    0.9840    4.8880 os        1 4RR     -0.311900
     16 C11         4.7790    1.5030    5.5230 c3        1 4RR      0.138100
     17 C12         5.2700    2.4120    6.6580 c3        1 4RR     -0.094900
     18 C13         4.7000    1.8700    7.9580 c3        1 4RR     -0.077400
     19 C14         3.7150    0.7630    7.6070 c3        1 4RR     -0.077400
     20 C15         3.9670    0.3710    6.1600 c3        1 4RR     -0.094900
     21 H181        9.6340    0.1790    2.4290 h1        1 4RR      0.044700
     22 H182        9.3740    1.9240    1.9200 h1        1 4RR      0.044700
     23 H183       10.1440    1.5470    3.5470 h1        1 4RR      0.044700
     24 H19         7.9750    0.5080    0.8450 ha        1 4RR      0.140000
     25 H20         5.8870   -0.2290   -0.2350 ha        1 4RR      0.132000
     26 H8          3.7610    0.1970    3.5150 ha        1 4RR      0.144000
     27 H11         4.1680    2.0790    4.7800 h1        1 4RR      0.052700
     28 H151        4.5480   -0.5840    6.1040 hc        1 4RR      0.056950
     29 H152        3.0030    0.2190    5.6150 hc        1 4RR      0.056950
     30 H141        2.6640    1.1270    7.7320 hc        1 4RR      0.044200
     31 H142        3.8450   -0.1170    8.2850 hc        1 4RR      0.044200
     32 H131        5.5230    1.4640    8.6000 hc        1 4RR      0.044200
     33 H132        4.1940    2.6800    8.5390 hc        1 4RR      0.044200
     34 H121        4.9250    3.4590    6.4730 hc        1 4RR      0.056950
     35 H122        6.3900    2.4210    6.6830 hc        1 4RR      0.056950
     36 H6          3.4140   -1.6270    0.9830 hc        1 4RR      0.071700
     37 H51         3.5950   -1.0120   -1.2490 h1        1 4RR      0.045700
     38 H52         4.0180    0.7190   -0.8590 h1        1 4RR      0.045700
     39 HN4         1.6470    0.5810   -1.7250 hn        1 4RR      0.330500
     40 H11A        2.2980    0.9610    2.1300 hc        1 4RR      0.082700
     41 H12         1.6110   -0.7220    2.1470 hc        1 4RR      0.082700
@<TRIPOS>BOND
     1    1    2 2   
     2    2    3 1   
     3    2    4 1   
     4    3    6 1   
     5    3   40 1   
     6    3   41 1   
     7    4    5 1   
     8    4   39 1   
     9    5    6 1   
    10    5   37 1   
    11    5   38 1   
    12    6    7 1   
    13    6   36 1   
    14    7    8 ar  
    15    7   12 ar  
    16    8    9 ar  
    17    8   26 1   
    18    9   10 ar  
    19    9   15 1   
    20   10   11 ar  
    21   10   13 1   
    22   11   12 ar  
    23   11   24 1   
    24   12   25 1   
    25   13   14 1   
    26   14   21 1   
    27   14   22 1   
    28   14   23 1   
    29   15   16 1   
    30   16   17 1   
    31   16   20 1   
    32   16   27 1   
    33   17   18 1   
    34   17   34 1   
    35   17   35 1   
    36   18   19 1   
    37   18   32 1   
    38   18   33 1   
    39   19   20 1   
    40   19   30 1   
    41   19   31 1   
    42   20   28 1   
    43   20   29 1   
@<TRIPOS>SUBSTRUCTURE
     1 4RR         1 TEMP              0 ****  ****    0 ROOT
