@<TRIPOS>MOLECULE
4RR
   41    43     1     0     0
SMALL
bcc


@<TRIPOS>ATOM
      1 O3          0.0730    0.8130    0.3800 o         1 4RR     -0.628500
      2 C2          1.2470    0.4200    0.3230 c         1 4RR      0.695500
      3 C1          2.1280    0.0400    1.5080 c3        1 4RR     -0.158400
      4 N4          1.9610    0.2500   -0.8550 n         1 4RR     -0.585900
      5 C5          3.3320   -0.1320   -0.6140 c3        1 4RR      0.091000
      6 C6          3.4280   -0.5040    0.8960 c3        1 4RR     -0.028400
      7 C7          4.6760   -0.0240    1.5480 ca        1 4RR     -0.080300
      8 C8          4.6830    0.2920    2.9140 ca        1 4RR     -0.168000
      9 C9          5.8580    0.7060    3.5410 ca        1 4RR      0.106100
     10 C16         7.0620    0.8000    2.7930 ca        1 4RR      0.106100
     11 C19         7.0570    0.4560    1.4410 ca        1 4RR     -0.179000
     12 C20         5.8710    0.0460    0.8280 ca        1 4RR     -0.124000
     13 O17         8.1660    1.2380    3.4930 os        1 4RR     -0.302900
     14 C18         9.4010    1.2110    2.7870 c3        1 4RR      0.109700
     15 O10         5.9600    0.9830    4.8880 os        1 4RR     -0.311900
     16 C11         4.7770    1.5040    5.5190 c3        1 4RR      0.138100
     17 C12         5.2660    2.4140    6.6530 c3        1 4RR     -0.094900
     18 C13         4.6900    1.8760    7.9530 c3        1 4RR     -0.077400
     19 C14         3.7050    0.7690    7.6010 c3        1 4RR     -0.077400
     20 C15         3.9610    0.3740    6.1560 c3        1 4RR     -0.094900
     21 H181        9.6370    0.1780    2.4340 h1        1 4RR      0.044700
     22 H182       10.1440    1.5470    3.5540 h1        1 4RR      0.044700
     23 H183        9.3770    1.9230    1.9250 h1        1 4RR      0.044700
     24 H19         7.9810    0.5060    0.8470 ha        1 4RR      0.140000
     25 H20         5.8950   -0.2310   -0.2360 ha        1 4RR      0.132000
     26 H8          3.7620    0.1950    3.5100 ha        1 4RR      0.144000
     27 H11         4.1670    2.0800    4.7740 h1        1 4RR      0.052700
     28 H151        4.5420   -0.5820    6.1030 hc        1 4RR      0.056950
     29 H152        2.9990    0.2220    5.6080 hc        1 4RR      0.056950
     30 H141        3.8320   -0.1090    8.2810 hc        1 4RR      0.044200
     31 H142        2.6540    1.1350    7.7220 hc        1 4RR      0.044200
     32 H131        5.5100    1.4710    8.5990 hc        1 4RR      0.044200
     33 H132        4.1820    2.6890    8.5300 hc        1 4RR      0.044200
     34 H121        6.3860    2.4190    6.6820 hc        1 4RR      0.056950
     35 H122        4.9250    3.4620    6.4660 hc        1 4RR      0.056950
     36 H6          3.4200   -1.6290    0.9770 hc        1 4RR      0.071700
     37 H51         3.6040   -1.0140   -1.2540 h1        1 4RR      0.045700
     38 H52         4.0270    0.7180   -0.8630 h1        1 4RR      0.045700
     39 HN4         1.6570    0.5790   -1.7340 hn        1 4RR      0.330500
     40 H11A        1.6140   -0.7240    2.1390 hc        1 4RR      0.082700
     41 H12         2.3010    0.9580    2.1220 hc        1 4RR      0.082700
@<TRIPOS>BOND
     1    1    2 2   
     2    2    3 1   
     3    2    4 1   
     4    3    6 1   
     5    3   40 1   
     6    3   41 1   
     7    4    5 1   
     8    4   39 1   
     9    5    6 1   
    10    5   37 1   
    11    5   38 1   
    12    6    7 1   
    13    6   36 1   
    14    7    8 ar  
    15    7   12 ar  
    16    8    9 ar  
    17    8   26 1   
    18    9   10 ar  
    19    9   15 1   
    20   10   11 ar  
    21   10   13 1   
    22   11   12 ar  
    23   11   24 1   
    24   12   25 1   
    25   13   14 1   
    26   14   21 1   
    27   14   22 1   
    28   14   23 1   
    29   15   16 1   
    30   16   17 1   
    31   16   20 1   
    32   16   27 1   
    33   17   18 1   
    34   17   34 1   
    35   17   35 1   
    36   18   19 1   
    37   18   32 1   
    38   18   33 1   
    39   19   20 1   
    40   19   30 1   
    41   19   31 1   
    42   20   28 1   
    43   20   29 1   
@<TRIPOS>SUBSTRUCTURE
     1 4RR         1 TEMP              0 ****  ****    0 ROOT
