@<TRIPOS>MOLECULE
4RR
   41    43     1     0     0
SMALL
bcc


@<TRIPOS>ATOM
      1 O3          0.0710    0.7960    0.3820 o         1 4RR     -0.628500
      2 C2          1.2480    0.4100    0.3240 c         1 4RR      0.695500
      3 C1          2.1310    0.0310    1.5070 c3        1 4RR     -0.158400
      4 N4          1.9610    0.2490   -0.8560 ns        1 4RR     -0.585900
      5 C5          3.3350   -0.1260   -0.6160 c3        1 4RR      0.091000
      6 C6          3.4340   -0.5030    0.8920 c3        1 4RR     -0.028400
      7 C7          4.6800   -0.0170    1.5450 ca        1 4RR     -0.080300
      8 C8          4.6850    0.2940    2.9130 ca        1 4RR     -0.168000
      9 C9          5.8580    0.7130    3.5400 ca        1 4RR      0.106100
     10 C16         7.0610    0.8180    2.7920 ca        1 4RR      0.106100
     11 C19         7.0570    0.4780    1.4380 ca        1 4RR     -0.179000
     12 C20         5.8740    0.0630    0.8250 ca        1 4RR     -0.124000
     13 O17         8.1630    1.2600    3.4930 os        1 4RR     -0.302900
     14 C18         9.3980    1.2440    2.7860 c3        1 4RR      0.109700
     15 O10         5.9600    0.9850    4.8880 os        1 4RR     -0.311900
     16 C11         4.7720    1.4960    5.5220 c3        1 4RR      0.138100
     17 C12         5.2560    2.4040    6.6600 c3        1 4RR     -0.094900
     18 C13         4.6860    1.8550    7.9590 c3        1 4RR     -0.077400
     19 C14         3.7080    0.7430    7.6020 c3        1 4RR     -0.077400
     20 C15         3.9660    0.3570    6.1540 c3        1 4RR     -0.094900
     21 H181       10.1390    1.5810    3.5540 h1        1 4RR      0.044700
     22 H182        9.3690    1.9580    1.9270 h1        1 4RR      0.044700
     23 H183        9.6390    0.2130    2.4300 h1        1 4RR      0.044700
     24 H19         7.9800    0.5370    0.8450 ha        1 4RR      0.140000
     25 H20         5.8990   -0.2100   -0.2410 ha        1 4RR      0.132000
     26 H8          3.7650    0.1890    3.5080 ha        1 4RR      0.144000
     27 H11         4.1580    2.0700    4.7800 h1        1 4RR      0.052700
     28 H151        3.0030    0.2010    5.6070 hc        1 4RR      0.056950
     29 H152        4.5520   -0.5950    6.0970 hc        1 4RR      0.056950
     30 H141        2.6550    1.1010    7.7260 hc        1 4RR      0.044200
     31 H142        3.8420   -0.1380    8.2780 hc        1 4RR      0.044200
     32 H131        4.1740    2.6610    8.5400 hc        1 4RR      0.044200
     33 H132        5.5100    1.4530    8.6010 hc        1 4RR      0.044200
     34 H121        4.9060    3.4490    6.4790 hc        1 4RR      0.056950
     35 H122        6.3760    2.4180    6.6880 hc        1 4RR      0.056950
     36 H6          3.4330   -1.6270    0.9690 hc        1 4RR      0.071700
     37 H51         3.6130   -1.0030   -1.2600 h1        1 4RR      0.045700
     38 H52         4.0240    0.7290   -0.8630 h1        1 4RR      0.045700
     39 HN4         1.6560    0.5790   -1.7330 hn        1 4RR      0.330500
     40 H11A        2.2990    0.9480    2.1240 hc        1 4RR      0.082700
     41 H12         1.6220   -0.7390    2.1340 hc        1 4RR      0.082700
@<TRIPOS>BOND
     1    1    2 2   
     2    2    3 1   
     3    2    4 1   
     4    3    6 1   
     5    3   40 1   
     6    3   41 1   
     7    4    5 1   
     8    4   39 1   
     9    5    6 1   
    10    5   37 1   
    11    5   38 1   
    12    6    7 1   
    13    6   36 1   
    14    7    8 ar  
    15    7   12 ar  
    16    8    9 ar  
    17    8   26 1   
    18    9   10 ar  
    19    9   15 1   
    20   10   11 ar  
    21   10   13 1   
    22   11   12 ar  
    23   11   24 1   
    24   12   25 1   
    25   13   14 1   
    26   14   21 1   
    27   14   22 1   
    28   14   23 1   
    29   15   16 1   
    30   16   17 1   
    31   16   20 1   
    32   16   27 1   
    33   17   18 1   
    34   17   34 1   
    35   17   35 1   
    36   18   19 1   
    37   18   32 1   
    38   18   33 1   
    39   19   20 1   
    40   19   30 1   
    41   19   31 1   
    42   20   28 1   
    43   20   29 1   
@<TRIPOS>SUBSTRUCTURE
     1 4RR         1 TEMP              0 ****  ****    0 ROOT
