@<TRIPOS>MOLECULE
4RR
   41    40     1     0     0
SMALL
bcc


@<TRIPOS>ATOM
      1 O3         -6.3590   -0.4150   -1.9380 o         1 4RR     -0.354000
      2 C2         -5.1900   -0.0620   -1.9650 c1        1 4RR      0.302000
      3 C1         -4.1650   -0.1270   -0.7680 c3        1 4RR     -0.185000
      4 N4         -4.5710    0.5340   -2.9800 n2        1 4RR     -0.402000
      5 C5         -3.1310    0.1570   -2.8430 c3        1 4RR     -0.022000
      6 C6         -2.9800   -0.4360   -1.4180 c3        1 4RR     -0.074000
      7 C7         -1.7790    0.2220   -0.6860 c2        1 4RR     -0.099000
      8 C8         -0.7600   -0.5770   -0.1630 c1        1 4RR     -0.109000
      9 C9          0.3300    0.0120    0.4830 c1        1 4RR      0.036000
     10 C16         0.4000    1.3890    0.6050 c1        1 4RR      0.058000
     11 C19        -0.6170    2.1880    0.0840 c2        1 4RR     -0.190000
     12 C20        -1.7120    1.5950   -0.5650 c2        1 4RR     -0.102000
     13 O17         1.5020    1.9860    1.2770 o         1 4RR     -0.205000
     14 C18         1.1410    2.9800    2.1930 c3        1 4RR     -0.078000
     15 O10         1.3030   -0.8220    1.1570 os        1 4RR     -0.215000
     16 C11         2.5820   -0.6720    0.5250 c3        1 4RR      0.030000
     17 C12         2.8350   -1.6970   -0.2090 c3        1 4RR     -0.172000
     18 C13         3.6520   -2.7100    0.7520 c3        1 4RR     -0.156500
     19 C14         4.0370   -1.8710    2.0100 c3        1 4RR     -0.156500
     20 C15         3.7830   -0.6130    1.6740 c3        1 4RR     -0.172000
     21 H181        1.0230    3.8400    1.7160 h1        1 4RR      0.085667
     22 H182        1.8610    3.0760    2.8820 h1        1 4RR      0.085667
     23 H183        0.3040    2.7320    2.6300 h1        1 4RR      0.085667
     24 H19        -0.5670    3.1670    0.1710 ha        1 4RR      0.141000
     25 H20        -2.4540    2.1760   -0.9460 ha        1 4RR      0.140000
     26 H8         -0.8110   -1.5710   -0.2510 ha        1 4RR      0.149000
     27 H11         2.5950    0.1260   -0.0080 h1        1 4RR      0.105000
     28 H151        4.6090   -0.1850    1.2890 hc        1 4RR      0.093750
     29 H152        3.4760   -0.1100    2.4570 hc        1 4RR      0.093750
     30 H141        5.0150   -1.9870    2.2250 hc        1 4RR      0.081500
     31 H142        3.4700   -2.1430    2.7960 hc        1 4RR      0.081500
     32 H131        4.4640   -3.0310    0.2960 hc        1 4RR      0.081500
     33 H132        3.0850   -3.4680    1.0080 hc        1 4RR      0.081500
     34 H121        3.3850   -1.4360   -0.9780 hc        1 4RR      0.093750
     35 H122        1.9930   -2.1170   -0.5130 hc        1 4RR      0.093750
     36 H6         -2.8580   -1.4170   -1.4670 hc        1 4RR      0.106000
     37 H51        -2.8930   -0.5220   -3.5220 h1        1 4RR      0.085500
     38 H52        -2.5710    0.9350   -2.9400 h1        1 4RR      0.085500
     39 HN4        -4.9650    0.8700   -3.7200 hn        1 4RR      0.245000
     40 H11A       -4.2880   -0.7350   -0.0350 hc        1 4RR      0.125500
     41 H12        -4.1770    0.7390   -0.3130 hc        1 4RR      0.125500
@<TRIPOS>BOND
     1    1    2 1   
     2    2    3 1   
     3    3    6 1   
     4    3   40 1   
     5    3   41 1   
     6    4    5 1   
     7    4   39 1   
     8    5    6 1   
     9    5   37 1   
    10    5   38 1   
    11    6    7 1   
    12    6   36 1   
    13    7    8 1   
    14    7   12 1   
    15    8   26 1   
    16    9   10 1   
    17    9   15 1   
    18   10   11 1   
    19   11   12 1   
    20   11   24 1   
    21   12   25 1   
    22   13   14 1   
    23   14   21 1   
    24   14   22 1   
    25   14   23 1   
    26   15   16 1   
    27   16   17 1   
    28   16   20 1   
    29   16   27 1   
    30   17   18 1   
    31   17   34 1   
    32   17   35 1   
    33   18   19 1   
    34   18   32 1   
    35   18   33 1   
    36   19   20 1   
    37   19   30 1   
    38   19   31 1   
    39   20   28 1   
    40   20   29 1   
@<TRIPOS>SUBSTRUCTURE
     1 4RR         1 TEMP              0 ****  ****    0 ROOT
