@<TRIPOS>MOLECULE
4RT
   57    56     1     0     0
SMALL
bcc


@<TRIPOS>ATOM
      1 N1         -0.3360    0.4980   -0.1410 n         1 4RT     -0.191000
      2 C4          4.3670    1.1400   -0.8550 c2        1 4RT     -0.290000
      3 C5          0.8270   -0.2480    0.0660 c2        1 4RT     -0.022000
      4 C6         -0.5350    1.1630   -1.3720 c2        1 4RT      0.329000
      5 C7          0.5130    0.9710   -2.4170 c2        1 4RT      0.090000
      6 C8         -1.3760    0.5640    0.8380 c2        1 4RT      0.022000
      7 C13        -2.2030   -2.2560    4.4010 c1        1 4RT      0.058000
      8 C20         4.3160   -4.1960   -6.1560 ca        1 4RT     -0.210000
      9 C21         3.6800   -4.2980   -7.4090 ca        1 4RT      0.170000
     10 C22         3.2560   -3.1250   -8.0810 ca        1 4RT     -0.146000
     11 F           3.4860   -5.5200   -7.9470 f         1 4RT     -0.078000
     12 C19         4.5270   -2.9500   -5.5830 ca        1 4RT      0.010000
     13 Cl          2.4840   -3.2060   -9.5880 cl        1 4RT      0.021000
     14 C23         3.4750   -1.8830   -7.4890 ca        1 4RT     -0.024000
     15 C18         4.1160   -1.7720   -6.2390 ca        1 4RT     -0.182000
     16 N           4.0230   -0.0860   -2.9650 ns        1 4RT     -0.335000
     17 C1          2.6800    0.0550   -3.2230 c2        1 4RT      0.353000
     18 O4          2.3170   -0.0480   -4.4300 o         1 4RT     -0.427000
     19 C2          1.6550    0.2540   -2.1690 c2        1 4RT     -0.178000
     20 O           0.1790    1.6020   -3.5730 oh        1 4RT     -0.213000
     21 O1         -1.5340    1.8750   -1.5590 o         1 4RT     -0.302000
     22 C14        -2.7770    0.3440    0.3580 c3        1 4RT     -0.183000
     23 O3          0.0290   -4.2530    1.4490 oh        1 4RT     -0.125000
     24 C16        -1.8780   -3.5020    4.4570 c2        1 4RT     -0.585000
     25 C12        -2.2020    0.9580    3.1490 c3        1 4RT     -0.198000
     26 C11        -1.1270    0.8510    2.1420 c2        1 4RT     -0.148000
     27 N2          1.0210   -0.2530    2.5480 ns        1 4RT     -0.336000
     28 C9          1.0770   -0.9600    1.3690 c2        1 4RT      0.364000
     29 O2          1.4430   -2.1590    1.3710 o         1 4RT     -0.423000
     30 C3          1.7960   -0.3800   -0.8950 c2        1 4RT     -0.121000
     31 C           4.7310    0.2920   -1.8290 c2        1 4RT     -0.028000
     32 H1          5.0420    1.3430   -0.0160 ha        1 4RT      0.126000
     33 H2          2.6890   -0.9900   -0.6860 ha        1 4RT      0.175000
     34 H3          1.1230   -0.7820    3.3880 hn        1 4RT      0.234000
     35 H4          0.8260    1.7790    2.0590 h1        1 4RT      0.109500
     36 H5          0.2810    1.2980    3.7300 h1        1 4RT      0.109500
     37 H6         -2.2580   -4.3160    5.0810 ha        1 4RT      0.235500
     38 H7          1.4400   -4.0210    2.9390 ha        1 4RT      0.040000
     39 H8         -2.8120   -0.1830   -0.6260 hc        1 4RT      0.103333
     40 H9          4.5710   -0.3070   -3.8300 hn        1 4RT      0.310000
     41 H10         4.0690    0.3850   -6.1540 ha        1 4RT      0.070000
     42 H11         4.6370   -5.1160   -5.6440 ha        1 4RT      0.161000
     43 H12         5.0200   -2.8680   -4.6000 ha        1 4RT      0.157000
     44 H13         3.1390   -0.9660   -8.0040 ha        1 4RT      0.159000
     45 H14         0.8040    1.3410   -4.2760 ho        1 4RT      0.261000
     46 H15         0.7480   -4.1540    0.7840 ho        1 4RT      0.191000
     47 H16        -1.0540   -3.8850    3.7440 ha        1 4RT      0.235500
     48 H17        -3.3340   -0.2690    1.1100 hc        1 4RT      0.103333
     49 H18        -3.2860    1.3340    0.2350 hc        1 4RT      0.103333
     50 H19        -1.8940    1.6350    3.9840 hc        1 4RT      0.104000
     51 H20        -2.4240   -0.0580    3.5820 hc        1 4RT      0.104000
     52 H21        -3.1420    1.3680    2.7020 hc        1 4RT      0.104000
     53 H22         5.7340   -0.1850   -1.8060 h4        1 4RT      0.136000
     54 H23         3.4040    1.6620   -0.8240 ha        1 4RT      0.126000
     55 C10         0.2820    0.9830    2.6480 c3        1 4RT     -0.002000
     56 C15         0.3700   -4.1640    2.6790 c1        1 4RT     -0.050000
     57 C17         4.3640   -0.5220   -5.6100 c1        1 4RT     -0.076000
@<TRIPOS>BOND
     1    1    3 1   
     2    1    4 1   
     3    1    6 1   
     4    2   31 1   
     5    2   32 1   
     6    2   54 1   
     7    3   28 1   
     8    3   30 1   
     9    4    5 1   
    10    4   21 1   
    11    5   19 1   
    12    5   20 1   
    13    6   22 1   
    14    6   26 1   
    15    7   24 1   
    16    8    9 1   
    17    8   12 1   
    18    8   42 1   
    19    9   10 1   
    20    9   11 1   
    21   10   13 1   
    22   10   14 1   
    23   12   15 1   
    24   12   43 1   
    25   14   15 1   
    26   14   44 1   
    27   15   57 1   
    28   16   17 1   
    29   16   31 1   
    30   16   40 1   
    31   17   18 1   
    32   17   19 1   
    33   19   30 1   
    34   20   45 1   
    35   22   39 1   
    36   22   48 1   
    37   22   49 1   
    38   23   46 1   
    39   23   56 1   
    40   24   37 1   
    41   24   47 1   
    42   25   26 1   
    43   25   50 1   
    44   25   51 1   
    45   25   52 1   
    46   26   55 1   
    47   27   28 1   
    48   27   34 1   
    49   27   55 1   
    50   28   29 1   
    51   30   33 1   
    52   31   53 1   
    53   35   55 1   
    54   36   55 1   
    55   38   56 1   
    56   41   57 1   
@<TRIPOS>SUBSTRUCTURE
     1 4RT         1 TEMP              0 ****  ****    0 ROOT
