@<TRIPOS>MOLECULE
4RT
   57    62     1     0     0
SMALL
bcc


@<TRIPOS>ATOM
      1 N1          0.1070    0.0210    0.1190 n         1 4RT     -0.340000
      2 C4          3.6910   -0.0540   -1.1710 c3        1 4RT     -0.056200
      3 C5          1.5140   -0.0500    0.0520 cc        1 4RT     -0.088600
      4 C6         -0.6520    0.2040   -1.0200 c         1 4RT      0.666700
      5 C7          0.1090    0.2530   -2.3070 cc        1 4RT      0.106900
      6 C8         -0.3440   -0.0350    1.5500 c3        1 4RT      0.327800
      7 C13        -2.7080   -0.6540    1.9970 cx        1 4RT     -0.082700
      8 C20         5.4460   -3.4640   -6.3260 ca        1 4RT     -0.164000
      9 C21         4.2630   -3.9360   -6.9280 ca        1 4RT      0.135900
     10 C22         3.0850   -3.1600   -6.8520 ca        1 4RT     -0.024600
     11 F           4.2830   -5.1270   -7.5690 f         1 4RT     -0.126900
     12 C19         5.4480   -2.2450   -5.6590 ca        1 4RT     -0.098000
     13 CL          1.6370   -3.6850   -7.5640 cl        1 4RT     -0.065400
     14 C23         3.1070   -1.9350   -6.1820 ca        1 4RT     -0.086000
     15 C18         4.2840   -1.4760   -5.5840 ca        1 4RT     -0.126300
     16 N           3.5670   -0.0770   -3.6500 n         1 4RT     -0.469800
     17 C1          2.2080    0.2380   -3.6510 c         1 4RT      0.718700
     18 O4          1.6470    0.6030   -4.7020 o         1 4RT     -0.614500
     19 C2          1.4780    0.1660   -2.3550 cd        1 4RT     -0.156200
     20 O          -0.6240    0.3830   -3.4440 oh        1 4RT     -0.437100
     21 O1         -1.8960    0.3170   -1.0260 o         1 4RT     -0.641500
     22 C14        -1.3070   -1.2200    1.8100 cx        1 4RT     -0.165000
     23 O3         -1.7500   -3.5480    1.6760 oh        1 4RT     -0.602800
     24 C16        -1.9840   -1.2580    3.1620 cx        1 4RT     -0.095400
     25 C12        -2.6560    0.8450    1.8730 c3        1 4RT     -0.066400
     26 C11        -1.1840    1.2400    1.9290 c3        1 4RT     -0.086400
     27 N2          0.9290   -0.1180    2.3120 n         1 4RT     -0.480800
     28 C9          2.0330   -0.2000    1.4550 c         1 4RT      0.716700
     29 O2          3.2110   -0.3420    1.8050 o         1 4RT     -0.601500
     30 C3          2.2100    0.0120   -1.1220 cd        1 4RT     -0.019200
     31 C           4.1740   -0.6700   -2.4830 c3        1 4RT      0.098000
     32 H1          4.1020    0.9870   -1.0580 hc        1 4RT      0.086200
     33 H2          4.0910   -0.6650   -0.3160 hc        1 4RT      0.086200
     34 H3          0.5240   -1.5040    3.8560 h1        1 4RT      0.054033
     35 H4          2.0550   -0.5090    4.0160 h1        1 4RT      0.054033
     36 H5          0.4210    0.2670    4.3020 h1        1 4RT      0.054033
     37 H6         -3.5910   -1.1540    1.5660 hc        1 4RT      0.106700
     38 H7         -1.3520   -2.3770   -0.0080 h1        1 4RT      0.033200
     39 H8          0.0710   -2.7240    1.0980 h1        1 4RT      0.033200
     40 H9          5.3600    0.1660   -4.6890 h1        1 4RT      0.073200
     41 H10         3.8380    0.6230   -5.5990 h1        1 4RT      0.073200
     42 H11         6.3590   -4.0730   -6.3920 ha        1 4RT      0.153000
     43 H12         6.3780   -1.8850   -5.1920 ha        1 4RT      0.138000
     44 H13         2.1930   -1.3160   -6.1210 ha        1 4RT      0.179000
     45 H14        -1.5670    0.4560   -3.1990 ho        1 4RT      0.452000
     46 H15        -1.6470   -4.3120    1.0960 ho        1 4RT      0.407000
     47 H16        -1.6260   -0.5980    3.9730 hc        1 4RT      0.085200
     48 H17        -2.3070   -2.2490    3.5350 hc        1 4RT      0.085200
     49 H18        -3.1020    1.1530    0.8910 hc        1 4RT      0.067200
     50 H19        -3.2310    1.3380    2.6950 hc        1 4RT      0.067200
     51 H20        -0.9090    1.5690    2.9630 hc        1 4RT      0.065700
     52 H21        -0.9690    2.0870    1.2330 hc        1 4RT      0.065700
     53 H22         3.9660   -1.7800   -2.4640 h1        1 4RT      0.048700
     54 H23         5.2910   -0.5340   -2.5500 h1        1 4RT      0.048700
     55 C10         0.9800   -0.4900    3.6880 c3        1 4RT      0.089300
     56 C15        -1.0280   -2.4870    1.0640 c3        1 4RT      0.174400
     57 C17         4.2930   -0.1380   -4.8960 c3        1 4RT      0.141300
@<TRIPOS>BOND
     1    1    3 1   
     2    1    4 1   
     3    1    6 1   
     4    2   30 1   
     5    2   31 1   
     6    2   32 1   
     7    2   33 1   
     8    3   28 1   
     9    3   30 2   
    10    4    5 1   
    11    4   21 2   
    12    5   19 2   
    13    5   20 1   
    14    6   22 1   
    15    6   26 1   
    16    6   27 1   
    17    7   22 1   
    18    7   24 1   
    19    7   25 1   
    20    7   37 1   
    21    8    9 ar  
    22    8   12 ar  
    23    8   42 1   
    24    9   10 ar  
    25    9   11 1   
    26   10   13 1   
    27   10   14 ar  
    28   12   15 ar  
    29   12   43 1   
    30   14   15 ar  
    31   14   44 1   
    32   15   57 1   
    33   16   17 1   
    34   16   31 1   
    35   16   57 1   
    36   17   18 2   
    37   17   19 1   
    38   19   30 1   
    39   20   45 1   
    40   22   24 1   
    41   22   56 1   
    42   23   46 1   
    43   23   56 1   
    44   24   47 1   
    45   24   48 1   
    46   25   26 1   
    47   25   49 1   
    48   25   50 1   
    49   26   51 1   
    50   26   52 1   
    51   27   28 1   
    52   27   55 1   
    53   28   29 2   
    54   31   53 1   
    55   31   54 1   
    56   34   55 1   
    57   35   55 1   
    58   36   55 1   
    59   38   56 1   
    60   39   56 1   
    61   40   57 1   
    62   41   57 1   
@<TRIPOS>SUBSTRUCTURE
     1 4RT         1 TEMP              0 ****  ****    0 ROOT
