@<TRIPOS>MOLECULE
4RU
   23    24     1     0     0
SMALL
bcc


@<TRIPOS>ATOM
      1 N1         -0.1220   -0.0250   -0.0720 nz        1 4RU     -0.737400
      2 C4          2.1390    0.0640   -1.1780 ca        1 4RU      0.039800
      3 C7          3.3590    0.0290   -3.6450 ca        1 4RU      0.355600
      4 C8          3.9190    0.0050   -4.9400 ca        1 4RU     -0.141300
      5 C10         6.1330    0.1830   -3.9760 ca        1 4RU     -0.101000
      6 C13         3.5720    0.1510   -1.1830 ca        1 4RU      0.285300
      7 C2          1.3900    0.0730    0.0480 c         1 4RU      0.492600
      8 O3          1.7730    0.1480    1.2170 o         1 4RU     -0.511100
      9 N5          1.4150   -0.0340   -2.3900 nb        1 4RU     -0.282000
     10 N6          1.9440   -0.0510   -3.4930 nb        1 4RU     -0.256000
     11 C9          5.2950    0.0820   -5.0960 ca        1 4RU     -0.076000
     12 C11         5.5990    0.2070   -2.6960 ca        1 4RU     -0.093000
     13 C12         4.2080    0.1310   -2.5040 ca        1 4RU     -0.192300
     14 N14         4.3020    0.2450   -0.0590 nv        1 4RU     -0.791200
     15 H1         -0.5420   -0.0080    0.8640 hn        1 4RU      0.469800
     16 H2         -0.3760   -0.8950   -0.5490 hn        1 4RU      0.469800
     17 H3          3.2590   -0.0740   -5.8220 ha        1 4RU      0.179000
     18 H4          7.2250    0.2430   -4.1170 ha        1 4RU      0.165000
     19 H5          5.7350    0.0640   -6.1070 ha        1 4RU      0.168000
     20 H6          6.2950    0.2870   -1.8470 ha        1 4RU      0.142000
     21 H7          5.2940    0.3030   -0.0990 hn        1 4RU      0.471800
     22 H8          3.8730    0.2590    0.8420 hn        1 4RU      0.471800
     23 H13        -0.4770    0.7630   -0.6230 hn        1 4RU      0.469800
@<TRIPOS>BOND
     1    1    7 1   
     2    1   15 1   
     3    1   16 1   
     4    1   23 1   
     5    2    6 ar  
     6    2    7 1   
     7    2    9 ar  
     8    3    4 ar  
     9    3   10 ar  
    10    3   13 ar  
    11    4   11 ar  
    12    4   17 1   
    13    5   11 ar  
    14    5   12 ar  
    15    5   18 1   
    16    6   13 ar  
    17    6   14 1   
    18    7    8 2   
    19    9   10 ar  
    20   11   19 1   
    21   12   13 ar  
    22   12   20 1   
    23   14   21 1   
    24   14   22 1   
@<TRIPOS>SUBSTRUCTURE
     1 4RU         1 TEMP              0 ****  ****    0 ROOT
