@<TRIPOS>MOLECULE
4RU
   23    24     1     0     0
SMALL
bcc


@<TRIPOS>ATOM
      1 N1         -0.1220    0.0100   -0.0670 n4        1 4RU     -0.737400
      2 C4          2.1390    0.0690   -1.1750 ca        1 4RU      0.039800
      3 C7          3.3560    0.0250   -3.6430 ca        1 4RU      0.355600
      4 C8          3.9150   -0.0020   -4.9390 ca        1 4RU     -0.141300
      5 C10         6.1320    0.1390   -3.9770 ca        1 4RU     -0.101000
      6 C13         3.5730    0.1350   -1.1810 ca        1 4RU      0.285300
      7 C2          1.3910    0.0850    0.0520 c         1 4RU      0.492600
      8 O3          1.7760    0.1500    1.2210 o         1 4RU     -0.511100
      9 N5          1.4130   -0.0140   -2.3870 nb        1 4RU     -0.282000
     10 N6          1.9410   -0.0340   -3.4910 nb        1 4RU     -0.256000
     11 C9          5.2920    0.0540   -5.0960 ca        1 4RU     -0.076000
     12 C11         5.6000    0.1660   -2.6960 ca        1 4RU     -0.093000
     13 C12         4.2070    0.1100   -2.5030 ca        1 4RU     -0.192300
     14 N14         4.3050    0.2150   -0.0580 nh        1 4RU     -0.791200
     15 H1         -0.5410    0.0280    0.8690 hn        1 4RU      0.469800
     16 H2         -0.3890   -0.8550   -0.5480 hn        1 4RU      0.469800
     17 H3          3.2530   -0.0690   -5.8210 ha        1 4RU      0.179000
     18 H4          7.2240    0.1830   -4.1180 ha        1 4RU      0.165000
     19 H5          5.7310    0.0340   -6.1080 ha        1 4RU      0.168000
     20 H6          6.2970    0.2330   -1.8470 ha        1 4RU      0.142000
     21 H7          3.8770    0.2320    0.8440 hn        1 4RU      0.471800
     22 H8          5.2980    0.2590   -0.0980 hn        1 4RU      0.471800
     23 H13        -0.4660    0.8040   -0.6150 hn        1 4RU      0.469800
@<TRIPOS>BOND
     1    1    7 1   
     2    1   15 1   
     3    1   16 1   
     4    1   23 1   
     5    2    6 ar  
     6    2    7 1   
     7    2    9 ar  
     8    3    4 ar  
     9    3   10 ar  
    10    3   13 ar  
    11    4   11 ar  
    12    4   17 1   
    13    5   11 ar  
    14    5   12 ar  
    15    5   18 1   
    16    6   13 ar  
    17    6   14 1   
    18    7    8 2   
    19    9   10 ar  
    20   11   19 1   
    21   12   13 ar  
    22   12   20 1   
    23   14   21 1   
    24   14   22 1   
@<TRIPOS>SUBSTRUCTURE
     1 4RU         1 TEMP              0 ****  ****    0 ROOT
