@<TRIPOS>MOLECULE
4RV
   35    34     1     0     0
SMALL
bcc


@<TRIPOS>ATOM
      1 C4         -0.8020   -1.4520    2.6600 c1        1 4RV      0.048000
      2 C6          2.5770    2.0840    0.9730 c1        1 4RV      0.371000
      3 C7          2.5690    0.9100    1.6240 c2        1 4RV     -0.388000
      4 C8          2.5900    0.7570    3.0570 c2        1 4RV      0.094000
      5 C10         1.9140   -0.4490    5.0120 c1        1 4RV      0.012000
      6 C13         3.3580    2.6430    6.2300 c2        1 4RV      0.290000
      7 C15         3.9630    3.7770    5.5680 c2        1 4RV     -0.350000
      8 C2          2.5560   -0.3130    0.7870 c2        1 4RV     -0.076000
      9 C3          1.4160   -0.8110    0.2990 c2        1 4RV     -0.180000
     10 N5         -1.8690   -1.8780    2.4220 n2        1 4RV     -0.326000
     11 C9          2.1210   -0.5540    3.6110 c3        1 4RV     -0.172000
     12 C11         1.8990    0.6290    5.8310 c2        1 4RV     -0.094000
     13 C12         2.7440    1.6650    5.3670 c2        1 4RV     -0.167000
     14 N14         3.3560    2.5050    7.5690 nv        1 4RV     -0.310000
     15 N16         4.0560    3.8240    4.1350 n2        1 4RV      0.074000
     16 N17         3.6260    2.9340    3.4280 n2        1 4RV     -0.001000
     17 C18         2.9810    1.7600    3.9320 c2        1 4RV     -0.130000
     18 C19         4.4750    4.8370    6.2620 c1        1 4RV      0.475000
     19 N20         6.6660    5.1140    4.9070 n9        1 4RV     -0.435000
     20 O21         4.8060    5.7450    6.9190 o         1 4RV      0.000000
     21 H1          0.4350   -0.3560    0.4950 ha        1 4RV      0.131000
     22 H2         -2.7510   -2.2330    2.2240 hn        1 4RV      0.298000
     23 H3          1.1380   -0.8770    3.0870 hc        1 4RV      0.225500
     24 H4          3.7910   -1.8640   -0.0550 hc        1 4RV      0.093333
     25 H5          4.4020   -1.1470    1.4970 hc        1 4RV      0.093333
     26 H6          4.5290   -0.2060   -0.0470 hc        1 4RV      0.093333
     27 H7          1.4000   -1.7140   -0.3280 ha        1 4RV      0.131000
     28 H8          2.8550   -1.3780    3.3620 hc        1 4RV      0.225500
     29 H9          1.3520    0.6640    6.7830 ha        1 4RV      0.176000
     30 H10         2.9480    1.7000    7.9920 hn        1 4RV      0.260000
     31 H11         3.7550    3.1910    8.1660 hn        1 4RV      0.260000
     32 H12         7.1420    4.2500    4.7490 hn        1 4RV      0.154000
     33 H13         7.2990    5.7610    5.3300 hn        1 4RV      0.154000
     34 C1          3.8860   -0.9170    0.5310 c3        1 4RV     -0.186000
     35 H203        6.3640    5.4810    4.0270 hn        1 4RV      0.154000
@<TRIPOS>BOND
     1    1   10 1   
     2    2    3 1   
     3    3    4 1   
     4    3    8 1   
     5    4   11 1   
     6    4   17 1   
     7    5   11 1   
     8    5   12 1   
     9    6    7 1   
    10    6   13 1   
    11    6   14 1   
    12    7   15 1   
    13    7   18 1   
    14    8    9 1   
    15    8   34 1   
    16    9   21 1   
    17    9   27 1   
    18   10   22 1   
    19   11   23 1   
    20   11   28 1   
    21   12   13 1   
    22   12   29 1   
    23   13   17 1   
    24   14   30 1   
    25   14   31 1   
    26   15   16 1   
    27   16   17 1   
    28   18   20 1   
    29   19   32 1   
    30   19   33 1   
    31   19   35 1   
    32   24   34 1   
    33   25   34 1   
    34   26   34 1   
@<TRIPOS>SUBSTRUCTURE
     1 4RV         1 TEMP              0 ****  ****    0 ROOT
