@<TRIPOS>MOLECULE
4RV
   35    37     1     0     0
SMALL
bcc


@<TRIPOS>ATOM
      1 C4          0.0770    0.5210    0.0030 ca        1 4RV      0.420200
      2 C6          0.4200    1.0020    2.2230 ca        1 4RV      0.434200
      3 C7          1.5800    0.1920    2.2820 cp        1 4RV     -0.198300
      4 C8          2.2950    0.0760    3.5510 cp        1 4RV     -0.022300
      5 C10         2.9970   -1.2650    5.4540 ca        1 4RV     -0.101000
      6 C13         4.2260    2.2810    5.9510 ca        1 4RV      0.284300
      7 C15         4.1050    3.4750    5.1650 ca        1 4RV      0.039800
      8 C2          1.9880   -0.4710    1.1110 ca        1 4RV     -0.007300
      9 C3          1.2140   -0.3000   -0.0460 ca        1 4RV     -0.249300
     10 N5         -0.3210    1.1690    1.1170 nb        1 4RV     -0.660000
     11 C9          2.3410   -1.1450    4.2250 ca        1 4RV     -0.075000
     12 C11         3.6170   -0.1690    6.0360 ca        1 4RV     -0.097000
     13 C12         3.5930    1.0810    5.3920 ca        1 4RV     -0.189300
     14 N14         4.8730    2.2450    7.1280 nh        1 4RV     -0.792200
     15 N16         3.4160    3.4600    3.9290 nb        1 4RV     -0.285000
     16 N17         2.8880    2.4590    3.4630 nb        1 4RV     -0.247000
     17 C18         2.9260    1.2050    4.1380 ca        1 4RV      0.355600
     18 C19         4.6730    4.7220    5.5970 c         1 4RV      0.492600
     19 N20         4.4690    5.9190    4.6840 n4        1 4RV     -0.736400
     20 O21         5.3160    4.9980    6.6120 o         1 4RV     -0.512100
     21 H1         -0.5530    0.6740   -0.8930 h4        1 4RV      0.036100
     22 H2          0.0700    1.5420    3.1220 h4        1 4RV      0.023100
     23 H3          3.0160   -2.2420    5.9670 ha        1 4RV      0.165000
     24 H4          3.0130   -2.2330    0.4390 hc        1 4RV      0.056033
     25 H5          4.0310   -0.7380    0.5490 hc        1 4RV      0.056033
     26 H6          3.5540   -1.6210    2.0590 hc        1 4RV      0.056033
     27 H7          1.4960   -0.8040   -0.9810 ha        1 4RV      0.156000
     28 H8          1.8470   -2.0270    3.7800 ha        1 4RV      0.171000
     29 H9          4.1190   -0.3120    7.0050 ha        1 4RV      0.142000
     30 H10         4.9370    1.4010    7.6500 hn        1 4RV      0.471300
     31 H11         5.3040    3.0600    7.5110 hn        1 4RV      0.471300
     32 H12         4.9150    6.7460    5.0960 hn        1 4RV      0.469800
     33 H13         3.4670    6.0930    4.5600 hn        1 4RV      0.469800
     34 C1          3.2060   -1.3110    1.0440 c3        1 4RV     -0.070800
     35 H203        4.8810    5.7280    3.7650 hn        1 4RV      0.469800
@<TRIPOS>BOND
     1    1    9 ar  
     2    1   10 ar  
     3    1   21 1   
     4    2    3 ar  
     5    2   10 ar  
     6    2   22 1   
     7    3    4 1   
     8    3    8 ar  
     9    4   11 ar  
    10    4   17 ar  
    11    5   11 ar  
    12    5   12 ar  
    13    5   23 1   
    14    6    7 ar  
    15    6   13 ar  
    16    6   14 1   
    17    7   15 ar  
    18    7   18 1   
    19    8    9 ar  
    20    8   34 1   
    21    9   27 1   
    22   11   28 1   
    23   12   13 ar  
    24   12   29 1   
    25   13   17 ar  
    26   14   30 1   
    27   14   31 1   
    28   15   16 ar  
    29   16   17 ar  
    30   18   19 1   
    31   18   20 2   
    32   19   32 1   
    33   19   33 1   
    34   19   35 1   
    35   24   34 1   
    36   25   34 1   
    37   26   34 1   
@<TRIPOS>SUBSTRUCTURE
     1 4RV         1 TEMP              0 ****  ****    0 ROOT
