@<TRIPOS>MOLECULE
4RW
   26    27     1     0     0
SMALL
bcc


@<TRIPOS>ATOM
      1 C7          0.0150   -0.0250    0.0990 c3        1 4RW     -0.094700
      2 C6          1.1400    1.3950    2.3200 c2        1 4RW      0.467100
      3 C1         -2.1190   -1.1130    0.8460 c3        1 4RW     -0.084400
      4 C5          1.5250   -0.0940    0.1220 c3        1 4RW     -0.018300
      5 C4         -2.0370    1.3660    0.5590 c3        1 4RW     -0.063400
      6 C3         -0.6080   -1.1710    0.8830 c3        1 4RW     -0.079400
      7 C2         -2.6340    0.2210    1.3440 c3        1 4RW     -0.085400
      8 C8         -0.4980    1.3520    0.5730 c3        1 4RW      0.130500
      9 N9          1.5750    1.9780    3.6240 n4        1 4RW     -0.799600
     10 N10         0.0230    1.8170    1.8380 n2        1 4RW     -0.540900
     11 S11         2.2670    0.2490    1.7050 ss        1 4RW     -0.167300
     12 H1         -0.3110   -0.1260   -0.9790 hc        1 4RW      0.105700
     13 H2         -2.5360   -1.9380    1.4820 hc        1 4RW      0.062700
     14 H3         -2.4770   -1.2860   -0.2030 hc        1 4RW      0.062700
     15 H4          1.8730   -1.1320   -0.1260 h1        1 4RW      0.110200
     16 H5          1.9580    0.6110   -0.6310 h1        1 4RW      0.110200
     17 H6         -2.3490    1.2920   -0.5170 hc        1 4RW      0.072200
     18 H7         -2.4170    2.3430    0.9570 hc        1 4RW      0.072200
     19 H8         -0.2620   -2.1440    0.4440 hc        1 4RW      0.053200
     20 H9         -0.2530   -1.1390    1.9470 hc        1 4RW      0.053200
     21 H10        -3.7520    0.2510    1.2420 hc        1 4RW      0.057200
     22 H11        -2.3980    0.3370    2.4340 hc        1 4RW      0.057200
     23 H12        -0.1500    2.1340   -0.1780 h1        1 4RW      0.100700
     24 H13         1.6070    1.2260    4.3220 hn        1 4RW      0.472467
     25 H14         2.5120    2.3800    3.5060 hn        1 4RW      0.472467
     26 H93         0.9290    2.7120    3.9490 hn        1 4RW      0.472467
@<TRIPOS>BOND
     1    1    4 1   
     2    1    6 1   
     3    1    8 1   
     4    1   12 1   
     5    2    9 1   
     6    2   10 2   
     7    2   11 1   
     8    3    6 1   
     9    3    7 1   
    10    3   13 1   
    11    3   14 1   
    12    4   11 1   
    13    4   15 1   
    14    4   16 1   
    15    5    7 1   
    16    5    8 1   
    17    5   17 1   
    18    5   18 1   
    19    6   19 1   
    20    6   20 1   
    21    7   21 1   
    22    7   22 1   
    23    8   10 1   
    24    8   23 1   
    25    9   24 1   
    26    9   25 1   
    27    9   26 1   
@<TRIPOS>SUBSTRUCTURE
     1 4RW         1 TEMP              0 ****  ****    0 ROOT
