@<TRIPOS>MOLECULE
4RW
   26    27     1     0     0
SMALL
bcc


@<TRIPOS>ATOM
      1 C7          0.0120   -0.0160    0.0940 c3        1 4RW     -0.094700
      2 C6          1.1430    1.3880    2.3220 c2        1 4RW      0.467100
      3 C1         -2.1190   -1.1120    0.8400 c3        1 4RW     -0.084400
      4 C5          1.5220   -0.0840    0.1130 c3        1 4RW     -0.018300
      5 C4         -2.0400    1.3690    0.5720 c3        1 4RW     -0.063400
      6 C3         -0.6070   -1.1680    0.8720 c3        1 4RW     -0.079400
      7 C2         -2.6330    0.2170    1.3490 c3        1 4RW     -0.085400
      8 C8         -0.5010    1.3570    0.5800 c3        1 4RW      0.130500
      9 N9          1.5810    1.9610    3.6300 nz        1 4RW     -0.799600
     10 N10         0.0240    1.8130    1.8470 n2        1 4RW     -0.540900
     11 S11         2.2690    0.2470    1.6950 ss        1 4RW     -0.167300
     12 H1         -0.3170   -0.1080   -0.9840 hc        1 4RW      0.105700
     13 H2         -2.4800   -1.2780   -0.2100 hc        1 4RW      0.062700
     14 H3         -2.5330   -1.9420    1.4700 hc        1 4RW      0.062700
     15 H4          1.9520    0.6270   -0.6370 h1        1 4RW      0.110200
     16 H5          1.8700   -1.1190   -0.1450 h1        1 4RW      0.110200
     17 H6         -2.3550    1.3030   -0.5040 hc        1 4RW      0.072200
     18 H7         -2.4200    2.3430    0.9780 hc        1 4RW      0.072200
     19 H8         -0.2500   -1.1450    1.9350 hc        1 4RW      0.053200
     20 H9         -0.2620   -2.1380    0.4240 hc        1 4RW      0.053200
     21 H10        -2.3940    0.3260    2.4390 hc        1 4RW      0.057200
     22 H11        -3.7510    0.2480    1.2500 hc        1 4RW      0.057200
     23 H12        -0.1560    2.1450   -0.1660 h1        1 4RW      0.100700
     24 H13         0.9350    2.6910    3.9620 hn        1 4RW      0.472467
     25 H14         1.6160    1.2040    4.3220 hn        1 4RW      0.472467
     26 H93         2.5170    2.3650    3.5120 hn        1 4RW      0.472467
@<TRIPOS>BOND
     1    1    4 1   
     2    1    6 1   
     3    1    8 1   
     4    1   12 1   
     5    2    9 1   
     6    2   10 2   
     7    2   11 1   
     8    3    6 1   
     9    3    7 1   
    10    3   13 1   
    11    3   14 1   
    12    4   11 1   
    13    4   15 1   
    14    4   16 1   
    15    5    7 1   
    16    5    8 1   
    17    5   17 1   
    18    5   18 1   
    19    6   19 1   
    20    6   20 1   
    21    7   21 1   
    22    7   22 1   
    23    8   10 1   
    24    8   23 1   
    25    9   24 1   
    26    9   25 1   
    27    9   26 1   
@<TRIPOS>SUBSTRUCTURE
     1 4RW         1 TEMP              0 ****  ****    0 ROOT
