@<TRIPOS>MOLECULE
4RX
   46    49     1     0     0
SMALL
bcc


@<TRIPOS>ATOM
      1 C7         -0.0480   -0.1780   -0.0900 c3        1 4RX      0.121500
      2 C6          1.4860   -0.1880   -0.1850 c3        1 4RX     -0.100400
      3 C5          2.0530   -0.1810    1.2230 c3        1 4RX     -0.093700
      4 C4          1.5840   -1.3970    2.0720 c3        1 4RX      0.101200
      5 C2          3.3120   -2.7660    1.1220 c2        1 4RX      0.488100
      6 C15        -4.6200    1.6990   -3.9050 ca        1 4RX     -0.114000
      7 C14        -3.9690    1.4140   -2.7040 ca        1 4RX     -0.029000
      8 C16        -4.0470    1.3410   -5.1210 ca        1 4RX     -0.032000
      9 C18        -2.1390    0.3940   -3.9470 ca        1 4RX     -0.106000
     10 C13        -2.7220    0.7620   -2.7220 ca        1 4RX     -0.207600
     11 C17        -2.8020    0.6850   -5.1390 ca        1 4RX      0.015400
     12 C11        -2.1140    0.5010   -1.4220 c         1 4RX      0.581700
     13 C8         -0.5270   -1.4290    0.6570 c3        1 4RX     -0.098400
     14 C9          0.0470   -1.4510    2.0570 c3        1 4RX     -0.061400
     15 C21         3.9860    0.0810    2.7480 c3        1 4RX      0.114400
     16 C23         2.0560   -1.0720    3.5360 c3        1 4RX      0.124400
     17 C20         3.5690   -0.1030    1.2860 c3        1 4RX     -0.038600
     18 N3          2.1460   -2.6780    1.6710 n2        1 4RX     -0.546900
     19 N24         3.8710   -4.1350    0.9310 nz        1 4RX     -0.798600
     20 N10        -0.6840   -0.0530   -1.4460 ny        1 4RX     -0.683800
     21 O12        -2.5880    0.6750   -0.3090 o         1 4RX     -0.426100
     22 O22         3.4650   -0.9520    3.5760 os        1 4RX     -0.387600
     23 S1          4.3610   -1.5240    0.5440 ss        1 4RX     -0.128300
     24 Cl1        -2.1050    0.2440   -6.6120 cl        1 4RX     -0.012400
     25 H1         -0.3730    0.7390    0.4960 hx        1 4RX      0.128700
     26 H2          1.8560    0.7240   -0.7270 hc        1 4RX      0.072700
     27 H3          1.8380   -1.0900   -0.7490 hc        1 4RX      0.072700
     28 H4          1.6550    0.7440    1.7430 hc        1 4RX      0.107700
     29 H7         -4.5660    1.5680   -6.0710 ha        1 4RX      0.191000
     30 H8         -1.1740   -0.1300   -4.0050 ha        1 4RX      0.129000
     31 H9         -1.6500   -1.4190    0.7350 hc        1 4RX      0.080700
     32 H10        -0.2260   -2.3540    0.0990 hc        1 4RX      0.080700
     33 H11        -0.3140   -2.3750    2.5860 hc        1 4RX      0.095700
     34 H12        -0.3320   -0.5660    2.6370 hc        1 4RX      0.095700
     35 H13         5.1000   -0.0040    2.8740 h1        1 4RX      0.101700
     36 H14         3.6350    1.0850    3.1130 h1        1 4RX      0.101700
     37 H15         1.5570   -0.1250    3.8690 h1        1 4RX      0.098200
     38 H16         1.8180   -1.9100    4.2450 h1        1 4RX      0.098200
     39 H17         3.9580    0.7630    0.6820 h1        1 4RX      0.137700
     40 H18         4.5890   -4.2880    1.6550 hn        1 4RX      0.481467
     41 H19         3.1500   -4.8640    1.0240 hn        1 4RX      0.481467
     42 H20        -0.1160    0.5730   -2.0280 hn        1 4RX      0.457300
     43 H5         -5.5990    2.2120   -3.8860 ha        1 4RX      0.186000
     44 H243        4.3050   -4.1990    0.0030 hn        1 4RX      0.481467
     45 H102       -0.7130   -0.9740   -1.8950 hn        1 4RX      0.457300
     46 H6         -4.4310    1.6980   -1.7420 ha        1 4RX      0.178000
@<TRIPOS>BOND
     1    1    2 1   
     2    1   13 1   
     3    1   20 1   
     4    1   25 1   
     5    2    3 1   
     6    2   26 1   
     7    2   27 1   
     8    3    4 1   
     9    3   17 1   
    10    3   28 1   
    11    4   14 1   
    12    4   16 1   
    13    4   18 1   
    14    5   18 2   
    15    5   19 1   
    16    5   23 1   
    17    6    7 ar  
    18    6    8 ar  
    19    6   43 1   
    20    7   10 ar  
    21    7   46 1   
    22    8   11 ar  
    23    8   29 1   
    24    9   10 ar  
    25    9   11 ar  
    26    9   30 1   
    27   10   12 1   
    28   11   24 1   
    29   12   20 1   
    30   12   21 2   
    31   13   14 1   
    32   13   31 1   
    33   13   32 1   
    34   14   33 1   
    35   14   34 1   
    36   15   17 1   
    37   15   22 1   
    38   15   35 1   
    39   15   36 1   
    40   16   22 1   
    41   16   37 1   
    42   16   38 1   
    43   17   23 1   
    44   17   39 1   
    45   19   40 1   
    46   19   41 1   
    47   19   44 1   
    48   20   42 1   
    49   20   45 1   
@<TRIPOS>SUBSTRUCTURE
     1 4RX         1 TEMP              0 ****  ****    0 ROOT
