@<TRIPOS>MOLECULE
4RX
   46    49     1     0     0
SMALL
bcc


@<TRIPOS>ATOM
      1 C7         -0.0440   -0.1750   -0.0890 c3        1 4RX      0.121500
      2 C6          1.4900   -0.1840   -0.1820 c3        1 4RX     -0.100400
      3 C5          2.0550   -0.1790    1.2270 c3        1 4RX     -0.093700
      4 C4          1.5860   -1.3970    2.0730 c3        1 4RX      0.101200
      5 C2          3.3160   -2.7640    1.1230 c2        1 4RX      0.488100
      6 C15        -4.6190    1.6900   -3.9070 ca        1 4RX     -0.114000
      7 C14        -3.9670    1.4080   -2.7060 ca        1 4RX     -0.029000
      8 C16        -4.0430    1.3350   -5.1230 ca        1 4RX     -0.032000
      9 C18        -2.1320    0.3960   -3.9480 ca        1 4RX     -0.106000
     10 C13        -2.7170    0.7610   -2.7230 ca        1 4RX     -0.207600
     11 C17        -2.7960    0.6840   -5.1400 ca        1 4RX      0.015400
     12 C11        -2.1090    0.5030   -1.4230 c         1 4RX      0.581700
     13 C8         -0.5230   -1.4290    0.6550 c3        1 4RX     -0.098400
     14 C9          0.0490   -1.4520    2.0560 c3        1 4RX     -0.061400
     15 C21         3.9850    0.0810    2.7550 c3        1 4RX      0.114400
     16 C23         2.0550   -1.0740    3.5390 c3        1 4RX      0.124400
     17 C20         3.5710   -0.1010    1.2920 c3        1 4RX     -0.038600
     18 N3          2.1490   -2.6770    1.6710 n2        1 4RX     -0.546900
     19 N24         3.8770   -4.1310    0.9310 n4        1 4RX     -0.798600
     20 N10        -0.6780   -0.0490   -1.4460 n4        1 4RX     -0.683800
     21 O12        -2.5830    0.6780   -0.3100 o         1 4RX     -0.426100
     22 O22         3.4640   -0.9530    3.5800 os        1 4RX     -0.387600
     23 S1          4.3650   -1.5200    0.5490 ss        1 4RX     -0.128300
     24 CL1        -2.0950    0.2470   -6.6120 cl        1 4RX     -0.012400
     25 H1         -0.3710    0.7400    0.4980 hx        1 4RX      0.128700
     26 H2          1.8440   -1.0860   -0.7470 hc        1 4RX      0.072700
     27 H3          1.8600    0.7290   -0.7220 hc        1 4RX      0.072700
     28 H4          1.6550    0.7440    1.7470 hc        1 4RX      0.107700
     29 H7         -4.5620    1.5600   -6.0730 ha        1 4RX      0.191000
     30 H8         -1.1640   -0.1230   -4.0050 ha        1 4RX      0.129000
     31 H9         -0.2210   -2.3530    0.0970 hc        1 4RX      0.080700
     32 H10        -1.6460   -1.4190    0.7320 hc        1 4RX      0.080700
     33 H11        -0.3120   -2.3770    2.5830 hc        1 4RX      0.095700
     34 H12        -0.3320   -0.5680    2.6370 hc        1 4RX      0.095700
     35 H13         5.1000   -0.0030    2.8820 h1        1 4RX      0.101700
     36 H14         3.6340    1.0840    3.1210 h1        1 4RX      0.101700
     37 H15         1.8180   -1.9140    4.2460 h1        1 4RX      0.098200
     38 H16         1.5560   -0.1280    3.8720 h1        1 4RX      0.098200
     39 H17         3.9600    0.7660    0.6900 h1        1 4RX      0.137700
     40 H18         4.5930   -4.2850    1.6570 hn        1 4RX      0.481467
     41 H19         4.3120   -4.1940    0.0030 hn        1 4RX      0.481467
     42 H20        -0.1100    0.5790   -2.0260 hn        1 4RX      0.457300
     43 H5         -5.5990    2.1990   -3.8890 ha        1 4RX      0.186000
     44 H243        3.1550   -4.8620    1.0210 hn        1 4RX      0.481467
     45 H102       -0.7050   -0.9690   -1.8970 hn        1 4RX      0.457300
     46 H6         -4.4310    1.6900   -1.7440 ha        1 4RX      0.178000
@<TRIPOS>BOND
     1    1    2 1   
     2    1   13 1   
     3    1   20 1   
     4    1   25 1   
     5    2    3 1   
     6    2   26 1   
     7    2   27 1   
     8    3    4 1   
     9    3   17 1   
    10    3   28 1   
    11    4   14 1   
    12    4   16 1   
    13    4   18 1   
    14    5   18 2   
    15    5   19 1   
    16    5   23 1   
    17    6    7 ar  
    18    6    8 ar  
    19    6   43 1   
    20    7   10 ar  
    21    7   46 1   
    22    8   11 ar  
    23    8   29 1   
    24    9   10 ar  
    25    9   11 ar  
    26    9   30 1   
    27   10   12 1   
    28   11   24 1   
    29   12   20 1   
    30   12   21 2   
    31   13   14 1   
    32   13   31 1   
    33   13   32 1   
    34   14   33 1   
    35   14   34 1   
    36   15   17 1   
    37   15   22 1   
    38   15   35 1   
    39   15   36 1   
    40   16   22 1   
    41   16   37 1   
    42   16   38 1   
    43   17   23 1   
    44   17   39 1   
    45   19   40 1   
    46   19   41 1   
    47   19   44 1   
    48   20   42 1   
    49   20   45 1   
@<TRIPOS>SUBSTRUCTURE
     1 4RX         1 TEMP              0 ****  ****    0 ROOT
