@<TRIPOS>MOLECULE
4RY
   46    49     1     0     0
SMALL
bcc


@<TRIPOS>ATOM
      1 C7          0.0870    0.4950   -0.0060 c2        1 4RY      0.478100
      2 O2          3.5240    0.9500    2.7730 os        1 4RY     -0.377600
      3 C1          3.1050    1.1930    1.4370 c3        1 4RY      0.140400
      4 C5          0.2610    0.5450    2.6220 c3        1 4RY     -0.051300
      5 C4          1.4970   -0.3300    2.4340 c3        1 4RY     -0.094000
      6 C3          2.5560    0.1520    3.4590 c3        1 4RY      0.126400
      7 C19         3.5190   -8.5460    4.1990 ca        1 4RY     -0.113000
      8 C18         3.7480   -7.2690    3.6880 ca        1 4RY     -0.029000
      9 C20         2.2230   -9.0430    4.3070 ca        1 4RY     -0.032000
     10 C23         1.3490   -6.9690    3.3840 ca        1 4RY     -0.107000
     11 C17         2.6600   -6.4720    3.2840 ca        1 4RY     -0.208600
     12 C21         1.1360   -8.2490    3.8940 ca        1 4RY      0.016400
     13 C15         2.9880   -5.1530    2.7560 c         1 4RY      0.582700
     14 C12         2.5770   -2.5610    0.8220 c3        1 4RY     -0.098400
     15 C11         3.1650   -1.1790    0.6690 c3        1 4RY     -0.067400
     16 C24         1.1030   -1.7810    2.6740 c3        1 4RY     -0.098400
     17 C13         2.2120   -2.7670    2.2950 c3        1 4RY      0.123500
     18 C10         2.1950   -0.0380    1.0540 c3        1 4RY      0.107200
     19 N9          1.3560    0.2860   -0.0750 n2        1 4RY     -0.541900
     20 N8         -0.6060    0.8680   -1.2740 nz        1 4RY     -0.800600
     21 N14         1.8080   -4.1860    2.5910 ny        1 4RY     -0.684800
     22 O16         4.0800   -4.7040    2.4400 o         1 4RY     -0.423100
     23 S6         -0.9650    0.4240    1.3540 ss        1 4RY     -0.113300
     24 Cl1        -0.4370   -8.8490    4.0150 cl        1 4RY     -0.012400
     25 H1          2.5370    2.1570    1.3950 h1        1 4RY      0.088200
     26 H2          4.0340    1.2500    0.8140 h1        1 4RY      0.088200
     27 H3          0.5790    1.6160    2.7260 h1        1 4RY      0.126700
     28 H4         -0.2800    0.2640    3.5660 h1        1 4RY      0.126700
     29 H5          2.1050    0.7800    4.2700 h1        1 4RY      0.078200
     30 H6          3.1210   -0.7020    3.9160 h1        1 4RY      0.078200
     31 H9          2.0450  -10.0560    4.7120 ha        1 4RY      0.191000
     32 H10         0.4750   -6.3880    3.0530 ha        1 4RY      0.130000
     33 H11         3.3500   -3.3140    0.5020 hc        1 4RY      0.079700
     34 H12         1.6750   -2.6900    0.1700 hc        1 4RY      0.079700
     35 H13         3.5220   -1.0420   -0.3880 hc        1 4RY      0.104200
     36 H14         4.0690   -1.0820    1.3360 hc        1 4RY      0.104200
     37 H15         0.8470   -1.8900    3.7650 hc        1 4RY      0.074200
     38 H16         0.1750   -2.0070    2.0800 hc        1 4RY      0.074200
     39 H17         3.1320   -2.5660    2.9290 hx        1 4RY      0.132700
     40 H18        -1.3600    0.1940   -1.4560 hn        1 4RY      0.482133
     41 H19        -1.0070    1.8090   -1.1600 hn        1 4RY      0.482133
     42 H20         1.2180   -4.5380    1.8300 hn        1 4RY      0.456800
     43 H7          4.3750   -9.1680    4.5170 ha        1 4RY      0.186000
     44 H83         0.0400    0.8760   -2.0790 hn        1 4RY      0.482133
     45 H142        1.2620   -4.2080    3.4600 hn        1 4RY      0.456800
     46 H8          4.7790   -6.8830    3.5990 ha        1 4RY      0.178000
@<TRIPOS>BOND
     1    1   19 2   
     2    1   20 1   
     3    1   23 1   
     4    2    3 1   
     5    2    6 1   
     6    3   18 1   
     7    3   25 1   
     8    3   26 1   
     9    4    5 1   
    10    4   23 1   
    11    4   27 1   
    12    4   28 1   
    13    5    6 1   
    14    5   16 1   
    15    5   18 1   
    16    6   29 1   
    17    6   30 1   
    18    7    8 ar  
    19    7    9 ar  
    20    7   43 1   
    21    8   11 ar  
    22    8   46 1   
    23    9   12 ar  
    24    9   31 1   
    25   10   11 ar  
    26   10   12 ar  
    27   10   32 1   
    28   11   13 1   
    29   12   24 1   
    30   13   21 1   
    31   13   22 2   
    32   14   15 1   
    33   14   17 1   
    34   14   33 1   
    35   14   34 1   
    36   15   18 1   
    37   15   35 1   
    38   15   36 1   
    39   16   17 1   
    40   16   37 1   
    41   16   38 1   
    42   17   21 1   
    43   17   39 1   
    44   18   19 1   
    45   20   40 1   
    46   20   41 1   
    47   20   44 1   
    48   21   42 1   
    49   21   45 1   
@<TRIPOS>SUBSTRUCTURE
     1 4RY         1 TEMP              0 ****  ****    0 ROOT
