@<TRIPOS>MOLECULE
4RY
   46    49     1     0     0
SMALL
bcc


@<TRIPOS>ATOM
      1 C7          0.0880    0.5030    0.0050 c2        1 4RY      0.478100
      2 O2          3.5260    0.9410    2.7860 os        1 4RY     -0.377600
      3 C1          3.1080    1.1900    1.4500 c3        1 4RY      0.140400
      4 C5          0.2620    0.5420    2.6330 c3        1 4RY     -0.051300
      5 C4          1.4970   -0.3340    2.4420 c3        1 4RY     -0.094000
      6 C3          2.5570    0.1410    3.4690 c3        1 4RY      0.126400
      7 C19         3.5050   -8.5580    4.1810 ca        1 4RY     -0.113000
      8 C18         3.7360   -7.2800    3.6740 ca        1 4RY     -0.029000
      9 C20         2.2090   -9.0530    4.2870 ca        1 4RY     -0.032000
     10 C23         1.3390   -6.9770    3.3670 ca        1 4RY     -0.107000
     11 C17         2.6500   -6.4810    3.2700 ca        1 4RY     -0.208600
     12 C21         1.1230   -8.2570    3.8740 ca        1 4RY      0.016400
     13 C15         2.9800   -5.1610    2.7460 c         1 4RY      0.582700
     14 C12         2.5740   -2.5610    0.8210 c3        1 4RY     -0.098400
     15 C11         3.1640   -1.1790    0.6740 c3        1 4RY     -0.067400
     16 C24         1.1000   -1.7860    2.6760 c3        1 4RY     -0.098400
     17 C13         2.2080   -2.7720    2.2930 c3        1 4RY      0.123500
     18 C10         2.1960   -0.0380    1.0630 c3        1 4RY      0.107200
     19 N9          1.3570    0.2920   -0.0650 n2        1 4RY     -0.541900
     20 N8         -0.6040    0.8810   -1.2620 n4        1 4RY     -0.800600
     21 N14         1.8020   -4.1910    2.5840 n4        1 4RY     -0.684800
     22 O16         4.0720   -4.7130    2.4310 o         1 4RY     -0.423100
     23 S6         -0.9640    0.4280    1.3640 ss        1 4RY     -0.113300
     24 CL1        -0.4510   -8.8560    3.9910 cl        1 4RY     -0.012400
     25 H1          2.5410    2.1550    1.4130 h1        1 4RY      0.088200
     26 H2          4.0370    1.2480    0.8290 h1        1 4RY      0.088200
     27 H3          0.5820    1.6120    2.7420 h1        1 4RY      0.126700
     28 H4         -0.2790    0.2580    3.5760 h1        1 4RY      0.126700
     29 H5          2.1060    0.7670    4.2830 h1        1 4RY      0.078200
     30 H6          3.1200   -0.7140    3.9230 h1        1 4RY      0.078200
     31 H9          2.0290  -10.0680    4.6880 ha        1 4RY      0.191000
     32 H10         0.4660   -6.3940    3.0370 ha        1 4RY      0.130000
     33 H11         1.6710   -2.6860    0.1690 hc        1 4RY      0.079700
     34 H12         3.3460   -3.3130    0.4990 hc        1 4RY      0.079700
     35 H13         4.0670   -1.0860    1.3410 hc        1 4RY      0.104200
     36 H14         3.5210   -1.0390   -0.3830 hc        1 4RY      0.104200
     37 H15         0.8440   -1.8980    3.7660 hc        1 4RY      0.074200
     38 H16         0.1720   -2.0080    2.0810 hc        1 4RY      0.074200
     39 H17         3.1280   -2.5750    2.9280 hx        1 4RY      0.132700
     40 H18         0.0420    0.8900   -2.0670 hn        1 4RY      0.482133
     41 H19        -1.0030    1.8230   -1.1450 hn        1 4RY      0.482133
     42 H20         1.2550   -4.2160    3.4520 hn        1 4RY      0.456800
     43 H7          4.3600   -9.1820    4.4990 ha        1 4RY      0.186000
     44 H83        -1.3590    0.2100   -1.4460 hn        1 4RY      0.482133
     45 H142        1.2120   -4.5400    1.8210 hn        1 4RY      0.456800
     46 H8          4.7680   -6.8950    3.5870 ha        1 4RY      0.178000
@<TRIPOS>BOND
     1    1   19 2   
     2    1   20 1   
     3    1   23 1   
     4    2    3 1   
     5    2    6 1   
     6    3   18 1   
     7    3   25 1   
     8    3   26 1   
     9    4    5 1   
    10    4   23 1   
    11    4   27 1   
    12    4   28 1   
    13    5    6 1   
    14    5   16 1   
    15    5   18 1   
    16    6   29 1   
    17    6   30 1   
    18    7    8 ar  
    19    7    9 ar  
    20    7   43 1   
    21    8   11 ar  
    22    8   46 1   
    23    9   12 ar  
    24    9   31 1   
    25   10   11 ar  
    26   10   12 ar  
    27   10   32 1   
    28   11   13 1   
    29   12   24 1   
    30   13   21 1   
    31   13   22 2   
    32   14   15 1   
    33   14   17 1   
    34   14   33 1   
    35   14   34 1   
    36   15   18 1   
    37   15   35 1   
    38   15   36 1   
    39   16   17 1   
    40   16   37 1   
    41   16   38 1   
    42   17   21 1   
    43   17   39 1   
    44   18   19 1   
    45   20   40 1   
    46   20   41 1   
    47   20   44 1   
    48   21   42 1   
    49   21   45 1   
@<TRIPOS>SUBSTRUCTURE
     1 4RY         1 TEMP              0 ****  ****    0 ROOT
