@<TRIPOS>MOLECULE
4RZ
   41    43     1     0     0
SMALL
bcc


@<TRIPOS>ATOM
      1 O1          0.1120    0.5410   -0.0470 o         1 4RZ     -0.423100
      2 C7          1.4980    0.2020   -2.3270 c3        1 4RZ      0.121500
      3 C6          1.1400    1.6350   -2.7400 c3        1 4RZ     -0.099400
      4 C1          2.9790    1.2850   -6.4620 c2        1 4RZ      0.470100
      5 N1          1.9330    1.7360   -5.8560 n2        1 4RZ     -0.552900
      6 C5          0.3080    1.5990   -4.0010 c3        1 4RZ     -0.067400
      7 C4          0.9950    0.8790   -5.1720 c3        1 4RZ      0.123500
      8 C3          1.5080   -0.5060   -4.7190 c3        1 4RZ     -0.086700
      9 C2          2.2610   -1.2110   -5.8250 c3        1 4RZ     -0.043300
     10 N2          3.7840    2.2670   -7.2440 n4        1 4RZ     -0.798600
     11 S1          3.6200   -0.3110   -6.5240 ss        1 4RZ     -0.118300
     12 N3          2.2060    0.1540   -1.0020 n4        1 4RZ     -0.683800
     13 C8          1.2740    0.2650    0.2110 c         1 4RZ      0.581700
     14 C9          1.8860    0.0120    1.5110 ca        1 4RZ     -0.206600
     15 C10         0.9960   -0.1290    2.5920 ca        1 4RZ     -0.035000
     16 C11         1.4970   -0.3690    3.8770 ca        1 4RZ      0.009400
     17 CL1         0.4290   -0.5420    5.1680 cl        1 4RZ      0.005600
     18 C12         2.8790   -0.4610    4.0860 ca        1 4RZ     -0.037000
     19 C13         3.7560   -0.3110    3.0070 ca        1 4RZ     -0.107000
     20 C14         3.2720   -0.0770    1.7260 ca        1 4RZ     -0.103000
     21 C15         2.3310   -0.4460   -3.4390 c3        1 4RZ     -0.104400
     22 H1          0.5370   -0.3880   -2.1920 hx        1 4RZ      0.128700
     23 H2          0.5380    2.1310   -1.9290 hc        1 4RZ      0.081700
     24 H3          2.0710    2.2380   -2.9020 hc        1 4RZ      0.081700
     25 H4         -0.6580    1.0580   -3.8040 hc        1 4RZ      0.098700
     26 H5          0.0430    2.6520   -4.2930 hc        1 4RZ      0.098700
     27 H6          0.1810    0.6960   -5.9540 h1        1 4RZ      0.126700
     28 H7          0.5820   -1.1230   -4.5060 hc        1 4RZ      0.112700
     29 H8          1.5480   -1.4860   -6.6460 h1        1 4RZ      0.125200
     30 H9          2.7230   -2.1640   -5.4520 h1        1 4RZ      0.125200
     31 H10         3.7030    2.0300   -8.2430 hn        1 4RZ      0.481800
     32 H11         3.4550    3.2350   -7.1050 hn        1 4RZ      0.481800
     33 H12         2.7170   -0.7320   -0.9230 hn        1 4RZ      0.456800
     34 H13        -0.0940   -0.0490    2.4260 ha        1 4RZ      0.186000
     35 H14         3.2780   -0.6480    5.1000 ha        1 4RZ      0.190000
     36 H15         4.8440   -0.3780    3.1800 ha        1 4RZ      0.176000
     37 H16         4.0000    0.0500    0.9110 ha        1 4RZ      0.121000
     38 H17         3.2720    0.1390   -3.6120 hc        1 4RZ      0.072200
     39 H18         2.6230   -1.4930   -3.1550 hc        1 4RZ      0.072200
     40 H23         4.7680    2.2010   -6.9570 hn        1 4RZ      0.481800
     41 H32         2.8820    0.9230   -0.9490 hn        1 4RZ      0.456800
@<TRIPOS>BOND
     1    1   13 2   
     2    2    3 1   
     3    2   12 1   
     4    2   21 1   
     5    2   22 1   
     6    3    6 1   
     7    3   23 1   
     8    3   24 1   
     9    4    5 2   
    10    4   10 1   
    11    4   11 1   
    12    5    7 1   
    13    6    7 1   
    14    6   25 1   
    15    6   26 1   
    16    7    8 1   
    17    7   27 1   
    18    8    9 1   
    19    8   21 1   
    20    8   28 1   
    21    9   11 1   
    22    9   29 1   
    23    9   30 1   
    24   10   31 1   
    25   10   32 1   
    26   10   40 1   
    27   12   13 1   
    28   12   33 1   
    29   12   41 1   
    30   13   14 1   
    31   14   15 ar  
    32   14   20 ar  
    33   15   16 ar  
    34   15   34 1   
    35   16   17 1   
    36   16   18 ar  
    37   18   19 ar  
    38   18   35 1   
    39   19   20 ar  
    40   19   36 1   
    41   20   37 1   
    42   21   38 1   
    43   21   39 1   
@<TRIPOS>SUBSTRUCTURE
     1 4RZ         1 TEMP              0 ****  ****    0 ROOT
