@<TRIPOS>MOLECULE
4RZ
   41    43     1     0     0
SMALL
bcc


@<TRIPOS>ATOM
      1 O1          0.1010    0.5040   -0.0540 o         1 4RZ     -0.423100
      2 C7          1.5020    0.1880   -2.3280 c3        1 4RZ      0.121500
      3 C6          1.1160    1.6110   -2.7470 c3        1 4RZ     -0.099400
      4 C1          2.9750    1.2900   -6.4620 c2        1 4RZ      0.470100
      5 N1          1.9170    1.7200   -5.8600 n2        1 4RZ     -0.552900
      6 C5          0.2890    1.5540   -4.0110 c3        1 4RZ     -0.067400
      7 C4          0.9950    0.8460   -5.1770 c3        1 4RZ      0.123500
      8 C3          1.5350   -0.5270   -4.7180 c3        1 4RZ     -0.086700
      9 C2          2.3060   -1.2190   -5.8200 c3        1 4RZ     -0.043300
     10 N2          3.7610    2.2860   -7.2440 nz        1 4RZ     -0.798600
     11 S1          3.6490   -0.2930   -6.5170 ss        1 4RZ     -0.118300
     12 N3          2.2070    0.1580   -1.0000 ny        1 4RZ     -0.683800
     13 C8          1.2680    0.2530    0.2090 c         1 4RZ      0.581700
     14 C9          1.8810    0.0150    1.5110 ca        1 4RZ     -0.206600
     15 C10         0.9900   -0.1440    2.5900 ca        1 4RZ     -0.035000
     16 C11         1.4920   -0.3700    3.8760 ca        1 4RZ      0.009400
     17 Cl1         0.4230   -0.5650    5.1640 cl        1 4RZ      0.005600
     18 C12         2.8750   -0.4320    4.0910 ca        1 4RZ     -0.037000
     19 C13         3.7520   -0.2650    3.0150 ca        1 4RZ     -0.107000
     20 C14         3.2680   -0.0430    1.7310 ca        1 4RZ     -0.103000
     21 C15         2.3530   -0.4460   -3.4360 c3        1 4RZ     -0.104400
     22 H1          0.5540   -0.4220   -2.1940 hx        1 4RZ      0.128700
     23 H2          2.0340    2.2340   -2.9070 hc        1 4RZ      0.081700
     24 H3          0.5000    2.0970   -1.9390 hc        1 4RZ      0.081700
     25 H4          0.0030    2.6010   -4.3060 hc        1 4RZ      0.098700
     26 H5         -0.6660    0.9940   -3.8150 hc        1 4RZ      0.098700
     27 H6          0.1880    0.6430   -5.9610 h1        1 4RZ      0.126700
     28 H7          0.6220   -1.1620   -4.5060 hc        1 4RZ      0.112700
     29 H8          2.7870   -2.1620   -5.4410 h1        1 4RZ      0.125200
     30 H9          1.6020   -1.5120   -6.6420 h1        1 4RZ      0.125200
     31 H10         4.7450    2.2420   -6.9530 hn        1 4RZ      0.481800
     32 H11         3.4110    3.2470   -7.1090 hn        1 4RZ      0.481800
     33 H12         2.8660    0.9410   -0.9470 hn        1 4RZ      0.456800
     34 H13        -0.1010   -0.0870    2.4190 ha        1 4RZ      0.186000
     35 H14         3.2740   -0.6090    5.1060 ha        1 4RZ      0.190000
     36 H15         4.8410   -0.3080    3.1920 ha        1 4RZ      0.176000
     37 H16         3.9960    0.0980    0.9190 ha        1 4RZ      0.121000
     38 H17         3.2820    0.1580   -3.6070 hc        1 4RZ      0.072200
     39 H18         2.6660   -1.4860   -3.1470 hc        1 4RZ      0.072200
     40 H23         3.6880    2.0440   -8.2430 hn        1 4RZ      0.481800
     41 H32         2.7360   -0.7170   -0.9180 hn        1 4RZ      0.456800
@<TRIPOS>BOND
     1    1   13 2   
     2    2    3 1   
     3    2   12 1   
     4    2   21 1   
     5    2   22 1   
     6    3    6 1   
     7    3   23 1   
     8    3   24 1   
     9    4    5 2   
    10    4   10 1   
    11    4   11 1   
    12    5    7 1   
    13    6    7 1   
    14    6   25 1   
    15    6   26 1   
    16    7    8 1   
    17    7   27 1   
    18    8    9 1   
    19    8   21 1   
    20    8   28 1   
    21    9   11 1   
    22    9   29 1   
    23    9   30 1   
    24   10   31 1   
    25   10   32 1   
    26   10   40 1   
    27   12   13 1   
    28   12   33 1   
    29   12   41 1   
    30   13   14 1   
    31   14   15 ar  
    32   14   20 ar  
    33   15   16 ar  
    34   15   34 1   
    35   16   17 1   
    36   16   18 ar  
    37   18   19 ar  
    38   18   35 1   
    39   19   20 ar  
    40   19   36 1   
    41   20   37 1   
    42   21   38 1   
    43   21   39 1   
@<TRIPOS>SUBSTRUCTURE
     1 4RZ         1 TEMP              0 ****  ****    0 ROOT
