@<TRIPOS>MOLECULE
4S1
   54    57     1     0     0
SMALL
bcc


@<TRIPOS>ATOM
      1 C01         0.0720   -0.0340   -0.1400 ca        1 4S1      0.789200
      2 N02         1.4410    0.0300   -0.0620 nb        1 4S1     -0.832000
      3 C03         2.0100    0.1720    1.1870 ca        1 4S1      0.929900
      4 N04         1.2960    0.2170    2.3930 nb        1 4S1     -0.777000
      5 C05        -0.0280    0.1430    2.2800 ca        1 4S1      0.512200
      6 C06        -0.7340    0.0200    1.0600 ca        1 4S1     -0.504500
      7 N07        -0.5280   -0.0970   -1.3790 nu        1 4S1     -0.847900
      8 N08         3.3930    0.3270    1.2240 nu        1 4S1     -0.840900
      9 C09        -2.1720   -0.0530    1.0990 cc        1 4S1      0.489800
     10 C10         0.1640   -0.3240   -2.6200 c3        1 4S1      0.223500
     11 C11        -0.0350   -1.7630   -3.1900 c3        1 4S1      0.080100
     12 C12        -0.2040   -1.6270   -4.7210 c3        1 4S1      0.107100
     13 C13        -0.0920   -0.1310   -5.0520 c3        1 4S1     -0.097700
     14 C14        -0.3190    0.6180   -3.7470 c3        1 4S1     -0.084400
     15 O15         1.1390   -2.4930   -2.8840 oh        1 4S1     -0.591800
     16 O16         0.7510   -2.4100   -5.4070 oh        1 4S1     -0.596800
     17 C17        -1.0840    0.2640   -6.1360 c3        1 4S1      0.138400
     18 O18        -0.7670    1.5870   -6.5390 oh        1 4S1     -0.599800
     19 C19         4.1230    0.2020    2.4620 c3        1 4S1      0.211800
     20 C20         5.6380    0.2640    2.2620 c3        1 4S1     -0.096400
     21 C21         6.3350    0.1500    3.5930 c3        1 4S1     -0.092100
     22 S22        -2.9930    0.7140    2.4490 ss        1 4S1     -0.064100
     23 C23        -4.4940    0.2130    1.8590 ca        1 4S1     -0.092100
     24 C24        -4.3100   -0.5180    0.6360 ca        1 4S1      0.099400
     25 N25        -2.9750   -0.6560    0.2320 nd        1 4S1     -0.582100
     26 C26        -5.7770    0.4090    2.3710 ca        1 4S1     -0.085000
     27 C27        -6.8670   -0.1060    1.6870 ca        1 4S1     -0.127000
     28 C28        -6.6930   -0.8210    0.4900 ca        1 4S1     -0.127000
     29 C29        -5.4330   -1.0330   -0.0420 ca        1 4S1     -0.086000
     30 H1         -0.5860    0.1760    3.2390 h4        1 4S1      0.029100
     31 H2         -1.5140   -0.2360   -1.4060 hn        1 4S1      0.458800
     32 H3          3.8900    0.1240    0.3840 hn        1 4S1      0.440800
     33 H4          1.2750   -0.1720   -2.4820 h1        1 4S1      0.113700
     34 H5         -0.9300   -2.2760   -2.7470 h1        1 4S1      0.054700
     35 H6         -1.1930   -2.0470   -5.0520 h1        1 4S1      0.080700
     36 H7          0.9440    0.0900   -5.4320 hc        1 4S1      0.077700
     37 H8         -1.4030    0.8760   -3.6310 hc        1 4S1      0.062700
     38 H9          0.2580    1.5740   -3.7290 hc        1 4S1      0.062700
     39 H10         1.0180   -3.3790   -3.2510 ho        1 4S1      0.412000
     40 H11         1.6280   -2.1080   -5.1300 ho        1 4S1      0.414000
     41 H12        -0.9890   -0.4380   -7.0090 h1        1 4S1      0.027700
     42 H13        -2.1380    0.2240   -5.7480 h1        1 4S1      0.027700
     43 H14        -1.3740    1.8080   -7.2550 ho        1 4S1      0.402000
     44 H15         3.8060    1.0420    3.1460 h1        1 4S1      0.055200
     45 H16         3.8640   -0.7690    2.9780 h1        1 4S1      0.055200
     46 H17         5.9210    1.2310    1.7690 hc        1 4S1      0.047200
     47 H18         5.9730   -0.5680    1.5880 hc        1 4S1      0.047200
     48 H19         6.0820   -0.8170    4.0910 hc        1 4S1      0.038700
     49 H20         7.4420    0.1960    3.4510 hc        1 4S1      0.038700
     50 H21         6.0310    0.9840    4.2720 hc        1 4S1      0.038700
     51 H22        -5.9180    0.9670    3.3080 ha        1 4S1      0.139000
     52 H23        -7.8830    0.0450    2.0830 ha        1 4S1      0.135000
     53 H24        -7.5780   -1.2190   -0.0300 ha        1 4S1      0.135000
     54 H25        -5.2990   -1.5960   -0.9770 ha        1 4S1      0.146000
@<TRIPOS>BOND
     1    1    2 ar  
     2    1    6 ar  
     3    1    7 1   
     4    2    3 ar  
     5    3    4 ar  
     6    3    8 1   
     7    4    5 ar  
     8    5    6 ar  
     9    5   30 1   
    10    6    9 1   
    11    7   10 1   
    12    7   31 1   
    13    8   19 1   
    14    8   32 1   
    15    9   22 1   
    16    9   25 2   
    17   10   11 1   
    18   10   14 1   
    19   10   33 1   
    20   11   12 1   
    21   11   15 1   
    22   11   34 1   
    23   12   13 1   
    24   12   16 1   
    25   12   35 1   
    26   13   14 1   
    27   13   17 1   
    28   13   36 1   
    29   14   37 1   
    30   14   38 1   
    31   15   39 1   
    32   16   40 1   
    33   17   18 1   
    34   17   41 1   
    35   17   42 1   
    36   18   43 1   
    37   19   20 1   
    38   19   44 1   
    39   19   45 1   
    40   20   21 1   
    41   20   46 1   
    42   20   47 1   
    43   21   48 1   
    44   21   49 1   
    45   21   50 1   
    46   22   23 1   
    47   23   24 ar  
    48   23   26 ar  
    49   24   25 1   
    50   24   29 ar  
    51   26   27 ar  
    52   26   51 1   
    53   27   28 ar  
    54   27   52 1   
    55   28   29 ar  
    56   28   53 1   
    57   29   54 1   
@<TRIPOS>SUBSTRUCTURE
     1 4S1         1 TEMP              0 ****  ****    0 ROOT
