@<TRIPOS>MOLECULE
4S1
   54    57     1     0     0
SMALL
bcc


@<TRIPOS>ATOM
      1 C01         0.0710   -0.0310   -0.1390 ca        1 4S1      0.789200
      2 N02         1.4400    0.0330   -0.0620 nb        1 4S1     -0.832000
      3 C03         2.0100    0.1750    1.1870 ca        1 4S1      0.929900
      4 N04         1.2970    0.2220    2.3930 nb        1 4S1     -0.777000
      5 C05        -0.0270    0.1490    2.2800 ca        1 4S1      0.512200
      6 C06        -0.7340    0.0250    1.0610 ca        1 4S1     -0.504500
      7 N07        -0.5300   -0.0930   -1.3780 nh        1 4S1     -0.847900
      8 N08         3.3940    0.3290    1.2230 nh        1 4S1     -0.840900
      9 C09        -2.1710   -0.0470    1.1010 cc        1 4S1      0.489800
     10 C10         0.1620   -0.3240   -2.6190 c3        1 4S1      0.223500
     11 C11        -0.0320   -1.7660   -3.1820 c3        1 4S1      0.080100
     12 C12        -0.2040   -1.6370   -4.7130 c3        1 4S1      0.107100
     13 C13        -0.0990   -0.1420   -5.0520 c3        1 4S1     -0.097700
     14 C14        -0.3270    0.6110   -3.7490 c3        1 4S1     -0.083400
     15 O15         1.1460   -2.4890   -2.8750 oh        1 4S1     -0.591800
     16 O16         0.7530   -2.4200   -5.3970 oh        1 4S1     -0.596800
     17 C17        -1.0950    0.2430   -6.1350 c3        1 4S1      0.138400
     18 O18        -0.7840    1.5650   -6.5450 oh        1 4S1     -0.599800
     19 C19         4.1240    0.2040    2.4610 c3        1 4S1      0.211800
     20 C20         5.6390    0.2640    2.2600 c3        1 4S1     -0.096400
     21 C21         6.3370    0.1500    3.5910 c3        1 4S1     -0.092100
     22 S22        -2.9920    0.7260    2.4490 ss        1 4S1     -0.064100
     23 C23        -4.4930    0.2230    1.8600 ca        1 4S1     -0.092100
     24 C24        -4.3100   -0.5120    0.6410 ca        1 4S1      0.099400
     25 N25        -2.9750   -0.6520    0.2370 nd        1 4S1     -0.582100
     26 C26        -5.7760    0.4220    2.3730 ca        1 4S1     -0.085000
     27 C27        -6.8670   -0.0950    1.6900 ca        1 4S1     -0.127000
     28 C28        -6.6940   -0.8150    0.4970 ca        1 4S1     -0.127000
     29 C29        -5.4330   -1.0300   -0.0350 ca        1 4S1     -0.086000
     30 H1         -0.5850    0.1830    3.2400 h4        1 4S1      0.029100
     31 H2         -1.5150   -0.2330   -1.4040 hn        1 4S1      0.458800
     32 H3          3.8900    0.1240    0.3830 hn        1 4S1      0.440800
     33 H4          1.2730   -0.1660   -2.4820 h1        1 4S1      0.113700
     34 H5         -0.9240   -2.2810   -2.7350 h1        1 4S1      0.054700
     35 H6         -1.1920   -2.0640   -5.0400 h1        1 4S1      0.080700
     36 H7          0.9350    0.0800   -5.4340 hc        1 4S1      0.077700
     37 H8         -1.4110    0.8660   -3.6330 hc        1 4S1      0.062700
     38 H9          0.2460    1.5700   -3.7370 hc        1 4S1      0.062700
     39 H10         1.0290   -3.3780   -3.2370 ho        1 4S1      0.412000
     40 H11         1.6290   -2.1130   -5.1230 ho        1 4S1      0.414000
     41 H12        -0.9980   -0.4620   -7.0050 h1        1 4S1      0.027700
     42 H13        -2.1470    0.2010   -5.7450 h1        1 4S1      0.027700
     43 H14        -1.3930    1.7800   -7.2610 ho        1 4S1      0.402000
     44 H15         3.8080    1.0450    3.1440 h1        1 4S1      0.055200
     45 H16         3.8640   -0.7660    2.9780 h1        1 4S1      0.055200
     46 H17         5.9730   -0.5690    1.5870 hc        1 4S1      0.047200
     47 H18         5.9230    1.2300    1.7650 hc        1 4S1      0.047200
     48 H19         7.4430    0.1950    3.4480 hc        1 4S1      0.038700
     49 H20         6.0340    0.9850    4.2690 hc        1 4S1      0.038700
     50 H21         6.0830   -0.8160    4.0900 hc        1 4S1      0.038700
     51 H22        -5.9160    0.9840    3.3080 ha        1 4S1      0.139000
     52 H23        -7.8820    0.0580    2.0860 ha        1 4S1      0.135000
     53 H24        -7.5790   -1.2140   -0.0220 ha        1 4S1      0.135000
     54 H25        -5.3000   -1.5960   -0.9690 ha        1 4S1      0.146000
@<TRIPOS>BOND
     1    1    2 ar  
     2    1    6 ar  
     3    1    7 1   
     4    2    3 ar  
     5    3    4 ar  
     6    3    8 1   
     7    4    5 ar  
     8    5    6 ar  
     9    5   30 1   
    10    6    9 1   
    11    7   10 1   
    12    7   31 1   
    13    8   19 1   
    14    8   32 1   
    15    9   22 1   
    16    9   25 2   
    17   10   11 1   
    18   10   14 1   
    19   10   33 1   
    20   11   12 1   
    21   11   15 1   
    22   11   34 1   
    23   12   13 1   
    24   12   16 1   
    25   12   35 1   
    26   13   14 1   
    27   13   17 1   
    28   13   36 1   
    29   14   37 1   
    30   14   38 1   
    31   15   39 1   
    32   16   40 1   
    33   17   18 1   
    34   17   41 1   
    35   17   42 1   
    36   18   43 1   
    37   19   20 1   
    38   19   44 1   
    39   19   45 1   
    40   20   21 1   
    41   20   46 1   
    42   20   47 1   
    43   21   48 1   
    44   21   49 1   
    45   21   50 1   
    46   22   23 1   
    47   23   24 ar  
    48   23   26 ar  
    49   24   25 1   
    50   24   29 ar  
    51   26   27 ar  
    52   26   51 1   
    53   27   28 ar  
    54   27   52 1   
    55   28   29 ar  
    56   28   53 1   
    57   29   54 1   
@<TRIPOS>SUBSTRUCTURE
     1 4S1         1 TEMP              0 ****  ****    0 ROOT
