@<TRIPOS>MOLECULE
4S2
   55    59     1     0     0
SMALL
bcc


@<TRIPOS>ATOM
      1 C01        -0.0550    0.4720   -0.3280 cc        1 4S2      0.180600
      2 N02         1.3210    0.7010   -0.2440 nc        1 4S2     -0.570300
      3 C03         1.9290    0.4540    0.9080 cd        1 4S2      0.563800
      4 N04         1.2970   -0.0020    2.0610 n         1 4S2     -0.469400
      5 C05        -0.1040   -0.2070    2.0410 c         1 4S2      0.693700
      6 C06        -0.8260    0.0840    0.7670 cd        1 4S2     -0.072800
      7 N07        -0.6610    0.6740   -1.6560 n4        1 4S2     -0.618800
      8 N08         3.4120    0.6810    0.9410 n4        1 4S2     -0.681000
      9 O09        -0.6300   -0.6240    3.0770 o         1 4S2     -0.507500
     10 C10        -2.2550   -0.0500    0.7980 cd        1 4S2      0.214500
     11 C11         0.2770    0.8710   -2.8210 c3        1 4S2      0.108500
     12 C12         1.1650   -0.3840   -3.0990 c3        1 4S2      0.155100
     13 C13         0.9000   -0.7900   -4.5690 c3        1 4S2      0.123100
     14 C14        -0.4220   -0.1170   -4.9720 c3        1 4S2     -0.105700
     15 C15        -0.5290    1.1340   -4.1090 c3        1 4S2     -0.094400
     16 O16         2.5090   -0.1040   -2.8030 oh        1 4S2     -0.612800
     17 O17         1.9700   -0.2730   -5.3380 oh        1 4S2     -0.609800
     18 C18        -1.6130   -1.0520   -4.8050 c3        1 4S2      0.128400
     19 O19        -1.7190   -1.4170   -3.4320 oh        1 4S2     -0.671800
     20 C20         4.1500   -0.5990    0.9870 cx        1 4S2     -0.028500
     21 C21         5.5190   -0.6990    0.3350 cx        1 4S2     -0.086900
     22 C22         4.3580   -1.4200   -0.2720 cx        1 4S2     -0.086900
     23 S23        -3.1210   -0.6610    2.1530 ss        1 4S2      0.297900
     24 C24        -4.5750   -0.4350    1.3950 ca        1 4S2     -0.124100
     25 C25        -4.3650    0.1280    0.0770 ca        1 4S2      0.089400
     26 N26        -3.0470    0.3330   -0.2390 nc        1 4S2     -0.565100
     27 C27        -5.8830   -0.6930    1.8400 ca        1 4S2     -0.099000
     28 C28        -6.9490   -0.4020    1.0160 ca        1 4S2     -0.057000
     29 C29        -6.7500    0.1540   -0.2730 ca        1 4S2     -0.101000
     30 C30        -5.4890    0.4200   -0.7490 ca        1 4S2     -0.076000
     31 H1          1.7920   -0.2090    2.9070 hn        1 4S2      0.376500
     32 H3          3.6520    1.2490    1.7670 hn        1 4S2      0.486300
     33 H4          0.9350    1.7570   -2.5870 hx        1 4S2      0.118700
     34 H5          0.8830   -1.2430   -2.4260 h1        1 4S2      0.085700
     35 H6          0.8380   -1.9070   -4.6570 h1        1 4S2      0.082700
     36 H7         -0.3780    0.1760   -6.0580 hc        1 4S2      0.110700
     37 H8         -0.0500    1.9990   -4.6390 hc        1 4S2      0.090200
     38 H9         -1.6000    1.4030   -3.9230 hc        1 4S2      0.090200
     39 H10         2.9340    0.2790   -3.5880 ho        1 4S2      0.453000
     40 H11         2.0680   -0.8290   -6.1220 ho        1 4S2      0.447000
     41 H12        -1.4690   -1.9740   -5.4300 h1        1 4S2      0.061200
     42 H13        -2.5570   -0.5310   -5.1240 h1        1 4S2      0.061200
     43 H14        -2.4240   -2.0750   -3.3710 ho        1 4S2      0.441000
     44 H15         3.9680   -1.1160    1.9570 hx        1 4S2      0.145700
     45 H16         6.2980   -1.2630    0.8890 hc        1 4S2      0.125200
     46 H17         5.9510    0.1720   -0.1950 hc        1 4S2      0.125200
     47 H18         3.9420   -1.0650   -1.2390 hc        1 4S2      0.125200
     48 H19         4.2800   -2.5220   -0.1750 hc        1 4S2      0.125200
     49 H20        -6.0470   -1.1220    2.8420 ha        1 4S2      0.168000
     50 H21        -7.9810   -0.5980    1.3570 ha        1 4S2      0.172000
     51 H22        -7.6340    0.3750   -0.8950 ha        1 4S2      0.169000
     52 H23        -5.3340    0.8570   -1.7470 ha        1 4S2      0.157000
     53 H2         -1.2520   -0.1590   -1.8660 hn        1 4S2      0.490300
     54 H072       -1.2780    1.5000   -1.5960 hn        1 4S2      0.490300
     55 H082        3.6850    1.2040    0.0880 hn        1 4S2      0.486300
@<TRIPOS>BOND
     1    1    2 1   
     2    1    6 2   
     3    1    7 1   
     4    2    3 2   
     5    3    4 1   
     6    3    8 1   
     7    4    5 1   
     8    4   31 1   
     9    5    6 1   
    10    5    9 2   
    11    6   10 1   
    12    7   11 1   
    13    7   53 1   
    14    7   54 1   
    15    8   20 1   
    16    8   32 1   
    17    8   55 1   
    18   10   23 1   
    19   10   26 2   
    20   11   12 1   
    21   11   15 1   
    22   11   33 1   
    23   12   13 1   
    24   12   16 1   
    25   12   34 1   
    26   13   14 1   
    27   13   17 1   
    28   13   35 1   
    29   14   15 1   
    30   14   18 1   
    31   14   36 1   
    32   15   37 1   
    33   15   38 1   
    34   16   39 1   
    35   17   40 1   
    36   18   19 1   
    37   18   41 1   
    38   18   42 1   
    39   19   43 1   
    40   20   21 1   
    41   20   22 1   
    42   20   44 1   
    43   21   22 1   
    44   21   45 1   
    45   21   46 1   
    46   22   47 1   
    47   22   48 1   
    48   23   24 1   
    49   24   25 ar  
    50   24   27 ar  
    51   25   26 1   
    52   25   30 ar  
    53   27   28 ar  
    54   27   49 1   
    55   28   29 ar  
    56   28   50 1   
    57   29   30 ar  
    58   29   51 1   
    59   30   52 1   
@<TRIPOS>SUBSTRUCTURE
     1 4S2         1 TEMP              0 ****  ****    0 ROOT
