@<TRIPOS>MOLECULE
4S2
   55    59     1     0     0
SMALL
bcc


@<TRIPOS>ATOM
      1 C01         0.3100    0.7200   -0.5360 cc        1 4S2      0.197600
      2 N02         1.6930    0.9510   -0.5430 nc        1 4S2     -0.583300
      3 C03         2.4090    0.4270    0.4440 cd        1 4S2      0.568800
      4 N04         1.8920   -0.3020    1.5090 ns        1 4S2     -0.464400
      5 C05         0.4950   -0.5310    1.5800 c         1 4S2      0.695700
      6 C06        -0.3400    0.0150    0.4730 cd        1 4S2     -0.072800
      7 N07        -0.4130    1.2890   -1.6880 ny        1 4S2     -0.642800
      8 N08         3.8910    0.6710    0.4040 ny        1 4S2     -0.684000
      9 O09         0.0740   -1.1680    2.5480 o         1 4S2     -0.507500
     10 C10        -1.7540   -0.2440    0.5400 cd        1 4S2      0.216500
     11 C11         0.1120    0.8420   -3.0260 c3        1 4S2      0.096500
     12 C12         0.2340   -0.7100   -3.1390 c3        1 4S2      0.144100
     13 C13        -0.3590   -1.0700   -4.5220 c3        1 4S2      0.123100
     14 C14        -1.3680    0.0470   -4.8350 c3        1 4S2     -0.138700
     15 C15        -0.8170    1.3020   -4.1640 c3        1 4S2     -0.099400
     16 O16         1.5690   -1.0940   -2.9370 oh        1 4S2     -0.606800
     17 O17         0.7170   -1.0560   -5.4410 oh        1 4S2     -0.608800
     18 C18        -2.7520   -0.3400   -4.3110 c3        1 4S2      0.123400
     19 O19        -3.5790    0.7880   -4.1190 oh        1 4S2     -0.608800
     20 C20         4.6640   -0.5410    0.7430 cx        1 4S2     -0.033500
     21 C21         5.0870   -0.8310    2.1710 cx        1 4S2     -0.093400
     22 C22         6.1170   -0.4150    1.1680 cx        1 4S2     -0.093400
     23 S23        -2.5610   -0.9890    1.8570 ss        1 4S2      0.312900
     24 C24        -4.0320   -0.8610    1.1030 ca        1 4S2     -0.127100
     25 C25        -3.8730   -0.2360   -0.1940 ca        1 4S2      0.102400
     26 N26        -2.5800    0.1050   -0.4820 nc        1 4S2     -0.589100
     27 C27        -5.3130   -1.2510    1.5280 ca        1 4S2     -0.098000
     28 C28        -6.3960   -1.0350    0.7010 ca        1 4S2     -0.057000
     29 C29        -6.2410   -0.4310   -0.5730 ca        1 4S2     -0.100000
     30 C30        -5.0080   -0.0340   -1.0310 ca        1 4S2     -0.079000
     31 H1          2.4800   -0.7220    2.2060 hn        1 4S2      0.377500
     32 H3          4.1570    0.9710   -0.5510 hn        1 4S2      0.486300
     33 H4          1.1390    1.2950   -3.1530 hx        1 4S2      0.117700
     34 H5         -0.3580   -1.2320   -2.3360 h1        1 4S2      0.085700
     35 H6         -0.8470   -2.0810   -4.4910 h1        1 4S2      0.082700
     36 H7         -1.4240    0.2140   -5.9440 hc        1 4S2      0.099700
     37 H8         -1.6560    1.9650   -3.8250 hc        1 4S2      0.095200
     38 H9         -0.2020    1.8850   -4.8990 hc        1 4S2      0.095200
     39 H10         2.0160   -1.1490   -3.7970 ho        1 4S2      0.454000
     40 H11         0.4590   -1.5850   -6.2070 ho        1 4S2      0.447000
     41 H12        -2.6690   -0.8010   -3.2880 h1        1 4S2      0.060200
     42 H13        -3.2280   -1.0770   -5.0110 h1        1 4S2      0.060200
     43 H14        -3.9020    1.0720   -4.9840 ho        1 4S2      0.426000
     44 H15         4.3630   -1.3840    0.0760 hx        1 4S2      0.163700
     45 H16         5.0430   -1.8870    2.5100 hc        1 4S2      0.124700
     46 H17         4.8250   -0.1300    2.9870 hc        1 4S2      0.124700
     47 H18         6.8270   -1.1630    0.7570 hc        1 4S2      0.124700
     48 H19         6.5900    0.5820    1.2620 hc        1 4S2      0.124700
     49 H20        -5.4460   -1.7240    2.5150 ha        1 4S2      0.168000
     50 H21        -7.4080   -1.3350    1.0270 ha        1 4S2      0.172000
     51 H22        -7.1370   -0.2820   -1.1990 ha        1 4S2      0.170000
     52 H23        -4.8750    0.4280   -2.0250 ha        1 4S2      0.176000
     53 H2         -1.4290    1.0040   -1.6200 hn        1 4S2      0.492300
     54 H072       -0.3580    2.3140   -1.6410 hn        1 4S2      0.492300
     55 H082        4.1080    1.4350    1.0630 hn        1 4S2      0.486300
@<TRIPOS>BOND
     1    1    2 1   
     2    1    6 2   
     3    1    7 1   
     4    2    3 2   
     5    3    4 1   
     6    3    8 1   
     7    4    5 1   
     8    4   31 1   
     9    5    6 1   
    10    5    9 2   
    11    6   10 1   
    12    7   11 1   
    13    7   53 1   
    14    7   54 1   
    15    8   20 1   
    16    8   32 1   
    17    8   55 1   
    18   10   23 1   
    19   10   26 2   
    20   11   12 1   
    21   11   15 1   
    22   11   33 1   
    23   12   13 1   
    24   12   16 1   
    25   12   34 1   
    26   13   14 1   
    27   13   17 1   
    28   13   35 1   
    29   14   15 1   
    30   14   18 1   
    31   14   36 1   
    32   15   37 1   
    33   15   38 1   
    34   16   39 1   
    35   17   40 1   
    36   18   19 1   
    37   18   41 1   
    38   18   42 1   
    39   19   43 1   
    40   20   21 1   
    41   20   22 1   
    42   20   44 1   
    43   21   22 1   
    44   21   45 1   
    45   21   46 1   
    46   22   47 1   
    47   22   48 1   
    48   23   24 1   
    49   24   25 ar  
    50   24   27 ar  
    51   25   26 1   
    52   25   30 ar  
    53   27   28 ar  
    54   27   49 1   
    55   28   29 ar  
    56   28   50 1   
    57   29   30 ar  
    58   29   51 1   
    59   30   52 1   
@<TRIPOS>SUBSTRUCTURE
     1 4S2         1 TEMP              0 ****  ****    0 ROOT
