@<TRIPOS>MOLECULE
4S3
   54    58     1     0     0
SMALL
bcc


@<TRIPOS>ATOM
      1 C01        -0.1460    0.1870   -0.0530 cc        1 4S3      0.312600
      2 N02         1.2210    0.3040   -0.0770 nc        1 4S3     -0.728300
      3 C03         1.8990    0.3060    1.1150 cd        1 4S3      0.749800
      4 N04         1.2210    0.1170    2.3270 ns        1 4S3     -0.483400
      5 C05        -0.1830   -0.0040    2.3760 c         1 4S3      0.712700
      6 C06        -0.9170    0.0480    1.0990 cd        1 4S3     -0.274800
      7 N07        -0.8250    0.2280   -1.3730 ny        1 4S3     -0.633800
      8 N08         3.2740    0.5580    1.1090 nh        1 4S3     -0.690600
      9 O09        -0.7060   -0.1530    3.4920 o         1 4S3     -0.574500
     10 C10        -2.3600   -0.0430    1.1720 cd        1 4S3      0.332500
     11 C11         0.0300    0.2050   -2.6130 c3        1 4S3      0.127500
     12 C12         0.5670   -1.2250   -2.8980 c3        1 4S3      0.161800
     13 N13         1.3870   -1.2200   -4.0880 n7        1 4S3     -0.822200
     14 C14         0.7030   -0.7300   -5.2690 c3        1 4S3      0.150800
     15 C15         0.0880    0.6520   -5.0570 c3        1 4S3     -0.077400
     16 C16        -0.7900    0.6830   -3.8210 c3        1 4S3     -0.106400
     17 C17         4.0440    0.2990    2.3170 c3        1 4S3      0.159800
     18 C18         5.5180    0.7280    2.2270 c3        1 4S3      0.116400
     19 O19         6.1110    0.3290    1.0030 os        1 4S3     -0.385600
     20 C20         5.4410    0.9140   -0.1030 c3        1 4S3      0.116400
     21 C21         3.9740    0.4690   -0.1690 c3        1 4S3      0.159800
     22 S22        -3.1760   -0.2660    2.6710 ss        1 4S3      0.215900
     23 C23        -4.6660   -0.2530    1.9110 ca        1 4S3     -0.143100
     24 C24        -4.4930   -0.0710    0.4950 ca        1 4S3      0.093400
     25 N25        -3.1680    0.0470    0.1000 nc        1 4S3     -0.627100
     26 C26        -5.9570   -0.3860    2.4430 ca        1 4S3     -0.082000
     27 C27        -7.0470   -0.3380    1.5960 ca        1 4S3     -0.101000
     28 C28        -6.8800   -0.1590    0.2060 ca        1 4S3     -0.110000
     29 C29        -5.6260   -0.0250   -0.3530 ca        1 4S3     -0.086000
     30 H1          1.7080    0.0880    3.2020 hn        1 4S3      0.362500
     31 H2         -1.4710   -0.5780   -1.4080 hn        1 4S3      0.475300
     32 H3          0.8990    0.9110   -2.4600 hx        1 4S3      0.136700
     33 H4          1.2120   -1.5690   -2.0420 h1        1 4S3      0.049200
     34 H5         -0.3190   -1.9250   -2.9790 h1        1 4S3      0.049200
     35 H6          1.7750   -2.1310   -4.2470 hn        1 4S3      0.395800
     36 H8          1.4690   -0.6670   -6.0940 h1        1 4S3      0.053700
     37 H9         -0.1120   -1.4350   -5.6090 h1        1 4S3      0.053700
     38 H10         0.8990    1.4210   -4.9660 hc        1 4S3      0.072700
     39 H11        -0.5310    0.9120   -5.9550 hc        1 4S3      0.072700
     40 H12        -1.1610    1.7290   -3.6560 hc        1 4S3      0.063700
     41 H13        -1.6800    0.0180   -3.9750 hc        1 4S3      0.063700
     42 H14         4.0040   -0.8010    2.5640 h1        1 4S3      0.069700
     43 H15         3.6010    0.8850    3.1740 h1        1 4S3      0.069700
     44 H16         5.6090    1.8390    2.3560 h1        1 4S3      0.077950
     45 H17         6.1090    0.1960    3.0200 h1        1 4S3      0.077950
     46 H18         5.9880    0.5280   -1.0050 h1        1 4S3      0.077950
     47 H19         5.5160    2.0320   -0.0530 h1        1 4S3      0.077950
     48 H20         3.4540    1.1310   -0.9190 h1        1 4S3      0.069700
     49 H21         3.9330   -0.5960   -0.5400 h1        1 4S3      0.069700
     50 H22        -6.0930   -0.5250    3.5260 ha        1 4S3      0.153000
     51 H23        -8.0660   -0.4410    2.0030 ha        1 4S3      0.153000
     52 H24        -7.7740   -0.1260   -0.4380 ha        1 4S3      0.150000
     53 H25        -5.4980    0.1160   -1.4360 ha        1 4S3      0.146000
     54 H072       -1.3910    1.0910   -1.3870 hn        1 4S3      0.475300
@<TRIPOS>BOND
     1    1    2 1   
     2    1    6 2   
     3    1    7 1   
     4    2    3 2   
     5    3    4 1   
     6    3    8 1   
     7    4    5 1   
     8    4   30 1   
     9    5    6 1   
    10    5    9 2   
    11    6   10 1   
    12    7   11 1   
    13    7   31 1   
    14    7   54 1   
    15    8   17 1   
    16    8   21 1   
    17   10   22 1   
    18   10   25 2   
    19   11   12 1   
    20   11   16 1   
    21   11   32 1   
    22   12   13 1   
    23   12   33 1   
    24   12   34 1   
    25   13   14 1   
    26   13   35 1   
    27   14   15 1   
    28   14   36 1   
    29   14   37 1   
    30   15   16 1   
    31   15   38 1   
    32   15   39 1   
    33   16   40 1   
    34   16   41 1   
    35   17   18 1   
    36   17   42 1   
    37   17   43 1   
    38   18   19 1   
    39   18   44 1   
    40   18   45 1   
    41   19   20 1   
    42   20   21 1   
    43   20   46 1   
    44   20   47 1   
    45   21   48 1   
    46   21   49 1   
    47   22   23 1   
    48   23   24 ar  
    49   23   26 ar  
    50   24   25 1   
    51   24   29 ar  
    52   26   27 ar  
    53   26   50 1   
    54   27   28 ar  
    55   27   51 1   
    56   28   29 ar  
    57   28   52 1   
    58   29   53 1   
@<TRIPOS>SUBSTRUCTURE
     1 4S3         1 TEMP              0 ****  ****    0 ROOT
