@<TRIPOS>MOLECULE
4S4
   34    35     1     0     0
SMALL
bcc


@<TRIPOS>ATOM
      1 C2         -0.0710   -0.4070    0.1100 c         1 4S4      0.712700
      2 C4         -2.4090   -0.0120   -0.6770 ca        1 4S4      0.136600
      3 C5         -3.0550   -0.8500    0.2640 ca        1 4S4     -0.193500
      4 C6         -4.4380   -0.9240    0.2980 ca        1 4S4     -0.032500
      5 C7         -5.2290   -0.1770   -0.5960 ca        1 4S4     -0.234600
      6 C8         -4.5980    0.6590   -1.5310 ca        1 4S4     -0.032500
      7 C17         1.3450   -0.2380   -0.2760 cc        1 4S4     -0.196900
      8 C18         2.4200   -0.0560    0.6150 cd        1 4S4     -0.072000
      9 C19         3.6080    0.0460   -0.1760 cd        1 4S4     -0.092900
     10 C21         3.2190   -0.0900   -1.5310 cc        1 4S4     -0.021200
     11 O1         -0.3780   -0.9460    1.1850 o         1 4S4     -0.548100
     12 N3         -1.0210    0.0810   -0.7950 ns        1 4S4     -0.475100
     13 C9         -3.2150    0.7430   -1.5710 ca        1 4S4     -0.193500
     14 C10        -6.6760   -0.3230   -0.4770 c         1 4S4      0.574700
     15 O11        -7.2780   -0.9900    0.3670 o         1 4S4     -0.496100
     16 N12        -7.5530    0.4030   -1.4430 ny        1 4S4     -0.657800
     17 C13        -7.5180   -0.1640   -2.8210 c3        1 4S4     -0.073200
     18 C14        -7.1710    0.9660   -3.8780 c         1 4S4      0.923600
     19 O15        -7.2800    0.6360   -5.0690 o         1 4S4     -0.764300
     20 O16        -6.8070    2.0700   -3.3780 o         1 4S4     -0.764300
     21 Br1         5.3130    0.3020    0.4320 br        1 4S4     -0.012100
     22 Br2         4.2920   -0.0650   -3.0290 br        1 4S4      0.008900
     23 N23         1.8410   -0.2430   -1.5830 na        1 4S4     -0.140100
     24 H1         -2.4680   -1.4480    0.9830 ha        1 4S4      0.169500
     25 H2         -4.9300   -1.5800    1.0370 ha        1 4S4      0.181500
     26 H3         -5.1740    1.2670   -2.2620 ha        1 4S4      0.181500
     27 H4          2.3470   -0.0080    1.7000 ha        1 4S4      0.186000
     28 H5         -0.6970    0.6990   -1.5090 hn        1 4S4      0.325500
     29 H6         -2.7520    1.4090   -2.3170 ha        1 4S4      0.169500
     30 H7         -7.2290    1.3980   -1.5420 hn        1 4S4      0.465300
     31 H8         -8.5170   -0.6050   -3.0680 hx        1 4S4      0.092200
     32 H9         -6.7280   -0.9550   -2.8890 hx        1 4S4      0.092200
     33 H11         1.3210   -0.4580   -2.3970 hn        1 4S4      0.313700
     34 H122       -8.5140    0.4030   -1.0920 hn        1 4S4      0.465300
@<TRIPOS>BOND
     1    1    7 1   
     2    1   11 2   
     3    1   12 1   
     4    2    3 ar  
     5    2   12 1   
     6    2   13 ar  
     7    3    4 ar  
     8    3   24 1   
     9    4    5 ar  
    10    4   25 1   
    11    5    6 ar  
    12    5   14 1   
    13    6   13 ar  
    14    6   26 1   
    15    7    8 2   
    16    7   23 1   
    17    8    9 1   
    18    8   27 1   
    19    9   10 2   
    20    9   21 1   
    21   10   22 1   
    22   10   23 1   
    23   12   28 1   
    24   13   29 1   
    25   14   15 2   
    26   14   16 1   
    27   16   17 1   
    28   16   30 1   
    29   16   34 1   
    30   17   18 1   
    31   17   31 1   
    32   17   32 1   
    33   18   19 1   
    34   18   20 1   
    35   23   33 1   
@<TRIPOS>SUBSTRUCTURE
     1 4S4         1 TEMP              0 ****  ****    0 ROOT
