@<TRIPOS>MOLECULE
4S4
   34    35     1     0     0
SMALL
bcc


@<TRIPOS>ATOM
      1 C2         -0.0760   -0.3120    0.1480 c         1 4S4      0.712700
      2 C4         -2.4100    0.0260   -0.6760 ca        1 4S4      0.136600
      3 C5         -3.0630   -0.7210    0.3340 ca        1 4S4     -0.193500
      4 C6         -4.4460   -0.7840    0.3710 ca        1 4S4     -0.032500
      5 C7         -5.2310   -0.1140   -0.5870 ca        1 4S4     -0.234600
      6 C8         -4.5930    0.6330   -1.5900 ca        1 4S4     -0.032500
      7 C17         1.3410   -0.1870   -0.2480 cc        1 4S4     -0.196900
      8 C18         2.4160    0.0650    0.6260 cd        1 4S4     -0.072000
      9 C19         3.6060    0.0900   -0.1680 cd        1 4S4     -0.092900
     10 C21         3.2190   -0.1610   -1.5070 cc        1 4S4     -0.021200
     11 O1         -0.3890   -0.7520    1.2650 o         1 4S4     -0.548100
     12 N3         -1.0220    0.1010   -0.7980 n         1 4S4     -0.475100
     13 C9         -3.2100    0.7050   -1.6340 ca        1 4S4     -0.193500
     14 C10        -6.6800   -0.2400   -0.4590 c         1 4S4      0.574700
     15 O11        -7.2870   -0.8270    0.4390 o         1 4S4     -0.496100
     16 N12        -7.5510    0.4030   -1.4880 n4        1 4S4     -0.657800
     17 C13        -7.5160   -0.2840   -2.8100 c3        1 4S4     -0.073200
     18 C14        -7.1600    0.7470   -3.9610 c         1 4S4      0.923600
     19 O15        -7.2680    0.3130   -5.1190 o         1 4S4     -0.764300
     20 O16        -6.7910    1.8880   -3.5600 o         1 4S4     -0.764300
     21 BR1         5.3120    0.3870    0.4190 br        1 4S4     -0.012100
     22 BR2         4.2940   -0.2730   -2.9990 br        1 4S4      0.008900
     23 N23         1.8400   -0.3080   -1.5490 na        1 4S4     -0.140100
     24 H1         -2.4810   -1.2580    1.1040 ha        1 4S4      0.169500
     25 H2         -4.9440   -1.3690    1.1640 ha        1 4S4      0.181500
     26 H3         -5.1650    1.1780   -2.3730 ha        1 4S4      0.181500
     27 H4          2.3420    0.2080    1.7030 ha        1 4S4      0.186000
     28 H5         -0.6920    0.6510   -1.5630 hn        1 4S4      0.325500
     29 H6         -2.7420    1.3000   -2.4350 ha        1 4S4      0.169500
     30 H7         -8.5120    0.4390   -1.1400 hn        1 4S4      0.465300
     31 H8         -8.5170   -0.7400   -3.0200 hx        1 4S4      0.092200
     32 H9         -6.7300   -1.0820   -2.8060 hx        1 4S4      0.092200
     33 H11         1.3190   -0.5900   -2.3420 hn        1 4S4      0.313700
     34 H122       -7.2200    1.3830   -1.6730 hn        1 4S4      0.465300
@<TRIPOS>BOND
     1    1    7 1   
     2    1   11 2   
     3    1   12 1   
     4    2    3 ar  
     5    2   12 1   
     6    2   13 ar  
     7    3    4 ar  
     8    3   24 1   
     9    4    5 ar  
    10    4   25 1   
    11    5    6 ar  
    12    5   14 1   
    13    6   13 ar  
    14    6   26 1   
    15    7    8 2   
    16    7   23 1   
    17    8    9 1   
    18    8   27 1   
    19    9   10 2   
    20    9   21 1   
    21   10   22 1   
    22   10   23 1   
    23   12   28 1   
    24   13   29 1   
    25   14   15 2   
    26   14   16 1   
    27   16   17 1   
    28   16   30 1   
    29   16   34 1   
    30   17   18 1   
    31   17   31 1   
    32   17   32 1   
    33   18   19 1   
    34   18   20 1   
    35   23   33 1   
@<TRIPOS>SUBSTRUCTURE
     1 4S4         1 TEMP              0 ****  ****    0 ROOT
