@<TRIPOS>MOLECULE
4SB
   41    42     1     0     0
SMALL
bcc


@<TRIPOS>ATOM
      1 C           6.1510    1.6140   -1.4580 c3        1 4SB      0.158800
      2 N           7.0460    1.6030   -2.5900 n3        1 4SB     -0.913800
      3 O          -6.2840    0.7620    0.6150 oh        1 4SB     -0.489100
      4 BR         -4.9320    1.2420   -2.2540 br        1 4SB     -0.081100
      5 C01        -2.1210    0.8930    0.7750 ca        1 4SB     -0.156900
      6 N01         0.1370    1.0990   -0.0850 n2        1 4SB     -0.421300
      7 C02        -0.6660    0.9230    0.9330 ce        1 4SB      0.362800
      8 N02         1.4560    1.1520    0.0870 n         1 4SB     -0.335900
      9 C03         2.3620    1.1940   -0.9970 c         1 4SB      0.681100
     10 C04         3.8360    1.2340   -0.5770 c3        1 4SB     -0.089400
     11 C05         4.1580    0.1060    0.3510 ca        1 4SB     -0.103300
     12 C06        -2.9050    0.6920    1.9260 ca        1 4SB     -0.074000
     13 C07        -4.2870    0.6530    1.8410 ca        1 4SB     -0.164000
     14 C08        -4.9150    0.8170    0.5910 ca        1 4SB      0.164100
     15 C09        -4.1440    1.0190   -0.5670 ca        1 4SB     -0.121900
     16 C10        -2.7490    1.0550   -0.4630 ca        1 4SB     -0.032000
     17 C11         3.9080   -1.2190   -0.0270 ca        1 4SB     -0.124500
     18 C12         4.2200   -2.2660    0.8380 ca        1 4SB     -0.128000
     19 C13         4.7860   -2.0000    2.0850 ca        1 4SB     -0.124000
     20 C14         5.0390   -0.6820    2.4660 ca        1 4SB     -0.128000
     21 C15         4.7260    0.3680    1.6030 ca        1 4SB     -0.124500
     22 C16         4.7200    1.2160   -1.8190 c3        1 4SB     -0.074400
     23 H           6.4990    0.9380   -0.6200 h1        1 4SB      0.026200
     24 HA          6.1450    2.6660   -1.0520 h1        1 4SB      0.026200
     25 HN          7.9920    1.7050   -2.2840 hn        1 4SB      0.350300
     26 HNA         6.9580    0.7550   -3.1150 hn        1 4SB      0.350300
     27 HO         -6.6160    0.8860   -0.2900 ho        1 4SB      0.433000
     28 H02        -0.3220    0.7880    1.9820 h4        1 4SB     -0.012200
     29 HN02        1.8550    0.9790    0.9930 hn        1 4SB      0.299500
     30 H04         3.9970    2.2180   -0.0450 hc        1 4SB      0.080700
     31 H06        -2.4190    0.5640    2.9060 ha        1 4SB      0.137000
     32 H07        -4.9110    0.4970    2.7330 ha        1 4SB      0.157000
     33 H10        -2.1420    1.2140   -1.3720 ha        1 4SB      0.174000
     34 H11         3.4610   -1.4300   -1.0110 ha        1 4SB      0.139500
     35 H12         4.0190   -3.3050    0.5350 ha        1 4SB      0.137500
     36 H13         5.0330   -2.8270    2.7670 ha        1 4SB      0.136000
     37 H14         5.4880   -0.4690    3.4470 ha        1 4SB      0.137500
     38 H15         4.9350    1.4050    1.9070 ha        1 4SB      0.139500
     39 H16         4.3020    1.9290   -2.5790 hc        1 4SB      0.070200
     40 H16A        4.6970    0.1920   -2.2750 hc        1 4SB      0.070200
     41 O01         2.0050    1.2410   -2.1800 o         1 4SB     -0.535100
@<TRIPOS>BOND
     1    1    2 1   
     2    1   22 1   
     3    1   23 1   
     4    1   24 1   
     5    2   25 1   
     6    2   26 1   
     7    3   14 1   
     8    3   27 1   
     9    4   15 1   
    10    5    7 1   
    11    5   12 ar  
    12    5   16 ar  
    13    6    7 2   
    14    6    8 1   
    15    7   28 1   
    16    8    9 1   
    17    8   29 1   
    18    9   10 1   
    19    9   41 2   
    20   10   11 1   
    21   10   22 1   
    22   10   30 1   
    23   11   17 ar  
    24   11   21 ar  
    25   12   13 ar  
    26   12   31 1   
    27   13   14 ar  
    28   13   32 1   
    29   14   15 ar  
    30   15   16 ar  
    31   16   33 1   
    32   17   18 ar  
    33   17   34 1   
    34   18   19 ar  
    35   18   35 1   
    36   19   20 ar  
    37   19   36 1   
    38   20   21 ar  
    39   20   37 1   
    40   21   38 1   
    41   22   39 1   
    42   22   40 1   
@<TRIPOS>SUBSTRUCTURE
     1 4SB         1 TEMP              0 ****  ****    0 ROOT
