@<TRIPOS>MOLECULE
4SB
   41    37     1     0     0
SMALL
bcc


@<TRIPOS>ATOM
      1 C           2.9130   -0.0580   -2.0880 c3        1 4SB     -0.080000
      2 N           4.3340   -0.1250   -1.9570 n3        1 4SB     -0.345000
      3 O          -2.6000   -5.1680    4.8580 oh        1 4SB     -0.240000
      4 BR         -2.7770   -2.4200    6.2550 br        1 4SB      0.064000
      5 C01        -1.2230   -2.0970    2.3930 c1        1 4SB     -0.120000
      6 N01        -1.6400   -0.2040    0.9130 n1        1 4SB     -0.020000
      7 O01         0.3700    2.0110    0.8270 o         1 4SB     -0.342000
      8 C02        -2.1320   -1.0830    1.7330 c2        1 4SB     -0.132000
      9 N02        -0.2700   -0.1900    0.6380 n2        1 4SB     -0.321000
     10 C03         0.3460    1.0130    0.1390 c2        1 4SB      0.336000
     11 C04         0.8380    1.0700   -1.2660 c3        1 4SB     -0.062000
     12 C05         0.3090    2.3080   -1.9260 c2        1 4SB     -0.083000
     13 C06        -1.2200   -3.3930    1.9380 c1        1 4SB     -0.063000
     14 C07        -1.6760   -4.4240    2.7630 c1        1 4SB     -0.159000
     15 C08        -2.1310   -4.1390    4.0390 c2        1 4SB      0.123000
     16 C09        -2.1340   -2.8200    4.4990 c2        1 4SB     -0.258000
     17 C10        -1.6850   -1.8090    3.6880 c1        1 4SB     -0.059000
     18 C11         0.7090    3.6050   -1.6600 c2        1 4SB     -0.118000
     19 C12         0.2010    4.6500   -2.4070 c1        1 4SB     -0.130000
     20 C13        -0.7190    4.3970   -3.4330 c1        1 4SB     -0.129000
     21 C14        -1.1200    3.1010   -3.6990 c1        1 4SB     -0.129000
     22 C15        -0.6120    2.0550   -2.9520 c1        1 4SB     -0.114000
     23 C16         2.3820    1.1020   -1.2650 c3        1 4SB     -0.158000
     24 H           2.5070   -0.9160   -1.7600 h1        1 4SB      0.066000
     25 HA          2.6800    0.0740   -3.0210 h1        1 4SB      0.066000
     26 HN          4.7240   -0.0540   -2.7930 hn        1 4SB      0.144500
     27 HNA         4.5670   -0.9210   -1.5800 hn        1 4SB      0.144500
     28 HO         -1.9470   -5.4500    5.3800 ho        1 4SB      0.234000
     29 H02        -3.1060   -1.0900    1.9260 h4        1 4SB      0.169000
     30 HN02        0.2010   -0.9390    0.6930 hn        1 4SB      0.228000
     31 H04         0.5230    0.2740   -1.7610 hc        1 4SB      0.128000
     32 H06        -0.8920   -3.5970    1.0200 ha        1 4SB      0.144000
     33 H07        -1.6750   -5.3770    2.4280 ha        1 4SB      0.160000
     34 H10        -1.5930   -0.9080    4.0440 ha        1 4SB      0.156000
     35 H11         1.3800    3.7910   -0.9130 ha        1 4SB      0.152000
     36 H12         0.4800    5.5500   -2.2230 ha        1 4SB      0.135000
     37 H13        -1.0750    5.1290   -3.9560 ha        1 4SB      0.132000
     38 H14        -1.7640    2.9250   -4.4180 ha        1 4SB      0.132000
     39 H15        -0.8870    1.1640   -3.1330 ha        1 4SB      0.134000
     40 H16         2.7200    1.0220   -0.3110 hc        1 4SB      0.107000
     41 H16A        2.6930    1.9430   -1.6500 hc        1 4SB      0.107000
@<TRIPOS>BOND
     1    1    2 1   
     2    1   23 1   
     3    1   24 1   
     4    1   25 1   
     5    2   26 1   
     6    2   27 1   
     7    3   15 1   
     8    3   28 1   
     9    4   16 1   
    10    5    8 1   
    11    5   13 1   
    12    6    8 1   
    13    7   10 1   
    14    8   29 1   
    15    9   10 1   
    16    9   30 1   
    17   10   11 1   
    18   11   12 1   
    19   11   23 1   
    20   11   31 1   
    21   12   18 1   
    22   12   22 1   
    23   13   32 1   
    24   14   15 1   
    25   14   33 1   
    26   15   16 1   
    27   16   17 1   
    28   17   34 1   
    29   18   19 1   
    30   18   35 1   
    31   19   36 1   
    32   20   21 1   
    33   20   37 1   
    34   21   38 1   
    35   22   39 1   
    36   23   40 1   
    37   23   41 1   
@<TRIPOS>SUBSTRUCTURE
     1 4SB         1 TEMP              0 ****  ****    0 ROOT
