@<TRIPOS>MOLECULE
4SB
   43    44     1     0     0
SMALL
bcc


@<TRIPOS>ATOM
      1 C           0.2510    0.2120    0.6410 c3        1 4SB     -0.060000
      2 N           1.6530    0.3660    0.8550 n8        1 4SB     -0.346000
      3 O          -4.2650   -3.8310   10.3440 oh        1 4SB     -0.127000
      4 Br         -4.2710   -0.6850    9.8440 br        1 4SB      0.183000
      5 C01        -4.6800   -2.9100    6.2690 c3        1 4SB     -0.090000
      6 N01        -3.7490   -1.5430    4.4810 n2        1 4SB      0.015000
      7 C02        -3.8020   -2.7140    5.0540 c2        1 4SB     -0.174000
      8 N02        -3.0310   -1.3260    3.3840 ns        1 4SB     -0.300000
      9 C03        -2.9480   -0.0440    2.7990 c2        1 4SB      0.339000
     10 C04        -2.1140    0.0240    1.5080 c3        1 4SB     -0.124000
     11 C05        -2.6090    1.1270    0.6230 c2        1 4SB      0.101000
     12 C06        -4.5400   -4.2870    6.8050 c2        1 4SB      0.015000
     13 C07        -4.4250   -4.5430    8.1280 c2        1 4SB     -0.208000
     14 C08        -4.3640   -3.4610    9.0780 c2        1 4SB      0.347000
     15 C09        -4.3990   -2.0940    8.6210 c2        1 4SB     -0.350000
     16 C10        -4.5180   -1.8410    7.2850 c2        1 4SB      0.079000
     17 C11        -2.4860    2.5240    1.0700 c3        1 4SB     -0.233000
     18 C12        -2.9650    3.5440    0.1380 c2        1 4SB      0.059000
     19 C13        -3.5250    3.2120   -1.0740 c2        1 4SB     -0.203000
     20 C14        -3.6340    1.8630   -1.4500 c2        1 4SB      0.133000
     21 C15        -3.1780    0.8360   -0.5990 c2        1 4SB     -0.207000
     22 C16        -0.6460    0.1930    1.8900 c3        1 4SB     -0.220000
     23 H          -0.5110    1.1350    2.4830 hc        1 4SB      0.105500
     24 HA         -0.0920    1.0630   -0.0150 h1        1 4SB      0.091000
     25 HN          0.0860   -0.7480    0.0720 h1        1 4SB      0.091000
     26 HNA         1.8870    1.1950    1.3580 hn        1 4SB      0.171000
     27 HO         -4.2230   -3.0610   10.9610 ho        1 4SB      0.304000
     28 H02        -5.7720   -2.8250    5.9130 hc        1 4SB      0.216000
     29 HN02       -3.2740   -3.6290    4.7160 h4        1 4SB      0.157000
     30 H04        -2.2150   -0.9490    0.9380 hc        1 4SB      0.142000
     31 H06        -4.5710   -5.1150    6.0700 ha        1 4SB      0.193000
     32 H07        -4.3680   -5.5750    8.5280 ha        1 4SB      0.217000
     33 H10        -4.5360   -0.7960    6.9060 ha        1 4SB      0.211000
     34 H11        -3.0590    2.6380    2.0630 hc        1 4SB      0.238000
     35 H12        -1.4090    2.7510    1.3610 hc        1 4SB      0.238000
     36 H13        -2.8650    4.6030    0.4490 ha        1 4SB      0.195000
     37 H14        -3.8870    3.9990   -1.7620 ha        1 4SB      0.204000
     38 H15        -4.0810    1.5990   -2.4300 ha        1 4SB      0.198000
     39 H16        -3.2810   -0.2120   -0.9400 ha        1 4SB      0.187000
     40 H16A       -0.3460   -0.6620    2.5520 hc        1 4SB      0.105500
     41 HN3         2.0770   -0.4350    1.2730 hn        1 4SB      0.171000
     42 H022       -2.5100   -2.0700    2.9530 hn        1 4SB      0.236000
     43 O01        -3.4830    0.9600    3.2850 o         1 4SB     -0.298000
@<TRIPOS>BOND
     1    1    2 1   
     2    1   22 1   
     3    1   24 1   
     4    1   25 1   
     5    2   26 1   
     6    2   41 1   
     7    3   14 1   
     8    3   27 1   
     9    4   15 1   
    10    5    7 1   
    11    5   12 1   
    12    5   16 1   
    13    5   28 1   
    14    6    7 1   
    15    6    8 1   
    16    7   29 1   
    17    8    9 1   
    18    8   42 1   
    19    9   10 1   
    20    9   43 1   
    21   10   11 1   
    22   10   22 1   
    23   10   30 1   
    24   11   17 1   
    25   11   21 1   
    26   12   13 1   
    27   12   31 1   
    28   13   14 1   
    29   13   32 1   
    30   14   15 1   
    31   15   16 1   
    32   16   33 1   
    33   17   18 1   
    34   17   34 1   
    35   17   35 1   
    36   18   19 1   
    37   18   36 1   
    38   19   20 1   
    39   19   37 1   
    40   20   21 1   
    41   20   38 1   
    42   21   39 1   
    43   22   23 1   
    44   22   40 1   
@<TRIPOS>SUBSTRUCTURE
     1 4SB         1 TEMP              0 ****  ****    0 ROOT
