@<TRIPOS>MOLECULE
4SB
   43    43     1     0     0
SMALL
bcc


@<TRIPOS>ATOM
      1 C          -1.1180   -2.8350   -1.0330 c2        1 4SB     -0.079000
      2 N          -0.6690   -1.7930   -0.4570 n2        1 4SB     -0.310000
      3 O          -6.3850   -4.5030    8.6350 oh        1 4SB     -0.115000
      4 BR         -6.5310   -1.4350    7.1430 br        1 4SB      0.178000
      5 C01        -3.0110   -2.8950    6.7270 c3        1 4SB     -0.243000
      6 N01        -2.2880   -1.0660    5.2470 n3        1 4SB     -0.098000
      7 C02        -2.4930   -2.3590    5.4040 c1        1 4SB     -0.065000
      8 N02        -1.6470   -0.5800    4.1390 n         1 4SB     -0.220000
      9 C03        -2.2220    0.4790    3.3850 c2        1 4SB      0.287000
     10 C04        -1.4510    0.8430    2.1130 c3        1 4SB     -0.133000
     11 C05        -2.2290    1.7740    1.2370 c2        1 4SB      0.104000
     12 C06        -3.5020   -4.2800    6.5100 c2        1 4SB      0.120000
     13 C07        -4.6150   -4.7590    7.1350 c2        1 4SB     -0.274000
     14 C08        -5.4140   -3.9170    7.9590 c2        1 4SB      0.295000
     15 C09        -5.1340   -2.4510    8.0410 c3        1 4SB     -0.317000
     16 C10        -3.8940   -1.9870    7.4370 c1        1 4SB     -0.001000
     17 C11        -2.6250    3.0930    1.7550 c3        1 4SB     -0.234000
     18 C12        -3.3110    3.9770    0.8120 c2        1 4SB      0.050000
     19 C13        -3.6030    3.5780   -0.4700 c2        1 4SB     -0.205000
     20 C14        -3.2240    2.2960   -0.9110 c2        1 4SB      0.128000
     21 C15        -2.5440    1.4090   -0.0560 c2        1 4SB     -0.208000
     22 C16        -0.1100    1.4580    2.4880 c3        1 4SB     -0.219000
     23 H           0.4100    1.8320    1.5720 hc        1 4SB      0.112000
     24 HA         -2.1950   -3.0720   -0.9290 h4        1 4SB      0.121500
     25 HN         -0.5430   -3.5570   -1.6460 h4        1 4SB      0.121500
     26 HNA         0.3070   -1.6090   -0.5730 hn        1 4SB      0.147000
     27 HO         -6.9240   -3.8620    9.1530 ho        1 4SB      0.299000
     28 H02        -2.0630   -2.9650    7.3820 hc        1 4SB      0.247000
     29 HN02       -2.5070   -0.3320    5.9130 hn        1 4SB      0.258000
     30 H04        -1.2540   -0.1090    1.5280 hc        1 4SB      0.172000
     31 H06        -2.9130   -4.9170    5.8170 ha        1 4SB      0.210000
     32 H07        -4.9300   -5.8160    7.0190 ha        1 4SB      0.217000
     33 H10        -5.1470   -2.0960    9.1200 h1        1 4SB      0.236000
     34 H11        -3.3100    2.9310    2.6660 hc        1 4SB      0.235500
     35 H12        -1.7230    3.6280    2.1980 hc        1 4SB      0.235500
     36 H13        -3.5960    4.9830    1.1760 ha        1 4SB      0.192000
     37 H14        -4.1300    4.2570   -1.1660 ha        1 4SB      0.200000
     38 H15        -3.4590    1.9810   -1.9470 ha        1 4SB      0.194000
     39 H16        -2.2530    0.4120   -0.4450 ha        1 4SB      0.206000
     40 H16A       -0.2410    2.3050    3.2040 hc        1 4SB      0.112000
     41 HN3         0.5440    0.6880    2.9670 hc        1 4SB      0.112000
     42 H022       -1.2340   -1.3240    3.5880 hn        1 4SB      0.260000
     43 O01        -3.1900    1.1380    3.7970 o         1 4SB     -0.331000
@<TRIPOS>BOND
     1    1    2 1   
     2    1   24 1   
     3    1   25 1   
     4    2   26 1   
     5    3   14 1   
     6    3   27 1   
     7    4   15 1   
     8    5    7 1   
     9    5   12 1   
    10    5   16 1   
    11    5   28 1   
    12    6    7 1   
    13    6    8 1   
    14    6   29 1   
    15    8    9 1   
    16    8   42 1   
    17    9   10 1   
    18    9   43 1   
    19   10   11 1   
    20   10   22 1   
    21   10   30 1   
    22   11   17 1   
    23   11   21 1   
    24   12   13 1   
    25   12   31 1   
    26   13   14 1   
    27   13   32 1   
    28   14   15 1   
    29   15   16 1   
    30   15   33 1   
    31   17   18 1   
    32   17   34 1   
    33   17   35 1   
    34   18   19 1   
    35   18   36 1   
    36   19   20 1   
    37   19   37 1   
    38   20   21 1   
    39   20   38 1   
    40   21   39 1   
    41   22   23 1   
    42   22   40 1   
    43   22   41 1   
@<TRIPOS>SUBSTRUCTURE
     1 4SB         1 TEMP              0 ****  ****    0 ROOT
