@<TRIPOS>MOLECULE
4SC
   36    37     1     0     0
SMALL
bcc


@<TRIPOS>ATOM
      1 P           1.7390   -1.4200   -1.3640 p4        1 4SC      1.630200
      2 OP1         2.6570   -1.2170   -2.4620 o         1 4SC     -0.667000
      3 OP2         0.6620   -2.3500   -1.1140 o         1 4SC     -0.715800
      4 O5'         2.0310   -0.4260   -0.1530 os        1 4SC     -0.547200
      5 C5'         2.5790    0.8450   -0.4380 c3        1 4SC      0.170400
      6 C4'         1.5600    1.9630   -0.2900 c3        1 4SC      0.006400
      7 S4'         0.1450    1.7860   -1.3680 ss        1 4SC     -0.458200
      8 C3'         1.0150    2.0690    1.1350 c3        1 4SC      0.139100
      9 O3'         1.8780    2.9450    1.8450 oh        1 4SC     -0.599800
     10 C2'        -0.4040    2.6430    1.0830 c3        1 4SC     -0.122400
     11 C1'        -1.1650    2.0200   -0.0790 c3        1 4SC      0.279800
     12 N1         -1.9580    0.8560    0.1530 n         1 4SC     -0.496800
     13 C2         -1.9310    0.0730    1.3360 c         1 4SC      0.862900
     14 O2         -1.0500    0.2560    2.1990 o         1 4SC     -0.620500
     15 N3         -2.9250   -0.9150    1.5710 ne        1 4SC     -0.704100
     16 C4         -3.6860   -1.3350    0.5790 c2        1 4SC      0.680200
     17 N4         -4.7110   -2.2370    0.8050 nh        1 4SC     -0.904800
     18 C5         -3.5240   -0.8430   -0.8600 c3        1 4SC     -0.164000
     19 C6         -2.9560    0.5830   -0.8580 c3        1 4SC      0.095000
     20 C5M        -2.6590   -1.8160   -1.6290 c3        1 4SC     -0.110100
     21 H5'         3.0210    0.8400   -1.4740 h1        1 4SC      0.079200
     22 H5''        3.3920    1.0130    0.3270 h1        1 4SC      0.079200
     23 H4'         2.0780    2.9210   -0.5640 h1        1 4SC      0.108700
     24 H3'         1.0020    1.0500    1.6210 h1        1 4SC      0.103700
     25 HO3'        1.6470    2.8560    2.7780 ho        1 4SC      0.413000
     26 H2'        -0.3430    3.7510    0.9120 hc        1 4SC      0.083200
     27 H2''       -0.9170    2.4750    2.0650 hc        1 4SC      0.083200
     28 H1'        -1.8270    2.8020   -0.5560 h2        1 4SC      0.078700
     29 HN41       -4.7650   -2.6810    1.6940 hn        1 4SC      0.428300
     30 HN42       -5.0000   -2.7760    0.0240 hn        1 4SC      0.428300
     31 H5         -4.5320   -0.7780   -1.3620 hc        1 4SC      0.076700
     32 H61        -2.5040    0.7800   -1.8750 h1        1 4SC      0.051700
     33 H62        -3.8170    1.3030   -0.7190 h1        1 4SC      0.051700
     34 H71        -1.6780   -1.9870   -1.1170 hc        1 4SC      0.060033
     35 H72        -3.1790   -2.8000   -1.7250 hc        1 4SC      0.060033
     36 H73        -2.4600   -1.4220   -2.6550 hc        1 4SC      0.060033
@<TRIPOS>BOND
     1    1    2 1   
     2    1    3 2   
     3    1    4 1   
     4    4    5 1   
     5    5    6 1   
     6    5   21 1   
     7    5   22 1   
     8    6    7 1   
     9    6    8 1   
    10    6   23 1   
    11    7   11 1   
    12    8    9 1   
    13    8   10 1   
    14    8   24 1   
    15    9   25 1   
    16   10   11 1   
    17   10   26 1   
    18   10   27 1   
    19   11   12 1   
    20   11   28 1   
    21   12   13 1   
    22   12   19 1   
    23   13   14 2   
    24   13   15 1   
    25   15   16 2   
    26   16   17 1   
    27   16   18 1   
    28   17   29 1   
    29   17   30 1   
    30   18   19 1   
    31   18   20 1   
    32   18   31 1   
    33   19   32 1   
    34   19   33 1   
    35   20   34 1   
    36   20   35 1   
    37   20   36 1   
@<TRIPOS>SUBSTRUCTURE
     1 4SC         1 TEMP              0 ****  ****    0 ROOT
