@<TRIPOS>MOLECULE
4SC
   36    35     1     0     0
SMALL
bcc


@<TRIPOS>ATOM
      1 P           3.0690   -2.6860    4.8640 p2        1 4SC      2.442000
      2 OP1         4.6420   -2.8170    4.9330 os        1 4SC     -0.997000
      3 OP2         2.2940   -2.4190    6.0980 o         1 4SC     -0.962000
      4 O5'         2.3230   -2.8360    3.4800 os        1 4SC     -0.719000
      5 C5'         2.2670   -1.7190    2.6230 c3        1 4SC      0.027000
      6 C4'         1.4290   -2.0740    1.3630 c3        1 4SC     -0.227000
      7 S4'         0.2160   -1.1490    1.2570 ss        1 4SC     -0.027000
      8 C3'         2.2980   -1.7950    0.0080 c3        1 4SC      0.018000
      9 O3'         2.5870   -2.8060   -0.5060 oh        1 4SC     -0.342000
     10 C2'         1.2400   -0.8310   -1.0670 c3        1 4SC     -0.200000
     11 C1'        -0.0430   -0.8950   -0.4850 c3        1 4SC     -0.002000
     12 N1         -0.7580    0.3580   -0.7080 n         1 4SC     -0.351000
     13 C2         -0.7100    1.3890    0.2730 c2        1 4SC      0.375000
     14 O2         -0.4310    1.1190    1.4250 o         1 4SC     -0.346000
     15 N3         -0.9370    2.7350   -0.1030 n2        1 4SC     -0.278000
     16 C4         -1.7590    3.0280   -1.2110 c1        1 4SC      0.163000
     17 N4         -2.2090    4.3560   -1.4280 n2        1 4SC     -0.350000
     18 C5         -2.2500    1.8910   -2.1250 c3        1 4SC     -0.135000
     19 C6         -1.5370    0.5350   -1.8920 c3        1 4SC     -0.020000
     20 C5M        -3.8190    1.7290   -2.0340 c3        1 4SC     -0.217000
     21 H5'         3.1750   -1.4700    2.3520 h1        1 4SC      0.119000
     22 H5''        1.8490   -0.9670    3.0930 h1        1 4SC      0.119000
     23 H4'         1.1420   -3.0070    1.3970 h1        1 4SC      0.154000
     24 H3'         3.1050   -1.2870    0.2260 h1        1 4SC      0.136000
     25 HO3'        3.0560   -2.6410   -1.2450 ho        1 4SC      0.217000
     26 H2'         1.5500    0.0970   -1.1040 hc        1 4SC      0.120500
     27 H2''        1.2250   -1.2200   -1.9660 hc        1 4SC      0.120500
     28 H1'        -0.5470   -1.6430   -0.8630 h2        1 4SC      0.120000
     29 HN41       -2.0140    5.0090   -0.8210 hn        1 4SC      0.227500
     30 HN42       -2.7000    4.5560   -2.1730 hn        1 4SC      0.227500
     31 H5         -2.1510    2.1560   -3.0600 hc        1 4SC      0.119000
     32 H61        -2.2250   -0.1630   -1.8970 h1        1 4SC      0.096000
     33 H62        -0.9480    0.3770   -2.6580 h1        1 4SC      0.096000
     34 H71        -4.2510    2.5280   -2.4040 hc        1 4SC      0.092000
     35 H72        -4.0820    1.6190   -1.0960 hc        1 4SC      0.092000
     36 H73        -4.0960    0.9420   -2.5460 hc        1 4SC      0.092000
@<TRIPOS>BOND
     1    1    3 1   
     2    1    4 1   
     3    4    5 1   
     4    5    6 1   
     5    5   21 1   
     6    5   22 1   
     7    6    7 1   
     8    6    8 1   
     9    6   23 1   
    10    7   11 1   
    11    8    9 1   
    12    8   10 1   
    13    8   24 1   
    14    9   25 1   
    15   10   11 1   
    16   10   26 1   
    17   10   27 1   
    18   11   12 1   
    19   11   28 1   
    20   12   13 1   
    21   12   19 1   
    22   13   14 1   
    23   13   15 1   
    24   15   16 1   
    25   16   18 1   
    26   17   29 1   
    27   17   30 1   
    28   18   19 1   
    29   18   20 1   
    30   18   31 1   
    31   19   32 1   
    32   19   33 1   
    33   20   34 1   
    34   20   35 1   
    35   20   36 1   
@<TRIPOS>SUBSTRUCTURE
     1 4SC         1 TEMP              0 ****  ****    0 ROOT
