@<TRIPOS>MOLECULE
4SD
   14    13     1     0     0
SMALL
bcc


@<TRIPOS>ATOM
      1 C1          0.0000    0.0000    0.0000 c3        1 4SD     -0.324900
      2 C2          1.5300    0.0000    0.0000 c3        1 4SD      0.104700
      3 C5         -1.9760   -0.1210    1.4450 c1        1 4SD      0.179200
      4 C4         -0.5090    0.0000    1.4430 c3        1 4SD      0.104700
      5 C3          2.0210   -0.1210   -1.3820 c1        1 4SD      0.179200
      6 N2         -3.1070   -0.2330    1.4390 n1        1 4SD     -0.384800
      7 O1         -0.4770    1.1660   -0.6740 oh        1 4SD     -0.273800
      8 N1          2.2510   -0.2990   -2.6050 n1        1 4SD     -0.384800
      9 H1         -0.3990    0.7740   -0.6440 h1        1 4SD      0.282700
     10 H2          2.0400   -0.8440    0.4490 hc        1 4SD      0.033200
     11 H3          1.9250    0.8470    0.5470 hc        1 4SD      0.033200
     12 H4         -0.3990   -0.7040    2.2590 hc        1 4SD      0.033200
     13 H5         -0.2810    0.9890    1.8220 hc        1 4SD      0.033200
     14 H6         -0.9060    1.4600    0.1130 ho        1 4SD      0.386000
@<TRIPOS>BOND
     1    1    2 1   
     2    1    4 1   
     3    1    7 1   
     4    1    9 1   
     5    2    5 1   
     6    2   10 1   
     7    2   11 1   
     8    3    4 1   
     9    3    6 3   
    10    4   12 1   
    11    4   13 1   
    12    5    8 3   
    13    7   14 1   
@<TRIPOS>SUBSTRUCTURE
     1 4SD         1 TEMP              0 ****  ****    0 ROOT
