@<TRIPOS>MOLECULE
4SD
   14    13     1     0     0
SMALL
bcc


@<TRIPOS>ATOM
      1 C1         -0.0850    0.0360   -0.0820 c3        1 4SD      0.148100
      2 C2          1.4340   -0.1760   -0.1080 c3        1 4SD     -0.056300
      3 C5         -2.0170   -0.1230    1.4460 c1        1 4SD      0.207700
      4 C4         -0.5750   -0.0960    1.3650 c3        1 4SD     -0.056300
      5 C3          1.9410   -0.2820   -1.4560 c1        1 4SD      0.207700
      6 N2         -3.1760   -0.1460    1.5210 n1        1 4SD     -0.350800
      7 O1         -0.4470    1.2800   -0.6450 oh        1 4SD     -0.571800
      8 N1          2.3580   -0.3700   -2.5370 n1        1 4SD     -0.350800
      9 H1         -0.5990   -0.7210   -0.7420 h1        1 4SD      0.103700
     10 H2          1.6880   -1.1190    0.4500 hc        1 4SD      0.078700
     11 H3          1.9440    0.6820    0.4100 hc        1 4SD      0.078700
     12 H4         -0.1890    0.7670    1.9750 hc        1 4SD      0.078700
     13 H5         -0.1700   -1.0460    1.8110 hc        1 4SD      0.078700
     14 H6         -0.0340    1.9770   -0.1190 ho        1 4SD      0.402000
@<TRIPOS>BOND
     1    1    2 1   
     2    1    4 1   
     3    1    7 1   
     4    1    9 1   
     5    2    5 1   
     6    2   10 1   
     7    2   11 1   
     8    3    4 1   
     9    3    6 3   
    10    4   12 1   
    11    4   13 1   
    12    5    8 3   
    13    7   14 1   
@<TRIPOS>SUBSTRUCTURE
     1 4SD         1 TEMP              0 ****  ****    0 ROOT
