@<TRIPOS>MOLECULE
4SH
   56    53     1     0     0
SMALL
bcc


@<TRIPOS>ATOM
      1 C8          1.0040   -0.7450    2.6860 c1        1 4SH      0.294000
      2 O2          2.1760   -1.1450    2.6730 o         1 4SH     -0.361000
      3 C9          0.1760   -0.8720    3.9570 c3        1 4SH     -0.081000
      4 N4          0.0460   -2.2660    4.3180 n3        1 4SH     -0.261000
      5 O3         -1.0910   -4.2830    5.9430 os        1 4SH     -0.271000
      6 C14         0.4670   -2.4470    5.6620 c3        1 4SH     -0.104500
      7 C17        -1.2670   -2.6860    4.1040 c3        1 4SH     -0.104500
      8 C15         0.2300   -3.8530    6.1580 c3        1 4SH     -0.024000
      9 C16        -1.5080   -4.1120    4.6130 c3        1 4SH     -0.024000
     10 C1          1.0500    1.3150   -0.6780 c1        1 4SH     -0.227000
     11 O1         -0.2630    3.3430   -0.3900 o         1 4SH     -0.401000
     12 S1          2.8200   -0.2250    0.1910 ss        1 4SH      0.664000
     13 C2         -0.2380    2.1620   -0.8200 c1        1 4SH      0.376000
     14 N3          0.4930    0.0480    1.5700 n2        1 4SH     -0.276000
     15 C5          2.2850    1.3490   -1.6520 c1        1 4SH     -0.042000
     16 C6          3.3600    0.4010   -1.1050 c1        1 4SH     -0.437000
     17 C7          1.3610    0.3660    0.4410 c2        1 4SH     -0.175000
     18 C10         2.6900    2.3270   -2.7140 c2        1 4SH     -0.092500
     19 C11         4.0910    2.3840   -3.0450 c3        1 4SH     -0.152000
     20 C12         4.8390    1.1210   -3.0040 c3        1 4SH     -0.152000
     21 C13         4.7440    0.3720   -1.8280 c2        1 4SH     -0.092500
     22 N2         -1.3860    1.6280   -1.5780 n3        1 4SH     -0.361000
     23 C3         -2.1050    2.4870   -2.5070 c3        1 4SH      0.003000
     24 C4         -3.1750    1.6610   -3.2470 c2        1 4SH     -0.110000
     25 C22        -4.4680    1.5680   -2.7260 c2        1 4SH     -0.110000
     26 C21        -5.4590    0.9270   -3.4480 c1        1 4SH     -0.132000
     27 C20        -5.1630    0.3700   -4.7050 c1        1 4SH     -0.127500
     28 C19        -3.8630    0.4660   -5.2230 c1        1 4SH     -0.127500
     29 C18        -2.8800    1.1040   -4.5030 c1        1 4SH     -0.125000
     30 H9         -0.6690   -0.5070    3.8130 h1        1 4SH      0.111000
     31 H9A         0.6210   -0.3880    4.6870 h1        1 4SH      0.111000
     32 H14        -0.0460   -1.7880    6.2660 h1        1 4SH      0.085750
     33 H14A        1.4190   -2.2520    5.7200 h1        1 4SH      0.085750
     34 H17        -1.4670   -2.6530    3.0900 h1        1 4SH      0.085750
     35 H17A       -1.8930   -2.0570    4.5810 h1        1 4SH      0.085750
     36 H15         0.8220   -4.4410    5.7080 h1        1 4SH      0.096750
     37 H15A        0.4150   -3.8830    7.1000 h1        1 4SH      0.096750
     38 H16        -1.0280   -4.7290    4.0550 h1        1 4SH      0.096750
     39 H16A       -2.4170   -4.3030    4.5590 h1        1 4SH      0.096750
     40 HN3        -0.3970    0.4040    1.6060 hn        1 4SH      0.284000
     41 H10         2.4190    3.1930   -2.4320 ha        1 4SH      0.089750
     42 H10A        2.1910    2.1040   -3.5410 ha        1 4SH      0.089750
     43 H11         4.5180    3.0050   -2.4360 hc        1 4SH      0.083000
     44 H11A        4.1700    2.7590   -3.9890 hc        1 4SH      0.083000
     45 H12         5.7600    1.3430   -3.1150 hc        1 4SH      0.083000
     46 H12A        4.4950    0.5760   -3.7050 hc        1 4SH      0.083000
     47 H13         4.9310   -0.6110   -2.0820 ha        1 4SH      0.089750
     48 H13A        5.3700    0.7220   -1.2330 ha        1 4SH      0.089750
     49 HN2        -1.6200    0.7270   -1.5020 hn        1 4SH      0.223000
     50 H3         -2.5130    3.1730   -2.0410 h1        1 4SH      0.109500
     51 H3A        -1.4840    2.8580   -3.1490 h1        1 4SH      0.109500
     52 H22        -4.6820    1.9760   -1.8120 ha        1 4SH      0.140000
     53 H21        -6.3620    0.8620   -3.0840 ha        1 4SH      0.133000
     54 H20        -5.8940   -0.1040   -5.2410 ha        1 4SH      0.132000
     55 H19        -3.6530    0.0760   -6.1040 ha        1 4SH      0.132000
     56 H18        -1.9720    1.1710   -4.8660 ha        1 4SH      0.128000
@<TRIPOS>BOND
     1    1    2 1   
     2    1    3 1   
     3    3    4 1   
     4    3   30 1   
     5    3   31 1   
     6    4    6 1   
     7    4    7 1   
     8    5    8 1   
     9    5    9 1   
    10    6    8 1   
    11    6   32 1   
    12    6   33 1   
    13    7    9 1   
    14    7   34 1   
    15    7   35 1   
    16    8   36 1   
    17    8   37 1   
    18    9   38 1   
    19    9   39 1   
    20   10   15 1   
    21   10   17 1   
    22   11   13 1   
    23   12   16 1   
    24   12   17 1   
    25   13   22 1   
    26   14   17 1   
    27   14   40 1   
    28   15   16 1   
    29   18   19 1   
    30   18   41 1   
    31   18   42 1   
    32   19   20 1   
    33   19   43 1   
    34   19   44 1   
    35   20   21 1   
    36   20   45 1   
    37   20   46 1   
    38   21   47 1   
    39   21   48 1   
    40   22   23 1   
    41   22   49 1   
    42   23   24 1   
    43   23   50 1   
    44   23   51 1   
    45   24   25 1   
    46   24   29 1   
    47   25   26 1   
    48   25   52 1   
    49   26   53 1   
    50   27   28 1   
    51   27   54 1   
    52   28   55 1   
    53   29   56 1   
@<TRIPOS>SUBSTRUCTURE
     1 4SH         1 TEMP              0 ****  ****    0 ROOT
