@<TRIPOS>MOLECULE
4SH
   56    59     1     0     0
SMALL
bcc


@<TRIPOS>ATOM
      1 C8         -2.8970    1.2410    0.5870 c         1 4SH      0.651100
      2 O2         -3.2910    2.3290    0.1220 o         1 4SH     -0.600100
      3 C9         -3.9080    0.1450    0.9490 c3        1 4SH      0.104800
      4 N4         -3.5280   -1.1670    0.4620 n3        1 4SH     -0.735600
      5 O3         -4.0400   -3.7080   -0.7660 os        1 4SH     -0.414600
      6 C14        -4.1850   -2.2440    1.1910 c3        1 4SH      0.132300
      7 C17        -3.6910   -1.2980   -0.9820 c3        1 4SH      0.132300
      8 C15        -3.8170   -3.6260    0.6370 c3        1 4SH      0.126400
      9 C16        -3.3320   -2.7020   -1.4810 c3        1 4SH      0.126400
     10 C1          0.8270    1.6150    0.7660 cc        1 4SH     -0.246600
     11 O1          0.6990   -0.3780    2.0690 o         1 4SH     -0.634100
     12 S1         -0.7680    3.5150    0.1420 ss        1 4SH      0.128200
     13 C2          1.2880    0.2740    1.1760 c         1 4SH      0.701700
     14 N3         -1.5600    0.9940    0.8410 n         1 4SH     -0.422100
     15 C5          1.6370    2.7690    0.5190 cc        1 4SH     -0.046300
     16 C6          0.8610    3.8640    0.1710 cd        1 4SH     -0.176400
     17 C7         -0.5420    1.9050    0.6160 cd        1 4SH      0.080500
     18 C10         3.1030    2.8600    0.6950 c3        1 4SH     -0.015100
     19 C11         3.6730    4.1680    0.1710 c3        1 4SH     -0.074400
     20 C12         2.7940    5.3550    0.4990 c3        1 4SH     -0.072400
     21 C13         1.4160    5.1980   -0.1220 c3        1 4SH      0.004900
     22 N2          2.4040   -0.2470    0.5420 n         1 4SH     -0.552900
     23 C3          2.8370   -1.6030    0.7500 c3        1 4SH      0.126300
     24 C4          2.6300   -2.5060   -0.4340 ca        1 4SH     -0.117300
     25 C22         1.7240   -3.5690   -0.3600 ca        1 4SH     -0.118000
     26 C21         1.5560   -4.4200   -1.4520 ca        1 4SH     -0.131000
     27 C20         2.2850   -4.2120   -2.6220 ca        1 4SH     -0.125000
     28 C19         3.1870   -3.1500   -2.7000 ca        1 4SH     -0.131000
     29 C18         3.3590   -2.2990   -1.6090 ca        1 4SH     -0.118000
     30 H9         -4.9060    0.4900    0.5450 h1        1 4SH      0.071700
     31 H9A        -3.9760    0.1170    2.0750 h1        1 4SH      0.071700
     32 H14        -3.8510   -2.1910    2.2650 h1        1 4SH      0.046450
     33 H14A       -5.3080   -2.1360    1.1660 h1        1 4SH      0.046450
     34 H17        -4.7490   -1.0650   -1.3010 h1        1 4SH      0.046450
     35 H17A       -3.0060   -0.5510   -1.4720 h1        1 4SH      0.046450
     36 H15        -4.4930   -4.4070    1.0740 h1        1 4SH      0.057450
     37 H15A       -2.7460   -3.8700    0.8630 h1        1 4SH      0.057450
     38 H16        -2.2290   -2.8850   -1.3950 h1        1 4SH      0.057450
     39 H16A       -3.6640   -2.8290   -2.5450 h1        1 4SH      0.057450
     40 HN3        -1.2890    0.1100    1.2310 hn        1 4SH      0.367500
     41 H10         3.3310    2.7610    1.7920 hc        1 4SH      0.052700
     42 H10A        3.6280    2.0210    0.1690 hc        1 4SH      0.052700
     43 H11         4.6920    4.3220    0.6120 hc        1 4SH      0.041200
     44 H11A        3.7950    4.0990   -0.9420 hc        1 4SH      0.041200
     45 H12         2.6940    5.4530    1.6120 hc        1 4SH      0.044700
     46 H12A        3.2680    6.2950    0.1150 hc        1 4SH      0.044700
     47 H13         1.4920    5.3360   -1.2360 hc        1 4SH      0.048200
     48 H13A        0.7360    6.0010    0.2680 hc        1 4SH      0.048200
     49 HN2         2.7100    0.1930   -0.2950 hn        1 4SH      0.309500
     50 H3          3.9430   -1.5750    0.9820 h1        1 4SH      0.070200
     51 H3A         2.3010   -2.0230    1.6510 h1        1 4SH      0.070200
     52 H22         1.1430   -3.7320    0.5610 ha        1 4SH      0.134000
     53 H21         0.8450   -5.2580   -1.3880 ha        1 4SH      0.133000
     54 H20         2.1510   -4.8840   -3.4820 ha        1 4SH      0.132000
     55 H19         3.7630   -2.9840   -3.6220 ha        1 4SH      0.133000
     56 H18         4.0760   -1.4670   -1.6690 ha        1 4SH      0.134000
@<TRIPOS>BOND
     1    1    2 2   
     2    1    3 1   
     3    1   14 1   
     4    3    4 1   
     5    3   30 1   
     6    3   31 1   
     7    4    6 1   
     8    4    7 1   
     9    5    8 1   
    10    5    9 1   
    11    6    8 1   
    12    6   32 1   
    13    6   33 1   
    14    7    9 1   
    15    7   34 1   
    16    7   35 1   
    17    8   36 1   
    18    8   37 1   
    19    9   38 1   
    20    9   39 1   
    21   10   13 1   
    22   10   15 1   
    23   10   17 2   
    24   11   13 2   
    25   12   16 1   
    26   12   17 1   
    27   13   22 1   
    28   14   17 1   
    29   14   40 1   
    30   15   16 2   
    31   15   18 1   
    32   16   21 1   
    33   18   19 1   
    34   18   41 1   
    35   18   42 1   
    36   19   20 1   
    37   19   43 1   
    38   19   44 1   
    39   20   21 1   
    40   20   45 1   
    41   20   46 1   
    42   21   47 1   
    43   21   48 1   
    44   22   23 1   
    45   22   49 1   
    46   23   24 1   
    47   23   50 1   
    48   23   51 1   
    49   24   25 ar  
    50   24   29 ar  
    51   25   26 ar  
    52   25   52 1   
    53   26   27 ar  
    54   26   53 1   
    55   27   28 ar  
    56   27   54 1   
    57   28   29 ar  
    58   28   55 1   
    59   29   56 1   
@<TRIPOS>SUBSTRUCTURE
     1 4SH         1 TEMP              0 ****  ****    0 ROOT
