@<TRIPOS>MOLECULE
4SO
   20    20     1     0     0
SMALL
bcc


@<TRIPOS>ATOM
      1 OAA        -0.0900   -0.1000    0.1920 o         1 4SO     -0.650800
      2 OAB         4.3050    5.4660   -2.3670 oh        1 4SO     -0.572100
      3 CAC         3.4380    2.6930   -1.7700 ca        1 4SO     -0.115500
      4 CAD         3.0360    1.5010   -1.1720 ca        1 4SO     -0.027000
      5 CAE         1.8070    1.4070   -0.5110 ca        1 4SO     -0.347500
      6 SAF         1.3180   -0.0600    0.2020 sy        1 4SO      1.523200
      7 NAG         1.8350    0.0860    1.7080 n3        1 4SO     -1.028700
      8 CAI         2.6010    3.8130   -1.7150 ca        1 4SO     -0.114600
      9 CAJ         1.3570    3.7250   -1.0800 ca        1 4SO     -0.115500
     10 CAK         0.9700    2.5270   -0.4820 ca        1 4SO     -0.027000
     11 OAL         2.0200   -1.1040   -0.4340 o         1 4SO     -0.650800
     12 OAM         2.2370    5.9130   -2.8650 o         1 4SO     -0.471000
     13 HAC         4.8470    4.8190   -1.8940 ho        1 4SO      0.428000
     14 HAD         4.4000    2.7390   -2.3040 ha        1 4SO      0.155500
     15 HNAG        3.6860    0.6090   -1.2370 ha        1 4SO      0.162000
     16 HNAA        2.7220   -0.2240    2.0160 hn        1 4SO      0.450800
     17 HAJ        -0.0210    2.4530    0.0010 ha        1 4SO      0.162000
     18 HAK         0.6890    4.6020   -1.0690 ha        1 4SO      0.155500
     19 CAH         2.9910    5.0930   -2.3420 c         1 4SO      0.631700
     20 HAG3        1.2880    0.4620    2.4410 hn        1 4SO      0.450800
@<TRIPOS>BOND
     1    1    6 2   
     2    2   13 1   
     3    2   19 1   
     4    3    4 ar  
     5    3    8 ar  
     6    3   14 1   
     7    4    5 ar  
     8    4   15 1   
     9    5    6 1   
    10    5   10 ar  
    11    6    7 1   
    12    6   11 2   
    13    7   16 1   
    14    7   20 1   
    15    8    9 ar  
    16    8   19 1   
    17    9   10 ar  
    18    9   18 1   
    19   10   17 1   
    20   12   19 2   
@<TRIPOS>SUBSTRUCTURE
     1 4SO         1 TEMP              0 ****  ****    0 ROOT
