@<TRIPOS>MOLECULE
4SO
   20    20     1     0     0
SMALL
bcc


@<TRIPOS>ATOM
      1 OAA        -0.0550    0.0960   -0.2040 o         1 4SO     -0.508400
      2 OAB         3.8220   -5.1430   -3.8660 o         1 4SO     -0.492000
      3 CAC         1.5250   -3.8680   -1.2190 ce        1 4SO     -0.131000
      4 CAD         1.7530   -2.7900   -0.4270 cf        1 4SO      0.019800
      5 CAE         1.8750   -1.3890   -0.4720 cf        1 4SO     -1.289200
      6 SAF         1.2950   -0.0730   -0.4210 s4        1 4SO      2.152800
      7 NAG         1.7610    0.3740    1.9020 n3        1 4SO     -1.085400
      8 CAI         2.7730   -4.0430   -1.9920 ce        1 4SO     -0.188200
      9 CAJ         3.6340   -2.9870   -1.7720 c2        1 4SO     -0.058200
     10 CAK         3.1410   -2.2040   -0.6040 cx        1 4SO      0.003900
     11 OAL         2.0240    1.0280   -0.8130 o         1 4SO     -0.508400
     12 OAM         2.2640   -6.2740   -2.8580 oh        1 4SO     -0.579100
     13 HAC         1.6700   -6.2290   -2.0960 ho        1 4SO      0.427000
     14 HAD         0.6190   -4.4530   -1.3540 ha        1 4SO      0.161000
     15 HNAG        2.2210   -0.4010    2.3350 hn        1 4SO      0.384133
     16 HNAA        2.3410    1.1880    1.9630 hn        1 4SO      0.384133
     17 HAJ         3.8930   -2.0370    0.1840 hc        1 4SO      0.106700
     18 HAK         4.6010   -2.8230   -2.2480 ha        1 4SO      0.167000
     19 CAH         3.0000   -5.1230   -2.9460 c         1 4SO      0.650300
     20 HAG3        0.8890    0.5480    2.3620 hn        1 4SO      0.384133
@<TRIPOS>BOND
     1    1    6 1   
     2    2   19 2   
     3    3    4 2   
     4    3    8 1   
     5    3   14 1   
     6    4    5 1   
     7    4   10 1   
     8    5    6 2   
     9    5   10 1   
    10    6   11 1   
    11    7   15 1   
    12    7   16 1   
    13    7   20 1   
    14    8    9 2   
    15    8   19 1   
    16    9   10 1   
    17    9   18 1   
    18   10   17 1   
    19   12   13 1   
    20   12   19 1   
@<TRIPOS>SUBSTRUCTURE
     1 4SO         1 TEMP              0 ****  ****    0 ROOT
