@<TRIPOS>MOLECULE
4SO
   19    19     1     0     0
SMALL
bcc


@<TRIPOS>ATOM
      1 OAA        -3.0040   -1.1690    0.7070 o         1 4SO     -0.680800
      2 OAB         4.0760    1.1150   -0.1510 o         1 4SO     -0.815300
      3 CAC         1.2600    1.2140    0.0070 ca        1 4SO     -0.142000
      4 CAD        -0.1270    1.2160    0.0570 ca        1 4SO     -0.040000
      5 CAE        -0.8550    0.0150    0.0900 ca        1 4SO     -0.453500
      6 SAF        -2.5090    0.0210    0.1120 sy        1 4SO      1.534200
      7 NAG        -2.9080   -0.0040   -1.4540 n3        1 4SO     -1.021700
      8 CAI         1.9660    0.0050   -0.0100 ca        1 4SO     -0.050600
      9 CAJ         1.2520   -1.1990    0.0470 ca        1 4SO     -0.142000
     10 CAK        -0.1350   -1.1910    0.0970 ca        1 4SO     -0.040000
     11 OAL        -2.9960    1.2330    0.6660 o         1 4SO     -0.680800
     12 OAM         4.0690   -1.1230   -0.1140 o         1 4SO     -0.815300
     13 HAC         1.8370    2.1540   -0.0220 ha        1 4SO      0.161000
     14 HAD        -0.6780    2.1720    0.0820 ha        1 4SO      0.127000
     15 HNAG       -3.0170   -0.8360   -1.9720 hn        1 4SO      0.433800
     16 HNAA       -3.0110    0.8100   -2.0000 hn        1 4SO      0.433800
     17 HAJ         1.8230   -2.1430    0.0490 ha        1 4SO      0.161000
     18 HAK        -0.6910   -2.1410    0.1540 ha        1 4SO      0.127000
     19 CAH         3.4910   -0.0020   -0.0960 c         1 4SO      0.902200
@<TRIPOS>BOND
     1    1    6 2   
     2    2   19 1   
     3    3    4 ar  
     4    3    8 ar  
     5    3   13 1   
     6    4    5 ar  
     7    4   14 1   
     8    5    6 1   
     9    5   10 ar  
    10    6    7 1   
    11    6   11 2   
    12    7   15 1   
    13    7   16 1   
    14    8    9 ar  
    15    8   19 1   
    16    9   10 ar  
    17    9   17 1   
    18   10   18 1   
    19   12   19 1   
@<TRIPOS>SUBSTRUCTURE
     1 4SO         1 TEMP              0 ****  ****    0 ROOT
