@<TRIPOS>MOLECULE
4SO
   19    15     1     0     0
SMALL
bcc


@<TRIPOS>ATOM
      1 OAA         0.5440   -2.3010    2.3960 o         1 4SO     -0.568400
      2 OAB         1.6300    3.6790   -1.6390 o         1 4SO     -0.550000
      3 CAC         1.5380    0.4760   -0.8670 c1        1 4SO     -0.142000
      4 CAD         1.1400   -0.5120    0.0190 c1        1 4SO     -0.040000
      5 CAE        -0.1170   -0.4560    0.6020 c1        1 4SO     -0.898000
      6 SAF        -0.6010   -1.6850    1.7840 s4        1 4SO      2.089800
      7 NAG        -1.5720   -2.8040    1.0760 n2        1 4SO     -0.948000
      8 CAH         1.1290    2.6220   -2.1060 c1        1 4SO      0.351000
      9 CAI         0.6790    1.5210   -1.1700 c1        1 4SO     -0.030000
     10 CAJ        -0.5770    1.5780   -0.5880 c2        1 4SO     -0.142000
     11 CAK        -0.9750    0.5890    0.2990 c1        1 4SO     -0.040000
     12 OAL        -1.2400   -1.0890    2.9250 o         1 4SO     -0.568400
     13 OAM         0.9800    2.4910   -3.3490 o         1 4SO     -0.550000
     14 HAC         2.4210    0.4350   -1.2800 ha        1 4SO      0.161000
     15 HAD         1.7440   -1.2490    0.2330 ha        1 4SO      0.127000
     16 HNAG       -1.2570   -3.3070    0.3800 hn        1 4SO      0.229000
     17 HNAA       -2.4240   -2.9290    1.3810 hn        1 4SO      0.229000
     18 HAJ        -1.1830    2.3110   -0.8050 ha        1 4SO      0.161000
     19 HAK        -1.8600    0.6290    0.7090 ha        1 4SO      0.127000
@<TRIPOS>BOND
     1    1    6 1   
     2    2    8 1   
     3    3    9 1   
     4    3   14 1   
     5    4    5 1   
     6    4   15 1   
     7    5    6 1   
     8    6   12 1   
     9    7   16 1   
    10    7   17 1   
    11    8   13 1   
    12    9   10 1   
    13   10   11 1   
    14   10   18 1   
    15   11   19 1   
@<TRIPOS>SUBSTRUCTURE
     1 4SO         1 TEMP              0 ****  ****    0 ROOT
