@<TRIPOS>MOLECULE
4SO
   20    20     1     0     0
SMALL
bcc


@<TRIPOS>ATOM
      1 OAA        -0.1470   -0.0390    0.2020 o         1 4SO     -0.650800
      2 OAB         4.3680    5.4340   -2.3490 oh        1 4SO     -0.572100
      3 CAC         3.4210    2.6780   -1.7940 ca        1 4SO     -0.115500
      4 CAD         2.9950    1.4860   -1.2120 ca        1 4SO     -0.027000
      5 CAE         1.7810    1.4190   -0.5190 ca        1 4SO     -0.347500
      6 SAF         1.2610   -0.0490    0.1730 sy        1 4SO      1.523200
      7 NAG         1.8250    0.0430    1.6660 n8        1 4SO     -1.028700
      8 CAI         2.6260    3.8240   -1.6880 ca        1 4SO     -0.114600
      9 CAJ         1.3970    3.7640   -1.0210 ca        1 4SO     -0.115500
     10 CAK         0.9850    2.5650   -0.4410 ca        1 4SO     -0.027000
     11 OAL         1.9080   -1.0990   -0.5080 o         1 4SO     -0.650800
     12 OAM         2.3040    5.9630   -2.7800 o         1 4SO     -0.471000
     13 HAC         4.9000    4.7580   -1.9080 ho        1 4SO      0.428000
     14 HAD         4.3700    2.7040   -2.3520 ha        1 4SO      0.155500
     15 HNAG        3.6110    0.5750   -1.3160 ha        1 4SO      0.162000
     16 HNAA        2.7090   -0.3050    1.9410 hn        1 4SO      0.450800
     17 HAJ         0.0060    2.5130    0.0680 ha        1 4SO      0.162000
     18 HAK         0.7600    4.6620   -0.9720 ha        1 4SO      0.155500
     19 CAH         3.0430    5.1050   -2.2970 c         1 4SO      0.631700
     20 HAG3        1.3120    0.4200    2.4240 hn        1 4SO      0.450800
@<TRIPOS>BOND
     1    1    6 2   
     2    2   13 1   
     3    2   19 1   
     4    3    4 ar  
     5    3    8 ar  
     6    3   14 1   
     7    4    5 ar  
     8    4   15 1   
     9    5    6 1   
    10    5   10 ar  
    11    6    7 1   
    12    6   11 2   
    13    7   16 1   
    14    7   20 1   
    15    8    9 ar  
    16    8   19 1   
    17    9   10 ar  
    18    9   18 1   
    19   10   17 1   
    20   12   19 2   
@<TRIPOS>SUBSTRUCTURE
     1 4SO         1 TEMP              0 ****  ****    0 ROOT
