@<TRIPOS>MOLECULE
4SP
   51    51     1     0     0
SMALL
bcc


@<TRIPOS>ATOM
      1 C2         -0.4610    0.7940    0.4530 ca        1 4SP      0.833900
      2 C8          0.7820    0.9120    5.2590 c1        1 4SP      0.303600
      3 C10         4.0760   -0.3550   -1.3790 cx        1 4SP     -0.184400
      4 C11         5.3750   -0.9260   -1.8860 cx        1 4SP     -0.110700
      5 C12         6.2530   -0.0940   -2.7710 c3        1 4SP     -0.057900
      6 C13         7.1920    0.8090   -1.9960 c3        1 4SP     -0.077400
      7 C14         6.4790    1.5380   -0.8780 c3        1 4SP     -0.077400
      8 C15         5.9620    0.5700    0.1670 c3        1 4SP     -0.057900
      9 C16         5.2170   -0.5850   -0.4230 cx        1 4SP     -0.110700
     10 C19         2.7280   -3.3000   -3.4570 c1        1 4SP     -0.172000
     11 C20         2.0570    0.5310   -4.4170 ce        1 4SP     -0.803100
     12 C21         0.7050    0.7410   -4.2420 cf        1 4SP      0.351300
     13 C22         0.0820    0.7770   -3.0350 ch        1 4SP     -0.288300
     14 N26         3.0240   -1.3220   -6.0620 nz        1 4SP     -0.788500
     15 N1          0.9000    0.5790    0.4540 nb        1 4SP     -0.760000
     16 C6          1.4780    0.4810    1.6750 ca        1 4SP      0.651600
     17 O6          2.8290    0.2870    1.7770 oh        1 4SP     -0.610300
     18 C5          0.7380    0.5750    2.9080 ca        1 4SP     -0.087000
     19 N7          1.3450    0.3490    4.1490 nu        1 4SP     -0.496200
     20 N9          0.2970    1.3220    6.2390 n1        1 4SP     -0.323800
     21 C4         -0.6560    0.8040    2.7560 ca        1 4SP      0.442200
     22 N3         -1.2650    0.9140    1.5650 nb        1 4SP     -0.682000
     23 N2         -1.1250    0.9130   -0.8170 nu        1 4SP     -0.569500
     24 C17        -0.4970    0.8440   -1.9580 c1        1 4SP      0.210800
     25 C18         2.0230   -3.9850   -4.1400 c1        1 4SP     -0.172000
     26 O24         4.2360    0.8620   -5.5630 o         1 4SP     -0.592800
     27 O25         2.2130    0.9710   -6.8590 o         1 4SP     -0.592800
     28 H8          2.3500    0.3440    4.1460 hn        1 4SP      0.466800
     29 H101        3.2330    0.2120    0.8890 ho        1 4SP      0.470000
     30 H102        3.8140    0.6860   -1.6430 hc        1 4SP      0.067700
     31 H11         3.1860   -1.0060   -1.3140 hc        1 4SP      0.067700
     32 H121        5.3950   -2.0030   -2.1480 hc        1 4SP      0.077700
     33 H122        6.8650   -0.7680   -3.4280 hc        1 4SP      0.048950
     34 H131        5.6090    0.5310   -3.4500 hc        1 4SP      0.048950
     35 H132        8.0290    0.1980   -1.5650 hc        1 4SP      0.049700
     36 H141        7.6470    1.5540   -2.7000 hc        1 4SP      0.049700
     37 H142        7.1850    2.2610   -0.3910 hc        1 4SP      0.049700
     38 H151        5.6280    2.1350   -1.3010 hc        1 4SP      0.049700
     39 H152        6.8300    0.1700    0.7570 hc        1 4SP      0.048950
     40 H161        5.2920    1.1130    0.8870 hc        1 4SP      0.048950
     41 H162        5.1220   -1.4310    0.2890 hc        1 4SP      0.077700
     42 H19         3.3520   -2.7220   -2.8170 ha        1 4SP      0.176500
     43 H21         2.6150    0.3770   -3.4590 h4        1 4SP      0.232000
     44 H22         0.0580    0.9070   -5.1360 ha        1 4SP      0.167000
     45 H261        2.5590   -1.5560   -6.9340 hn        1 4SP      0.447800
     46 H262        4.0000   -1.5900   -6.1460 hn        1 4SP      0.447800
     47 H9         -1.3220    0.9040    3.6380 h4        1 4SP      0.072100
     48 H2         -2.1180    1.0850   -0.8000 hn        1 4SP      0.507800
     49 H18         1.3980   -4.6190   -4.7230 ha        1 4SP      0.176500
     50 H263        2.6090   -1.8800   -5.3170 hn        1 4SP      0.447800
     51 S23         2.8910    0.5880   -5.7160 sy        1 4SP      1.524800
@<TRIPOS>BOND
     1    1   15 ar  
     2    1   22 ar  
     3    1   23 1   
     4    2   19 1   
     5    2   20 3   
     6    3    4 1   
     7    3    9 1   
     8    3   30 1   
     9    3   31 1   
    10    4    5 1   
    11    4    9 1   
    12    4   32 1   
    13    5    6 1   
    14    5   33 1   
    15    5   34 1   
    16    6    7 1   
    17    6   35 1   
    18    6   36 1   
    19    7    8 1   
    20    7   37 1   
    21    7   38 1   
    22    8    9 1   
    23    8   39 1   
    24    8   40 1   
    25    9   41 1   
    26   10   25 3   
    27   10   42 1   
    28   11   12 2   
    29   11   43 1   
    30   11   51 1   
    31   12   13 1   
    32   12   44 1   
    33   13   24 3   
    34   14   45 1   
    35   14   46 1   
    36   14   50 1   
    37   14   51 1   
    38   15   16 ar  
    39   16   17 1   
    40   16   18 ar  
    41   17   29 1   
    42   18   19 1   
    43   18   21 ar  
    44   19   28 1   
    45   21   22 ar  
    46   21   47 1   
    47   23   24 1   
    48   23   48 1   
    49   25   49 1   
    50   26   51 2   
    51   27   51 2   
@<TRIPOS>SUBSTRUCTURE
     1 4SP         1 TEMP              0 ****  ****    0 ROOT
