@<TRIPOS>MOLECULE
4SP
   50    45     1     0     0
SMALL
bcc


@<TRIPOS>ATOM
      1 C2         -1.3540   -1.3950   -0.6580 c1        1 4SP      0.200000
      2 C8         -0.7370   -1.5140    3.7790 c1        1 4SP     -0.051000
      3 C10         2.7330   -0.0830    0.8590 c3        1 4SP     -0.015000
      4 C11         4.2360   -0.2600    0.5260 c3        1 4SP     -0.110000
      5 C12         4.5920    0.6510   -0.6310 c3        1 4SP     -0.153000
      6 C13         6.0980    0.6800   -0.9150 c3        1 4SP     -0.154500
      7 C14         6.9180    0.9740    0.3270 c3        1 4SP     -0.157000
      8 C15         6.5670    0.0660    1.4820 c3        1 4SP     -0.154500
      9 C16         5.0550    0.0360    1.7680 c3        1 4SP     -0.153000
     10 C19        -4.6540    1.2930   -2.3570 c1        1 4SP      0.005000
     11 C20        -5.7110    0.9330   -1.5520 c1        1 4SP     -0.859000
     12 C21        -5.6500   -0.2380   -0.8120 c1        1 4SP     -0.001000
     13 C22        -4.5250   -1.0470   -0.8830 c1        1 4SP     -0.156000
     14 N26        -8.2650    1.7070   -2.4920 n3        1 4SP     -0.953000
     15 N1         -0.0070   -1.1330   -0.6290 n1        1 4SP     -0.256000
     16 C6          0.6320   -1.0880    0.5240 c1        1 4SP      0.261000
     17 O6          1.9880   -1.1570    0.2840 o         1 4SP     -0.180000
     18 C5         -0.0530   -1.3040    1.6990 c1        1 4SP     -0.260000
     19 N7          0.3430   -1.2750    3.0130 n1        1 4SP     -0.107000
     20 N9         -1.8080   -1.6930    2.9530 n2        1 4SP     -0.229000
     21 C4         -1.3770   -1.5610    1.6680 c1        1 4SP      0.088000
     22 N3         -2.0260   -1.6070    0.4900 n1        1 4SP     -0.236000
     23 N2         -2.2900   -1.4840   -1.7120 n3        1 4SP     -0.246000
     24 C17        -3.4680   -0.6880   -1.6870 c2        1 4SP      0.138000
     25 C18        -3.5280    0.4830   -2.4270 c2        1 4SP     -0.206000
     26 S23        -7.0750    2.0310   -1.3450 s6        1 4SP      2.871000
     27 O24        -6.6560    3.3930   -1.4050 o         1 4SP     -0.940000
     28 O25        -7.6100    1.9610    0.0050 o         1 4SP     -0.940000
     29 H8         -0.7370   -1.6280    4.7520 DU        1 4SP      0.239500
     30 H101        2.4090    0.7880    0.4830 h1        1 4SP      0.102500
     31 H102        2.6150   -0.0850    1.8010 h1        1 4SP      0.102500
     32 H11         4.3960   -1.1990    0.2540 hc        1 4SP      0.109000
     33 H121        4.2820    1.5880   -0.4130 hc        1 4SP      0.084500
     34 H122        4.1320    0.3460   -1.4210 hc        1 4SP      0.084500
     35 H131        6.2780    1.3580   -1.5740 hc        1 4SP      0.080500
     36 H132        6.3770   -0.2160   -1.2850 hc        1 4SP      0.080500
     37 H141        7.8640    0.8630    0.1130 hc        1 4SP      0.079000
     38 H142        6.7590    1.9130    0.5990 hc        1 4SP      0.079000
     39 H151        6.8630   -0.8290    1.2750 hc        1 4SP      0.080500
     40 H152        7.0350    0.3750    2.2810 hc        1 4SP      0.080500
     41 H161        4.7850    0.8990    2.1240 hc        1 4SP      0.084500
     42 H162        4.8680   -0.6750    2.4590 hc        1 4SP      0.084500
     43 H19        -4.6950    2.1040   -2.8690 ha        1 4SP      0.153000
     44 H21        -6.3750   -0.4860   -0.2600 ha        1 4SP      0.153000
     45 H22        -4.4840   -1.8690   -0.3630 ha        1 4SP      0.163000
     46 H261       -8.8040    0.9660   -2.4010 hn        1 4SP      0.241000
     47 H262       -8.3710    2.2790   -3.2370 hn        1 4SP      0.241000
     48 H9         -2.6300   -1.8630    3.2060 DU        1 4SP      0.239500
     49 H2         -2.1280   -2.0390   -2.4220 hn        1 4SP      0.252000
     50 H18        -2.8080    0.7270   -2.9750 ha        1 4SP      0.142000
@<TRIPOS>BOND
     1    1   22 1   
     2    1   23 1   
     3    2   19 1   
     4    2   20 1   
     5    3    4 1   
     6    3   17 1   
     7    3   30 1   
     8    3   31 1   
     9    4    5 1   
    10    4    9 1   
    11    4   32 1   
    12    5    6 1   
    13    5   33 1   
    14    5   34 1   
    15    6    7 1   
    16    6   35 1   
    17    6   36 1   
    18    7    8 1   
    19    7   37 1   
    20    7   38 1   
    21    8    9 1   
    22    8   39 1   
    23    8   40 1   
    24    9   41 1   
    25    9   42 1   
    26   10   25 1   
    27   10   43 1   
    28   11   12 1   
    29   11   26 1   
    30   12   44 1   
    31   13   24 1   
    32   13   45 1   
    33   14   26 1   
    34   14   46 1   
    35   14   47 1   
    36   15   16 1   
    37   16   18 1   
    38   18   21 1   
    39   20   21 1   
    40   23   24 1   
    41   23   49 1   
    42   24   25 1   
    43   25   50 1   
    44   26   27 1   
    45   26   28 1   
@<TRIPOS>SUBSTRUCTURE
     1 4SP         1 TEMP              0 ****  ****    0 ROOT
