@<TRIPOS>MOLECULE
4SP
   50    53     1     0     0
SMALL
bcc


@<TRIPOS>ATOM
      1 C2         -2.2080    0.0790   -1.6150 ca        1 4SP      0.923900
      2 C8         -0.9970    0.1020   -5.9160 cc        1 4SP      0.393700
      3 C10         1.8940    0.2260   -1.0080 c3        1 4SP      0.136400
      4 C11         3.4060    0.2980   -1.1980 c3        1 4SP     -0.071700
      5 C12         4.0560    0.7060    0.1170 c3        1 4SP     -0.074900
      6 C13         5.5640    0.7520   -0.0180 c3        1 4SP     -0.075400
      7 C14         6.1170   -0.5690   -0.5130 c3        1 4SP     -0.078400
      8 C15         5.4630   -0.9850   -1.8150 c3        1 4SP     -0.075400
      9 C16         3.9550   -1.0350   -1.6800 c3        1 4SP     -0.074900
     10 C19        -1.3070    0.7240    2.7200 ca        1 4SP      0.002000
     11 C20        -1.9980   -0.1260    3.5900 ca        1 4SP     -0.413500
     12 C21        -3.0240   -0.9170    3.0590 ca        1 4SP      0.002000
     13 C22        -3.3570   -0.8640    1.7140 ca        1 4SP     -0.181500
     14 N26        -2.4900    0.9050    5.9030 n3        1 4SP     -1.026700
     15 N1         -0.8350    0.1370   -1.3900 nb        1 4SP     -0.824000
     16 C6         -0.0190    0.1690   -2.4660 ca        1 4SP      0.759600
     17 O6          1.3400    0.2290   -2.3420 os        1 4SP     -0.416100
     18 C5         -0.5310    0.1400   -3.7920 ca        1 4SP     -0.208200
     19 N7          0.0420    0.1610   -5.0710 nd        1 4SP     -0.499100
     20 N9         -2.2550    0.0390   -5.2700 na        1 4SP     -0.382000
     21 C4         -1.9880    0.0650   -3.8970 ca        1 4SP      0.471800
     22 N3         -2.8450    0.0240   -2.8410 nb        1 4SP     -0.770000
     23 N2         -3.0740    0.0960   -0.4990 nh        1 4SP     -0.727300
     24 C17        -2.6540    0.0010    0.8370 ca        1 4SP      0.221600
     25 C18        -1.6200    0.8040    1.3690 ca        1 4SP     -0.181500
     26 O24        -0.2230    0.1340    5.3560 o         1 4SP     -0.660800
     27 O25        -1.9780   -1.4900    5.7060 o         1 4SP     -0.660800
     28 H8         -0.9250    0.0980   -7.0100 h5        1 4SP      0.075800
     29 H101        1.5140    1.1220   -0.4520 h1        1 4SP      0.056700
     30 H102        1.5890   -0.7130   -0.4800 h1        1 4SP      0.056700
     31 H11         3.6310    1.0810   -1.9770 hc        1 4SP      0.069700
     32 H121        3.6770    1.7140    0.4280 hc        1 4SP      0.045700
     33 H122        3.7710   -0.0260    0.9170 hc        1 4SP      0.045700
     34 H131        5.8500    1.5680   -0.7330 hc        1 4SP      0.041200
     35 H132        6.0180    1.0010    0.9760 hc        1 4SP      0.041200
     36 H141        7.2250   -0.4790   -0.6610 hc        1 4SP      0.040200
     37 H142        5.9430   -1.3600    0.2630 hc        1 4SP      0.040200
     38 H151        5.7420   -0.2600   -2.6230 hc        1 4SP      0.041200
     39 H152        5.8430   -1.9940   -2.1210 hc        1 4SP      0.041200
     40 H161        3.6700   -1.8430   -0.9560 hc        1 4SP      0.045700
     41 H162        3.4900   -1.2850   -2.6700 hc        1 4SP      0.045700
     42 H19        -0.4800    1.3410    3.1170 ha        1 4SP      0.153000
     43 H21        -3.5640   -1.6150    3.7240 ha        1 4SP      0.153000
     44 H22        -4.1680   -1.5050    1.3350 ha        1 4SP      0.151000
     45 H261       -2.1990    1.8410    6.0260 hn        1 4SP      0.446300
     46 H262       -3.3920    0.7340    6.2690 hn        1 4SP      0.446300
     47 H9         -3.1450   -0.0030   -5.6910 hn        1 4SP      0.319700
     48 H2         -3.9980   -0.2440   -0.6790 hn        1 4SP      0.451800
     49 H18        -1.0560    1.4990    0.7290 ha        1 4SP      0.151000
     50 S23        -1.5810   -0.2250    5.2180 sy        1 4SP      1.532200
@<TRIPOS>BOND
     1    1   15 ar  
     2    1   22 ar  
     3    1   23 1   
     4    2   19 2   
     5    2   20 1   
     6    2   28 1   
     7    3    4 1   
     8    3   17 1   
     9    3   29 1   
    10    3   30 1   
    11    4    5 1   
    12    4    9 1   
    13    4   31 1   
    14    5    6 1   
    15    5   32 1   
    16    5   33 1   
    17    6    7 1   
    18    6   34 1   
    19    6   35 1   
    20    7    8 1   
    21    7   36 1   
    22    7   37 1   
    23    8    9 1   
    24    8   38 1   
    25    8   39 1   
    26    9   40 1   
    27    9   41 1   
    28   10   11 ar  
    29   10   25 ar  
    30   10   42 1   
    31   11   12 ar  
    32   11   50 1   
    33   12   13 ar  
    34   12   43 1   
    35   13   24 ar  
    36   13   44 1   
    37   14   45 1   
    38   14   46 1   
    39   14   50 1   
    40   15   16 ar  
    41   16   17 1   
    42   16   18 ar  
    43   18   19 1   
    44   18   21 ar  
    45   20   21 1   
    46   20   47 1   
    47   21   22 ar  
    48   23   24 1   
    49   23   48 1   
    50   24   25 ar  
    51   25   49 1   
    52   26   50 2   
    53   27   50 2   
@<TRIPOS>SUBSTRUCTURE
     1 4SP         1 TEMP              0 ****  ****    0 ROOT
