@<TRIPOS>MOLECULE
4SQ
   35    34     1     0     0
SMALL
bcc


@<TRIPOS>ATOM
      1 C4         -4.1520    1.6170   -0.3520 c         1 4SQ      0.922600
      2 N1         -9.7280    0.6760   -1.6000 n3        1 4SQ     -0.973800
      3 N2         -9.1470   -0.3680   -4.2350 n4        1 4SQ     -0.645800
      4 C3         -3.3120   -0.6560   -2.6340 c         1 4SQ      0.546100
      5 O42        -3.9290    2.7940   -0.0440 o         1 4SQ     -0.780800
      6 O41        -5.2790    1.0600   -0.5530 o         1 4SQ     -0.780800
      7 CA4        -2.9020    0.6850   -0.5670 c3        1 4SQ     -0.062200
      8 N4         -3.3070   -0.6330   -1.1400 n4        1 4SQ     -0.655800
      9 O3         -2.6810   -1.5590   -3.1700 o         1 4SQ     -0.430100
     10 CA3        -4.0800    0.4300   -3.3510 c3        1 4SQ     -0.145400
     11 CN3        -5.1560   -0.0990   -4.2700 c3        1 4SQ     -0.433600
     12 P          -6.6280   -0.1230   -3.5450 p5        1 4SQ      1.471100
     13 OP1        -6.9350   -1.2730   -2.7050 o         1 4SQ     -0.842300
     14 OP2        -6.9350    1.2670   -2.8400 oh        1 4SQ     -0.839400
     15 CA2        -7.8140   -0.0470   -4.7810 c3        1 4SQ     -0.161400
     16 C1        -10.0080    0.8770   -4.0390 c         1 4SQ      0.533100
     17 O1        -10.6430    1.2250   -5.0190 o         1 4SQ     -0.419100
     18 CA1        -9.9630    1.5760   -2.6750 c3        1 4SQ      0.133800
     19 H1         -6.6280    1.4540   -1.9360 ho        1 4SQ      0.553000
     20 H2         -8.9150    0.8950   -1.0610 hn        1 4SQ      0.415800
     21 H4         -9.6440   -0.9930   -4.8830 hn        1 4SQ      0.480300
     22 H6         -2.4290    0.5050    0.4360 hx        1 4SQ      0.107200
     23 H7         -2.1640    1.1880   -1.2430 hx        1 4SQ      0.107200
     24 H8         -4.2900   -0.7870   -0.8140 hn        1 4SQ      0.475800
     25 H9         -3.3010    0.9910   -3.9480 hc        1 4SQ      0.130700
     26 H10        -4.5290    1.1740   -2.6290 hc        1 4SQ      0.130700
     27 H11        -4.8530   -1.1220   -4.6360 hc        1 4SQ      0.140200
     28 H12        -5.1350    0.5370   -5.2000 hc        1 4SQ      0.140200
     29 H14        -7.8510    0.9690   -5.2700 hx        1 4SQ      0.138700
     30 H15        -7.5770   -0.7710   -5.6130 hx        1 4SQ      0.138700
     31 H16        -9.1370    2.3470   -2.7740 h1        1 4SQ      0.117200
     32 H17       -10.9560    2.1150   -2.6030 h1        1 4SQ      0.117200
     33 H13       -10.5260    0.5170   -1.0240 hn        1 4SQ      0.415800
     34 H22        -9.0260   -0.8690   -3.3280 hn        1 4SQ      0.480300
     35 H42        -2.7070   -1.3860   -0.7870 hn        1 4SQ      0.475800
@<TRIPOS>BOND
     1    1    5 1   
     2    1    6 1   
     3    1    7 1   
     4    2   18 1   
     5    2   20 1   
     6    2   33 1   
     7    3   15 1   
     8    3   16 1   
     9    3   21 1   
    10    3   34 1   
    11    4    8 1   
    12    4    9 2   
    13    4   10 1   
    14    7    8 1   
    15    7   22 1   
    16    7   23 1   
    17    8   24 1   
    18    8   35 1   
    19   10   11 1   
    20   10   25 1   
    21   10   26 1   
    22   11   12 1   
    23   11   27 1   
    24   11   28 1   
    25   12   13 2   
    26   12   14 1   
    27   12   15 1   
    28   14   19 1   
    29   15   29 1   
    30   15   30 1   
    31   16   17 2   
    32   16   18 1   
    33   18   31 1   
    34   18   32 1   
@<TRIPOS>SUBSTRUCTURE
     1 4SQ         1 TEMP              0 ****  ****    0 ROOT
