@<TRIPOS>MOLECULE
4SQ
   35    34     1     0     0
SMALL
bcc


@<TRIPOS>ATOM
      1 C4         -4.1810    1.4880   -0.2630 c         1 4SQ      0.922600
      2 N1         -9.7480    0.7570   -1.6850 n8        1 4SQ     -0.973800
      3 N2         -9.1260   -0.2390   -4.3290 ny        1 4SQ     -0.645800
      4 C3         -3.3500   -0.7550   -2.5780 c         1 4SQ      0.546100
      5 O42        -3.9310    2.6480    0.0810 o         1 4SQ     -0.780800
      6 O41        -5.3200    0.9710   -0.5090 o         1 4SQ     -0.780800
      7 CA4        -2.9560    0.5220   -0.4680 c3        1 4SQ     -0.062200
      8 N4         -3.3850   -0.7690   -1.0850 ny        1 4SQ     -0.655800
      9 O3         -2.7340   -1.6640   -3.1200 o         1 4SQ     -0.430100
     10 CA3        -4.0640    0.3730   -3.2880 c3        1 4SQ     -0.145400
     11 CN3        -5.1300   -0.0990   -4.2490 c3        1 4SQ     -0.433600
     12 P          -6.6210   -0.0930   -3.5650 p5        1 4SQ      1.471100
     13 OP1        -6.9880   -1.2530   -2.7630 o         1 4SQ     -0.842300
     14 OP2        -6.9040    1.2880   -2.8330 oh        1 4SQ     -0.839400
     15 CA2        -7.7700    0.0510   -4.8310 c3        1 4SQ     -0.161400
     16 C1         -9.9530    1.0270   -4.1250 c         1 4SQ      0.533100
     17 O1        -10.5490    1.4190   -5.1130 o         1 4SQ     -0.419100
     18 CA1        -9.9250    1.6900   -2.7430 c3        1 4SQ      0.133800
     19 H1        -10.5670    0.6090   -1.1350 hn        1 4SQ      0.415800
     20 H2         -8.9440    0.9360   -1.1190 hn        1 4SQ      0.415800
     21 H4         -9.6240   -0.8320   -5.0070 hn        1 4SQ      0.480300
     22 H6         -2.5160    0.3030    0.5420 hx        1 4SQ      0.107200
     23 H7         -2.1850    1.0180   -1.1120 hx        1 4SQ      0.107200
     24 H8         -2.8190   -1.5480   -0.7350 hn        1 4SQ      0.475800
     25 H9         -3.2510    0.9240   -3.8490 hc        1 4SQ      0.130700
     26 H10        -4.5100    1.1130   -2.5590 hc        1 4SQ      0.130700
     27 H11        -5.0630    0.5590   -5.1620 hc        1 4SQ      0.140200
     28 H12        -4.8480   -1.1220   -4.6330 hc        1 4SQ      0.140200
     29 H14        -7.7600    1.0800   -5.2940 hx        1 4SQ      0.138700
     30 H15        -7.5320   -0.6580   -5.6740 hx        1 4SQ      0.138700
     31 H16       -10.9020    2.2590   -2.6840 h1        1 4SQ      0.117200
     32 H17        -9.0720    2.4370   -2.8000 h1        1 4SQ      0.117200
     33 H13        -6.6170    1.4420   -1.9170 ho        1 4SQ      0.553000
     34 H22        -9.0470   -0.7670   -3.4330 hn        1 4SQ      0.480300
     35 H42        -4.3810   -0.8990   -0.7890 hn        1 4SQ      0.475800
@<TRIPOS>BOND
     1    1    5 1   
     2    1    6 1   
     3    1    7 1   
     4    2   18 1   
     5    2   19 1   
     6    2   20 1   
     7    3   15 1   
     8    3   16 1   
     9    3   21 1   
    10    3   34 1   
    11    4    8 1   
    12    4    9 2   
    13    4   10 1   
    14    7    8 1   
    15    7   22 1   
    16    7   23 1   
    17    8   24 1   
    18    8   35 1   
    19   10   11 1   
    20   10   25 1   
    21   10   26 1   
    22   11   12 1   
    23   11   27 1   
    24   11   28 1   
    25   12   13 2   
    26   12   14 1   
    27   12   15 1   
    28   14   33 1   
    29   15   29 1   
    30   15   30 1   
    31   16   17 2   
    32   16   18 1   
    33   18   31 1   
    34   18   32 1   
@<TRIPOS>SUBSTRUCTURE
     1 4SQ         1 TEMP              0 ****  ****    0 ROOT
