@<TRIPOS>MOLECULE
4SR
   41    43     1     0     0
SMALL
bcc


@<TRIPOS>ATOM
      1 O15        -0.1550    0.9330   -0.2200 o         1 4SR     -0.631500
      2 C14         1.0180    0.5340   -0.1600 c         1 4SR      0.695500
      3 C16         1.7620    0.1020    1.0980 c3        1 4SR     -0.156400
      4 C11         3.1460   -0.3670    0.6200 c3        1 4SR     -0.027400
      5 C12         3.1670   -0.0760   -0.9100 c3        1 4SR      0.095000
      6 N13         1.8590    0.4230   -1.2560 n         1 4SR     -0.593900
      7 C10         4.2650    0.3090    1.3320 ca        1 4SR     -0.089300
      8 C17         4.4000    1.6980    1.3020 ca        1 4SR     -0.119000
      9 C18         5.4480    2.3290    1.9730 ca        1 4SR     -0.180000
     10 C1          6.3810    1.5700    2.6810 ca        1 4SR      0.107100
     11 O19         7.4630    2.0850    3.3640 os        1 4SR     -0.302900
     12 C20         7.5310    3.5040    3.4420 c3        1 4SR      0.109700
     13 C2          6.2470    0.1560    2.7230 ca        1 4SR      0.102100
     14 C9          5.1920   -0.4600    2.0500 ca        1 4SR     -0.165000
     15 O3          7.1730   -0.5130    3.4960 os        1 4SR     -0.309900
     16 C4          7.4330   -1.8800    3.1290 c3        1 4SR      0.138100
     17 C5          8.8640   -2.1730    3.5960 c3        1 4SR     -0.094900
     18 C6          8.8190   -3.4800    4.3700 c3        1 4SR     -0.077900
     19 C7          7.3670   -3.7300    4.7550 c3        1 4SR     -0.077900
     20 C8          6.5000   -2.8370    3.8800 c3        1 4SR     -0.094900
     21 H161        1.8330    0.9690    1.8000 hc        1 4SR      0.085200
     22 H162        1.1990   -0.7200    1.6020 hc        1 4SR      0.085200
     23 H11         3.2260   -1.4780    0.7680 hc        1 4SR      0.063700
     24 H121        3.9550    0.6880   -1.1610 h1        1 4SR      0.046200
     25 H122        3.3930   -1.0170   -1.4820 h1        1 4SR      0.046200
     26 H13         1.5970    0.6260   -2.1840 hn        1 4SR      0.332500
     27 H17         3.6730    2.3070    0.7420 ha        1 4SR      0.139000
     28 H18         5.5320    3.4240    1.9340 ha        1 4SR      0.142000
     29 H201        7.6750    3.9470    2.4260 h1        1 4SR      0.045033
     30 H202        8.4320    3.6840    4.0810 h1        1 4SR      0.045033
     31 H203        6.6140    3.9210    3.9250 h1        1 4SR      0.045033
     32 H9          5.0830   -1.5550    2.0920 ha        1 4SR      0.142000
     33 H4          7.3350   -2.0020    2.0190 h1        1 4SR      0.051700
     34 H51         9.5520   -2.2420    2.7190 hc        1 4SR      0.057200
     35 H52         9.2250   -1.3350    4.2480 hc        1 4SR      0.057200
     36 H61         9.2000   -4.3190    3.7340 hc        1 4SR      0.043950
     37 H62         9.4690   -3.4280    5.2780 hc        1 4SR      0.043950
     38 H71         7.2060   -3.4820    5.8350 hc        1 4SR      0.043950
     39 H72         7.0980   -4.8060    4.6160 hc        1 4SR      0.043950
     40 H81         5.9160   -3.4500    3.1490 hc        1 4SR      0.057200
     41 H82         5.7720   -2.2560    4.4990 hc        1 4SR      0.057200
@<TRIPOS>BOND
     1    1    2 2   
     2    2    3 1   
     3    2    6 1   
     4    3    4 1   
     5    3   21 1   
     6    3   22 1   
     7    4    5 1   
     8    4    7 1   
     9    4   23 1   
    10    5    6 1   
    11    5   24 1   
    12    5   25 1   
    13    6   26 1   
    14    7    8 ar  
    15    7   14 ar  
    16    8    9 ar  
    17    8   27 1   
    18    9   10 ar  
    19    9   28 1   
    20   10   11 1   
    21   10   13 ar  
    22   11   12 1   
    23   12   29 1   
    24   12   30 1   
    25   12   31 1   
    26   13   14 ar  
    27   13   15 1   
    28   14   32 1   
    29   15   16 1   
    30   16   17 1   
    31   16   20 1   
    32   16   33 1   
    33   17   18 1   
    34   17   34 1   
    35   17   35 1   
    36   18   19 1   
    37   18   36 1   
    38   18   37 1   
    39   19   20 1   
    40   19   38 1   
    41   19   39 1   
    42   20   40 1   
    43   20   41 1   
@<TRIPOS>SUBSTRUCTURE
     1 4SR         1 TEMP              0 ****  ****    0 ROOT
