@<TRIPOS>MOLECULE
4SR
   41    43     1     0     0
SMALL
bcc


@<TRIPOS>ATOM
      1 O15        -0.1630    0.8980   -0.2190 o         1 4SR     -0.631500
      2 C14         1.0130    0.5080   -0.1610 c         1 4SR      0.695500
      3 C16         1.7610    0.0780    1.0960 c3        1 4SR     -0.156400
      4 C11         3.1480   -0.3800    0.6160 c3        1 4SR     -0.027400
      5 C12         3.1670   -0.0840   -0.9140 c3        1 4SR      0.095000
      6 N13         1.8550    0.4070   -1.2580 n         1 4SR     -0.593900
      7 C10         4.2620    0.3020    1.3300 ca        1 4SR     -0.089300
      8 C17         4.3880    1.6920    1.3040 ca        1 4SR     -0.119000
      9 C18         5.4310    2.3280    1.9770 ca        1 4SR     -0.180000
     10 C1          6.3690    1.5730    2.6820 ca        1 4SR      0.107100
     11 O19         7.4480    2.0940    3.3670 os        1 4SR     -0.302900
     12 C20         7.5050    3.5140    3.4490 c3        1 4SR      0.109700
     13 C2          6.2450    0.1580    2.7200 ca        1 4SR      0.102100
     14 C9          5.1940   -0.4630    2.0450 ca        1 4SR     -0.165000
     15 O3          7.1760   -0.5060    3.4900 os        1 4SR     -0.309900
     16 C4          7.4450   -1.8710    3.1220 c3        1 4SR      0.138100
     17 C5          8.8770   -2.1560    3.5890 c3        1 4SR     -0.094900
     18 C6          8.8390   -3.4650    4.3620 c3        1 4SR     -0.077900
     19 C7          7.3880   -3.7220    4.7460 c3        1 4SR     -0.077900
     20 C8          6.5170   -2.8340    3.8710 c3        1 4SR     -0.094900
     21 H161        1.2040   -0.7500    1.5970 hc        1 4SR      0.085200
     22 H162        1.8260    0.9430    1.8010 hc        1 4SR      0.085200
     23 H11         3.2360   -1.4910    0.7590 hc        1 4SR      0.063700
     24 H121        3.9490    0.6860   -1.1620 h1        1 4SR      0.046200
     25 H122        3.3990   -1.0210   -1.4890 h1        1 4SR      0.046200
     26 H13         1.5910    0.6100   -2.1850 hn        1 4SR      0.332500
     27 H17         3.6560    2.2970    0.7460 ha        1 4SR      0.139000
     28 H18         5.5070    3.4240    1.9410 ha        1 4SR      0.142000
     29 H201        6.5860    3.9230    3.9330 h1        1 4SR      0.045033
     30 H202        8.4050    3.6980    4.0890 h1        1 4SR      0.045033
     31 H203        7.6460    3.9610    2.4340 h1        1 4SR      0.045033
     32 H9          5.0940   -1.5580    2.0840 ha        1 4SR      0.142000
     33 H4          7.3470   -1.9920    2.0110 h1        1 4SR      0.051700
     34 H51         9.2330   -1.3170    4.2410 hc        1 4SR      0.057200
     35 H52         9.5650   -2.2210    2.7110 hc        1 4SR      0.057200
     36 H61         9.2240   -4.3010    3.7250 hc        1 4SR      0.043950
     37 H62         9.4890   -3.4090    5.2690 hc        1 4SR      0.043950
     38 H71         7.1260   -4.8000    4.6070 hc        1 4SR      0.043950
     39 H72         7.2260   -3.4750    5.8260 hc        1 4SR      0.043950
     40 H81         5.7840   -2.2590    4.4900 hc        1 4SR      0.057200
     41 H82         5.9370   -3.4510    3.1390 hc        1 4SR      0.057200
@<TRIPOS>BOND
     1    1    2 2   
     2    2    3 1   
     3    2    6 1   
     4    3    4 1   
     5    3   21 1   
     6    3   22 1   
     7    4    5 1   
     8    4    7 1   
     9    4   23 1   
    10    5    6 1   
    11    5   24 1   
    12    5   25 1   
    13    6   26 1   
    14    7    8 ar  
    15    7   14 ar  
    16    8    9 ar  
    17    8   27 1   
    18    9   10 ar  
    19    9   28 1   
    20   10   11 1   
    21   10   13 ar  
    22   11   12 1   
    23   12   29 1   
    24   12   30 1   
    25   12   31 1   
    26   13   14 ar  
    27   13   15 1   
    28   14   32 1   
    29   15   16 1   
    30   16   17 1   
    31   16   20 1   
    32   16   33 1   
    33   17   18 1   
    34   17   34 1   
    35   17   35 1   
    36   18   19 1   
    37   18   36 1   
    38   18   37 1   
    39   19   20 1   
    40   19   38 1   
    41   19   39 1   
    42   20   40 1   
    43   20   41 1   
@<TRIPOS>SUBSTRUCTURE
     1 4SR         1 TEMP              0 ****  ****    0 ROOT
