@<TRIPOS>MOLECULE
4SR
   41    40     1     0     0
SMALL
bcc


@<TRIPOS>ATOM
      1 O15        -2.3010   -4.9420    2.6890 o         1 4SR     -0.355000
      2 C14        -2.3990   -4.1380    1.7830 c1        1 4SR      0.302000
      3 C16        -1.3240   -3.7590    0.8370 c2        1 4SR     -0.185000
      4 C11        -1.8930   -2.5090    0.1890 c3        1 4SR     -0.074000
      5 C12        -3.3330   -2.3970    0.6200 c3        1 4SR     -0.022000
      6 N13        -3.6600   -3.5700    1.2570 n3        1 4SR     -0.402000
      7 C10        -1.1280   -1.3030    0.6470 c2        1 4SR     -0.099000
      8 C17        -0.8640   -1.1200    1.9950 c1        1 4SR     -0.099000
      9 C18        -0.1270   -0.0240    2.4150 c1        1 4SR     -0.192000
     10 C1          0.3460    0.8900    1.4860 c1        1 4SR      0.073000
     11 O19         1.0690    2.0150    1.9140 o         1 4SR     -0.193000
     12 C20         0.3740    2.8240    2.8340 c3        1 4SR     -0.080000
     13 C2          0.0820    0.7080    0.1370 c2        1 4SR      0.031000
     14 C9         -0.6540   -0.3890   -0.2820 c2        1 4SR     -0.120000
     15 O3          0.5190    1.6620   -0.7990 os        1 4SR     -0.211000
     16 C4          1.6950    1.1610   -1.4900 c3        1 4SR      0.033000
     17 C5          1.4700    1.2100   -3.0820 c3        1 4SR     -0.174500
     18 C6          2.3530    2.3880   -3.5930 c3        1 4SR     -0.155500
     19 C7          2.7260    3.0470   -2.4880 c3        1 4SR     -0.155500
     20 C8          2.7160    1.9400   -1.2670 c3        1 4SR     -0.174500
     21 H161       -0.4110   -3.7780    1.1880 ha        1 4SR      0.124000
     22 H162       -1.2590   -4.4330    0.1320 ha        1 4SR      0.124000
     23 H11        -1.8420   -2.5860   -0.7820 hc        1 4SR      0.105000
     24 H121       -3.4390   -1.6420    1.2350 h1        1 4SR      0.086500
     25 H122       -3.9070   -2.2720   -0.1640 h1        1 4SR      0.086500
     26 H13        -4.5020   -3.8490    1.4660 hn        1 4SR      0.246000
     27 H17        -1.1970   -1.7640    2.6490 ha        1 4SR      0.140000
     28 H18         0.0590    0.1050    3.3640 ha        1 4SR      0.142000
     29 H201        0.4380    2.4290    3.7310 h1        1 4SR      0.085000
     30 H202       -0.5690    2.8840    2.5700 h1        1 4SR      0.085000
     31 H203        0.7690    3.7220    2.8440 h1        1 4SR      0.085000
     32 H9         -0.8400   -0.5170   -1.2310 ha        1 4SR      0.144000
     33 H4          1.8950    0.2480   -1.2030 h1        1 4SR      0.082000
     34 H51         0.5280    1.3800   -3.2850 hc        1 4SR      0.097500
     35 H52         1.7580    0.3690   -3.4900 hc        1 4SR      0.097500
     36 H61         3.1390    2.0450   -4.0660 hc        1 4SR      0.081250
     37 H62         1.8320    2.9750   -4.1790 hc        1 4SR      0.081250
     38 H71         2.0920    3.7670   -2.2950 hc        1 4SR      0.081250
     39 H72         3.6280    3.4130   -2.6020 hc        1 4SR      0.081250
     40 H81         2.6120    2.3920   -0.4040 hc        1 4SR      0.097500
     41 H82         3.5450    1.4200   -1.2780 hc        1 4SR      0.097500
@<TRIPOS>BOND
     1    1    2 1   
     2    2    6 1   
     3    3    4 1   
     4    3   21 1   
     5    3   22 1   
     6    4    5 1   
     7    4    7 1   
     8    4   23 1   
     9    5    6 1   
    10    5   24 1   
    11    5   25 1   
    12    6   26 1   
    13    7    8 1   
    14    7   14 1   
    15    8   27 1   
    16    9   10 1   
    17    9   28 1   
    18   10   13 1   
    19   11   12 1   
    20   12   29 1   
    21   12   30 1   
    22   12   31 1   
    23   13   14 1   
    24   13   15 1   
    25   14   32 1   
    26   15   16 1   
    27   16   17 1   
    28   16   20 1   
    29   16   33 1   
    30   17   18 1   
    31   17   34 1   
    32   17   35 1   
    33   18   19 1   
    34   18   36 1   
    35   18   37 1   
    36   19   20 1   
    37   19   38 1   
    38   19   39 1   
    39   20   40 1   
    40   20   41 1   
@<TRIPOS>SUBSTRUCTURE
     1 4SR         1 TEMP              0 ****  ****    0 ROOT
