@<TRIPOS>MOLECULE
4SR
   41    43     1     0     0
SMALL
bcc


@<TRIPOS>ATOM
      1 O15        -0.1590    0.9140   -0.2210 o         1 4SR     -0.631500
      2 C14         1.0150    0.5200   -0.1620 c         1 4SR      0.695500
      3 C16         1.7610    0.0890    1.0960 c3        1 4SR     -0.156400
      4 C11         3.1460   -0.3740    0.6180 c3        1 4SR     -0.027400
      5 C12         3.1670   -0.0810   -0.9130 c3        1 4SR      0.095000
      6 N13         1.8570    0.4140   -1.2580 ns        1 4SR     -0.593900
      7 C10         4.2630    0.3050    1.3310 ca        1 4SR     -0.089300
      8 C17         4.3930    1.6940    1.3030 ca        1 4SR     -0.119000
      9 C18         5.4380    2.3280    1.9750 ca        1 4SR     -0.180000
     10 C1          6.3740    1.5710    2.6820 ca        1 4SR      0.107100
     11 O19         7.4540    2.0890    3.3650 os        1 4SR     -0.302900
     12 C20         7.5160    3.5090    3.4450 c3        1 4SR      0.109700
     13 C2          6.2450    0.1570    2.7210 ca        1 4SR      0.102100
     14 C9          5.1920   -0.4620    2.0470 ca        1 4SR     -0.165000
     15 O3          7.1730   -0.5100    3.4930 os        1 4SR     -0.309900
     16 C4          7.4400   -1.8740    3.1240 c3        1 4SR      0.138100
     17 C5          8.8720   -2.1630    3.5900 c3        1 4SR     -0.094900
     18 C6          8.8320   -3.4720    4.3600 c3        1 4SR     -0.077900
     19 C7          7.3820   -3.7290    4.7450 c3        1 4SR     -0.077900
     20 C8          6.5110   -2.8370    3.8720 c3        1 4SR     -0.094900
     21 H161        1.8280    0.9550    1.8000 hc        1 4SR      0.085200
     22 H162        1.2000   -0.7360    1.5980 hc        1 4SR      0.085200
     23 H11         3.2310   -1.4850    0.7630 hc        1 4SR      0.063700
     24 H121        3.9520    0.6860   -1.1620 h1        1 4SR      0.046200
     25 H122        3.3970   -1.0200   -1.4860 h1        1 4SR      0.046200
     26 H13         1.5950    0.6170   -2.1860 hn        1 4SR      0.332500
     27 H17         3.6640    2.3010    0.7440 ha        1 4SR      0.139000
     28 H18         5.5180    3.4240    1.9380 ha        1 4SR      0.142000
     29 H201        7.6590    3.9540    2.4310 h1        1 4SR      0.045033
     30 H202        8.4170    3.6910    4.0850 h1        1 4SR      0.045033
     31 H203        6.5980    3.9220    3.9290 h1        1 4SR      0.045033
     32 H9          5.0880   -1.5570    2.0880 ha        1 4SR      0.142000
     33 H4          7.3420   -1.9950    2.0130 h1        1 4SR      0.051700
     34 H51         9.5600   -2.2260    2.7120 hc        1 4SR      0.057200
     35 H52         9.2290   -1.3250    4.2440 hc        1 4SR      0.057200
     36 H61         9.4830   -3.4190    5.2680 hc        1 4SR      0.043950
     37 H62         9.2170   -4.3080    3.7220 hc        1 4SR      0.043950
     38 H71         7.2200   -3.4850    5.8250 hc        1 4SR      0.043950
     39 H72         7.1180   -4.8060    4.6030 hc        1 4SR      0.043950
     40 H81         5.7810   -2.2610    4.4940 hc        1 4SR      0.057200
     41 H82         5.9290   -3.4510    3.1400 hc        1 4SR      0.057200
@<TRIPOS>BOND
     1    1    2 2   
     2    2    3 1   
     3    2    6 1   
     4    3    4 1   
     5    3   21 1   
     6    3   22 1   
     7    4    5 1   
     8    4    7 1   
     9    4   23 1   
    10    5    6 1   
    11    5   24 1   
    12    5   25 1   
    13    6   26 1   
    14    7    8 ar  
    15    7   14 ar  
    16    8    9 ar  
    17    8   27 1   
    18    9   10 ar  
    19    9   28 1   
    20   10   11 1   
    21   10   13 ar  
    22   11   12 1   
    23   12   29 1   
    24   12   30 1   
    25   12   31 1   
    26   13   14 ar  
    27   13   15 1   
    28   14   32 1   
    29   15   16 1   
    30   16   17 1   
    31   16   20 1   
    32   16   33 1   
    33   17   18 1   
    34   17   34 1   
    35   17   35 1   
    36   18   19 1   
    37   18   36 1   
    38   18   37 1   
    39   19   20 1   
    40   19   38 1   
    41   19   39 1   
    42   20   40 1   
    43   20   41 1   
@<TRIPOS>SUBSTRUCTURE
     1 4SR         1 TEMP              0 ****  ****    0 ROOT
