@<TRIPOS>MOLECULE
4SR
   41    43     1     0     0
SMALL
bcc


@<TRIPOS>ATOM
      1 O15        -5.9470   -0.3600    0.9220 o         1 4SR     -0.631500
      2 C14        -4.8570   -0.4770    0.3420 c         1 4SR      0.695500
      3 C16        -3.4950   -0.6450    1.0040 c3        1 4SR     -0.156400
      4 C11        -2.4930   -0.8190   -0.1480 c3        1 4SR     -0.027400
      5 C12        -3.3320   -0.6310   -1.4480 c3        1 4SR      0.095000
      6 N13        -4.7040   -0.4640   -1.0360 n         1 4SR     -0.593900
      7 C10        -1.3550    0.1390   -0.0770 ca        1 4SR     -0.090300
      8 C17        -1.5750    1.5170   -0.0850 ca        1 4SR     -0.118000
      9 C18        -0.5080    2.4120   -0.0140 ca        1 4SR     -0.181000
     10 C1          0.8010    1.9320    0.0600 ca        1 4SR      0.108100
     11 O19         1.9300    2.7240    0.1140 os        1 4SR     -0.303900
     12 C20         1.7020    4.1220    0.2460 c3        1 4SR      0.109700
     13 C2          1.0340    0.5310    0.0770 ca        1 4SR      0.101100
     14 C9         -0.0450   -0.3510    0.0090 ca        1 4SR     -0.162000
     15 O3          2.3480    0.1380    0.2240 os        1 4SR     -0.310900
     16 C4          2.6980   -1.1280   -0.3660 c3        1 4SR      0.138100
     17 C5          4.1730   -1.0140   -0.7710 c3        1 4SR     -0.095400
     18 C6          4.9350   -2.1100   -0.0430 c3        1 4SR     -0.077400
     19 C7          3.9140   -3.0030    0.6490 c3        1 4SR     -0.077400
     20 C8          2.5910   -2.2530    0.6680 c3        1 4SR     -0.095400
     21 H161       -3.5130   -1.5390    1.6740 hc        1 4SR      0.085700
     22 H162       -3.2710    0.2590    1.6220 hc        1 4SR      0.085700
     23 H11        -2.0980   -1.8710   -0.1340 hc        1 4SR      0.063700
     24 H121       -2.9850    0.2720   -2.0210 h1        1 4SR      0.046200
     25 H122       -3.2280   -1.5320   -2.1120 h1        1 4SR      0.046200
     26 H13        -5.4460   -0.3910   -1.6790 hn        1 4SR      0.332500
     27 H17        -2.6030    1.9070   -0.1490 ha        1 4SR      0.139000
     28 H18        -0.7080    3.4930   -0.0220 ha        1 4SR      0.142000
     29 H201        1.1950    4.5260   -0.6640 h1        1 4SR      0.045033
     30 H202        1.1010    4.3450    1.1610 h1        1 4SR      0.045033
     31 H203        2.7360    4.5430    0.3400 h1        1 4SR      0.045033
     32 H9          0.1390   -1.4360    0.0330 ha        1 4SR      0.142000
     33 H4          2.0480   -1.3280   -1.2580 h1        1 4SR      0.051700
     34 H51         4.2660   -1.1280   -1.8790 hc        1 4SR      0.056700
     35 H52         4.5660   -0.0010   -0.4980 hc        1 4SR      0.056700
     36 H61         5.5590   -2.7020   -0.7570 hc        1 4SR      0.043700
     37 H62         5.6280   -1.6600    0.7130 hc        1 4SR      0.043700
     38 H71         3.8040   -3.9680    0.0920 hc        1 4SR      0.043700
     39 H72         4.2430   -3.2540    1.6880 hc        1 4SR      0.043700
     40 H81         2.3990   -1.8150    1.6810 hc        1 4SR      0.056700
     41 H82         1.7420   -2.9380    0.4240 hc        1 4SR      0.056700
@<TRIPOS>BOND
     1    1    2 2   
     2    2    3 1   
     3    2    6 1   
     4    3    4 1   
     5    3   21 1   
     6    3   22 1   
     7    4    5 1   
     8    4    7 1   
     9    4   23 1   
    10    5    6 1   
    11    5   24 1   
    12    5   25 1   
    13    6   26 1   
    14    7    8 ar  
    15    7   14 ar  
    16    8    9 ar  
    17    8   27 1   
    18    9   10 ar  
    19    9   28 1   
    20   10   11 1   
    21   10   13 ar  
    22   11   12 1   
    23   12   29 1   
    24   12   30 1   
    25   12   31 1   
    26   13   14 ar  
    27   13   15 1   
    28   14   32 1   
    29   15   16 1   
    30   16   17 1   
    31   16   20 1   
    32   16   33 1   
    33   17   18 1   
    34   17   34 1   
    35   17   35 1   
    36   18   19 1   
    37   18   36 1   
    38   18   37 1   
    39   19   20 1   
    40   19   38 1   
    41   19   39 1   
    42   20   40 1   
    43   20   41 1   
@<TRIPOS>SUBSTRUCTURE
     1 4SR         1 TEMP              0 ****  ****    0 ROOT
