@<TRIPOS>MOLECULE
4SS
   66    70     1     0     0
SMALL
bcc


@<TRIPOS>ATOM
      1 C2          0.1050   -0.1290    0.0020 ca        1 4SS      0.024400
      2 C3          1.4190   -0.6010    0.0850 ca        1 4SS     -0.126000
      3 C44         2.1060   -2.4360    4.4790 ca        1 4SS      0.040600
      4 C45         3.4690   -2.8250    4.5140 ca        1 4SS      0.078100
      5 C46         3.8510   -4.1490    4.2710 ca        1 4SS     -0.153000
      6 C48         2.8880   -5.1250    4.0110 ca        1 4SS     -0.058300
      7 C49         1.5380   -4.7560    3.9880 ca        1 4SS     -0.126000
      8 C51         1.1510   -3.4400    4.2100 ca        1 4SS     -0.098000
      9 C53         3.2860   -6.5320    3.7790 c3        1 4SS     -0.056800
     10 C58         5.3110   -2.0420    5.8000 c3        1 4SS      0.109100
     11 C12         2.1840   -0.0850    3.7760 c3        1 4SS      0.202300
     12 C15         0.6660   -0.8130    5.6090 c         1 4SS      0.699500
     13 C16         0.3280    0.6320    5.9190 c3        1 4SS     -0.105100
     14 C19         1.2860    1.6330    5.3940 ca        1 4SS     -0.081300
     15 C20         2.1640    1.3060    4.3620 ca        1 4SS     -0.111300
     16 C21         3.0500    2.2670    3.8510 ca        1 4SS     -0.171000
     17 C23         3.0530    3.5570    4.3740 ca        1 4SS      0.114100
     18 C24         2.1610    3.8920    5.4350 ca        1 4SS      0.124100
     19 C25         1.2900    2.9290    5.9350 ca        1 4SS     -0.176000
     20 C28         1.4950    5.4950    7.0670 c3        1 4SS      0.123400
     21 Cl1        -0.7040   -0.1450   -1.4920 cl        1 4SS     -0.089400
     22 C5          2.0790   -0.5860    1.3130 ca        1 4SS     -0.102500
     23 C7          1.4360   -0.1000    2.4570 ca        1 4SS     -0.110300
     24 C8          0.1220    0.3670    2.3620 ca        1 4SS     -0.102500
     25 C10        -0.5470    0.3550    1.1400 ca        1 4SS     -0.126000
     26 N14         1.7130   -1.0910    4.7240 n         1 4SS     -0.386000
     27 O27         2.2370    5.1940    5.8740 os        1 4SS     -0.303900
     28 C31         1.8530    6.9180    7.4250 c3        1 4SS     -0.099100
     29 O35         3.8800    4.5770    3.9610 os        1 4SS     -0.302900
     30 C36         4.6820    4.3010    2.8020 c3        1 4SS      0.124400
     31 C39         5.4050    5.5890    2.4870 c3        1 4SS     -0.100100
     32 O43         0.0450   -1.7250    6.1840 o         1 4SS     -0.616500
     33 O57         4.4570   -1.8530    4.6740 os        1 4SS     -0.350900
     34 C61         4.8350   -1.2720    6.9850 cc        1 4SS      0.349800
     35 N62         3.9780   -0.1590    6.9730 na        1 4SS     -0.155400
     36 N63         3.8300    0.2620    8.2350 nc        1 4SS     -0.200800
     37 N65         4.5380   -0.5030    8.9870 nd        1 4SS     -0.052000
     38 N66         5.1700   -1.4510    8.3030 nd        1 4SS     -0.374000
     39 H1          1.9310   -0.9840   -0.8100 ha        1 4SS      0.150000
     40 H2          4.9190   -4.4140    4.2860 ha        1 4SS      0.142000
     41 H3          0.7690   -5.5190    3.7910 ha        1 4SS      0.142000
     42 H4          0.0790   -3.1820    4.2070 ha        1 4SS      0.159000
     43 H5          2.6200   -7.0120    3.0200 hc        1 4SS      0.049367
     44 H6          4.3410   -6.5990    3.4170 hc        1 4SS      0.049367
     45 H7          3.2040   -7.1120    4.7330 hc        1 4SS      0.049367
     46 H8          6.3030   -1.6240    5.4640 h1        1 4SS      0.090200
     47 H9          5.4160   -3.1260    6.0720 h1        1 4SS      0.090200
     48 H10         3.2700   -0.3440    3.5550 h1        1 4SS      0.091700
     49 H11         0.2530    0.7140    7.0400 hc        1 4SS      0.092700
     50 H12        -0.6980    0.8330    5.5020 hc        1 4SS      0.092700
     51 H13         3.7320    1.9880    3.0350 ha        1 4SS      0.148000
     52 H14         0.5980    3.1670    6.7560 ha        1 4SS      0.149000
     53 H15         1.7880    4.7830    7.8830 h1        1 4SS      0.040200
     54 H16         0.3990    5.3930    6.8530 h1        1 4SS      0.040200
     55 H17         3.1110   -0.9640    1.3760 ha        1 4SS      0.140500
     56 H18        -0.3860    0.7540    3.2590 ha        1 4SS      0.140500
     57 H19        -1.5810    0.7260    1.0740 ha        1 4SS      0.150000
     58 H20         1.2920    7.2150    8.3430 hc        1 4SS      0.051367
     59 H21         2.9490    7.0080    7.6180 hc        1 4SS      0.051367
     60 H22         1.5860    7.6100    6.5900 hc        1 4SS      0.051367
     61 H23         4.0210    3.9860    1.9530 h1        1 4SS      0.038200
     62 H24         5.4050    3.4770    3.0420 h1        1 4SS      0.038200
     63 H25         6.0340    5.9060    3.3540 hc        1 4SS      0.051700
     64 H26         4.6740    6.4040    2.2680 hc        1 4SS      0.051700
     65 H27         6.0590    5.4320    1.5970 hc        1 4SS      0.051700
     66 H28         3.5010    0.2530    6.1980 hn        1 4SS      0.350700
@<TRIPOS>BOND
     1    1    2 ar  
     2    1   21 1   
     3    1   25 ar  
     4    2   22 ar  
     5    2   39 1   
     6    3    4 ar  
     7    3    8 ar  
     8    3   26 1   
     9    4    5 ar  
    10    4   33 1   
    11    5    6 ar  
    12    5   40 1   
    13    6    7 ar  
    14    6    9 1   
    15    7    8 ar  
    16    7   41 1   
    17    8   42 1   
    18    9   43 1   
    19    9   44 1   
    20    9   45 1   
    21   10   33 1   
    22   10   34 1   
    23   10   46 1   
    24   10   47 1   
    25   11   15 1   
    26   11   23 1   
    27   11   26 1   
    28   11   48 1   
    29   12   13 1   
    30   12   26 1   
    31   12   32 2   
    32   13   14 1   
    33   13   49 1   
    34   13   50 1   
    35   14   15 ar  
    36   14   19 ar  
    37   15   16 ar  
    38   16   17 ar  
    39   16   51 1   
    40   17   18 ar  
    41   17   29 1   
    42   18   19 ar  
    43   18   27 1   
    44   19   52 1   
    45   20   27 1   
    46   20   28 1   
    47   20   53 1   
    48   20   54 1   
    49   22   23 ar  
    50   22   55 1   
    51   23   24 ar  
    52   24   25 ar  
    53   24   56 1   
    54   25   57 1   
    55   28   58 1   
    56   28   59 1   
    57   28   60 1   
    58   29   30 1   
    59   30   31 1   
    60   30   61 1   
    61   30   62 1   
    62   31   63 1   
    63   31   64 1   
    64   31   65 1   
    65   34   35 1   
    66   34   38 2   
    67   35   36 1   
    68   35   66 1   
    69   36   37 2   
    70   37   38 1   
@<TRIPOS>SUBSTRUCTURE
     1 4SS         1 TEMP              0 ****  ****    0 ROOT
