@<TRIPOS>MOLECULE
4SS
   66    70     1     0     0
SMALL
bcc


@<TRIPOS>ATOM
      1 C2          0.1280   -0.1410   -0.0100 ca        1 4SS      0.024400
      2 C3          1.4390   -0.6180    0.0830 ca        1 4SS     -0.126000
      3 C44         2.1060   -2.4350    4.4830 ca        1 4SS      0.040600
      4 C45         3.4690   -2.8240    4.5270 ca        1 4SS      0.078100
      5 C46         3.8540   -4.1480    4.2890 ca        1 4SS     -0.153000
      6 C48         2.8930   -5.1250    4.0270 ca        1 4SS     -0.058300
      7 C49         1.5430   -4.7580    3.9960 ca        1 4SS     -0.126000
      8 C51         1.1540   -3.4410    4.2120 ca        1 4SS     -0.098000
      9 C53         3.2930   -6.5330    3.8010 c3        1 4SS     -0.056800
     10 C58         5.3050   -2.0360    5.8200 c3        1 4SS      0.109100
     11 C12         2.1870   -0.0860    3.7740 c3        1 4SS      0.203300
     12 C15         0.6590   -0.8110    5.6010 c         1 4SS      0.699500
     13 C16         0.3190    0.6350    5.9050 c3        1 4SS     -0.105100
     14 C19         1.2800    1.6350    5.3830 ca        1 4SS     -0.081300
     15 C20         2.1640    1.3060    4.3570 ca        1 4SS     -0.111300
     16 C21         3.0530    2.2650    3.8500 ca        1 4SS     -0.171000
     17 C23         3.0530    3.5570    4.3700 ca        1 4SS      0.114100
     18 C24         2.1540    3.8940    5.4250 ca        1 4SS      0.124100
     19 C25         1.2800    2.9320    5.9220 ca        1 4SS     -0.176000
     20 C28         1.4790    5.5000    7.0500 c3        1 4SS      0.123400
     21 CL1        -0.6730   -0.1620   -1.5080 cl        1 4SS     -0.089400
     22 C5          2.0920   -0.6000    1.3140 ca        1 4SS     -0.102500
     23 C7          1.4460   -0.1050    2.4520 ca        1 4SS     -0.110300
     24 C8          0.1350    0.3670    2.3470 ca        1 4SS     -0.102500
     25 C10        -0.5290    0.3520    1.1220 ca        1 4SS     -0.126000
     26 N14         1.7120   -1.0910    4.7220 n         1 4SS     -0.386000
     27 O27         2.2280    5.1970    5.8620 os        1 4SS     -0.303900
     28 C31         1.8340    6.9250    7.4060 c3        1 4SS     -0.099100
     29 O35         3.8820    4.5750    3.9590 os        1 4SS     -0.302900
     30 C36         4.6920    4.2970    2.8070 c3        1 4SS      0.124400
     31 C39         5.4170    5.5850    2.4940 c3        1 4SS     -0.100100
     32 O43         0.0360   -1.7210    6.1760 o         1 4SS     -0.616500
     33 O57         4.4560   -1.8510    4.6890 os        1 4SS     -0.350900
     34 C61         4.8220   -1.2640    7.0010 cc        1 4SS      0.349800
     35 N62         3.9640   -0.1510    6.9810 na        1 4SS     -0.155400
     36 N63         3.8100    0.2730    8.2420 nc        1 4SS     -0.200800
     37 N65         4.5150   -0.4900    8.9990 nd        1 4SS     -0.052000
     38 N66         5.1510   -1.4390    8.3210 nd        1 4SS     -0.374000
     39 H1          1.9540   -1.0090   -0.8080 ha        1 4SS      0.150000
     40 H2          4.9220   -4.4120    4.3110 ha        1 4SS      0.142000
     41 H3          0.7750   -5.5220    3.7970 ha        1 4SS      0.142000
     42 H4          0.0820   -3.1840    4.2020 ha        1 4SS      0.159000
     43 H5          4.3490   -6.6000    3.4430 hc        1 4SS      0.049367
     44 H6          2.6300   -7.0170    3.0420 hc        1 4SS      0.049367
     45 H7          3.2090   -7.1090    4.7570 hc        1 4SS      0.049367
     46 H8          6.2980   -1.6190    5.4880 h1        1 4SS      0.090200
     47 H9          5.4090   -3.1200    6.0950 h1        1 4SS      0.090200
     48 H10         3.2740   -0.3460    3.5590 h1        1 4SS      0.091700
     49 H11        -0.7050    0.8340    5.4810 hc        1 4SS      0.092700
     50 H12         0.2360    0.7200    7.0250 hc        1 4SS      0.092700
     51 H13         3.7400    1.9850    3.0380 ha        1 4SS      0.148000
     52 H14         0.5840    3.1720    6.7380 ha        1 4SS      0.149000
     53 H15         0.3840    5.3980    6.8280 h1        1 4SS      0.040200
     54 H16         1.7670    4.7900    7.8690 h1        1 4SS      0.040200
     55 H17         3.1220   -0.9830    1.3850 ha        1 4SS      0.140500
     56 H18        -0.3760    0.7620    3.2400 ha        1 4SS      0.140500
     57 H19        -1.5610    0.7270    1.0480 ha        1 4SS      0.150000
     58 H20         2.9290    7.0160    7.6050 hc        1 4SS      0.051367
     59 H21         1.2680    7.2240    8.3190 hc        1 4SS      0.051367
     60 H22         1.5720    7.6140    6.5680 hc        1 4SS      0.051367
     61 H23         4.0360    3.9800    1.9540 h1        1 4SS      0.038200
     62 H24         5.4130    3.4740    3.0540 h1        1 4SS      0.038200
     63 H25         6.0770    5.4250    1.6080 hc        1 4SS      0.051700
     64 H26         6.0400    5.9040    3.3640 hc        1 4SS      0.051700
     65 H27         4.6880    6.3980    2.2680 hc        1 4SS      0.051700
     66 H28         3.4910    0.2580    6.2030 hn        1 4SS      0.350700
@<TRIPOS>BOND
     1    1    2 ar  
     2    1   21 1   
     3    1   25 ar  
     4    2   22 ar  
     5    2   39 1   
     6    3    4 ar  
     7    3    8 ar  
     8    3   26 1   
     9    4    5 ar  
    10    4   33 1   
    11    5    6 ar  
    12    5   40 1   
    13    6    7 ar  
    14    6    9 1   
    15    7    8 ar  
    16    7   41 1   
    17    8   42 1   
    18    9   43 1   
    19    9   44 1   
    20    9   45 1   
    21   10   33 1   
    22   10   34 1   
    23   10   46 1   
    24   10   47 1   
    25   11   15 1   
    26   11   23 1   
    27   11   26 1   
    28   11   48 1   
    29   12   13 1   
    30   12   26 1   
    31   12   32 2   
    32   13   14 1   
    33   13   49 1   
    34   13   50 1   
    35   14   15 ar  
    36   14   19 ar  
    37   15   16 ar  
    38   16   17 ar  
    39   16   51 1   
    40   17   18 ar  
    41   17   29 1   
    42   18   19 ar  
    43   18   27 1   
    44   19   52 1   
    45   20   27 1   
    46   20   28 1   
    47   20   53 1   
    48   20   54 1   
    49   22   23 ar  
    50   22   55 1   
    51   23   24 ar  
    52   24   25 ar  
    53   24   56 1   
    54   25   57 1   
    55   28   58 1   
    56   28   59 1   
    57   28   60 1   
    58   29   30 1   
    59   30   31 1   
    60   30   61 1   
    61   30   62 1   
    62   31   63 1   
    63   31   64 1   
    64   31   65 1   
    65   34   35 1   
    66   34   38 2   
    67   35   36 1   
    68   35   66 1   
    69   36   37 2   
    70   37   38 1   
@<TRIPOS>SUBSTRUCTURE
     1 4SS         1 TEMP              0 ****  ****    0 ROOT
