@<TRIPOS>MOLECULE
4ST
   66    73     1     0     0
SMALL
bcc


@<TRIPOS>ATOM
      1 CAB        -0.1000   -1.0140    0.3010 c3        1 4ST      0.106700
      2 OAQ         1.0150   -0.1270    0.2610 os        1 4ST     -0.431600
      3 CBF         1.7320   -0.0310    1.4790 c3        1 4ST      0.099100
      4 CBD         1.6450    1.4350    1.9720 c3        1 4ST      0.115500
      5 NAO         2.1080    2.4080    0.9230 ny        1 4ST     -0.747000
      6 CAA         1.4820    3.7390    1.0650 c3        1 4ST      0.082100
      7 CAN         2.4070    1.5380    3.2860 c3        1 4ST     -0.134400
      8 CBE         3.8410    0.9770    3.2090 c3        1 4ST      0.226800
      9 OAR         3.8810   -0.2950    2.5660 os        1 4ST     -0.394600
     10 CBI         3.2190   -0.4990    1.3010 c3        1 4ST      0.233500
     11 CAC         3.2280   -2.0390    1.1870 c3        1 4ST     -0.106100
     12 NBH         3.8610    0.2020    0.1780 na        1 4ST     -0.105300
     13 CAY         4.0010   -0.4410   -1.1040 ca        1 4ST     -0.042200
     14 CAH         3.0640   -1.1760   -1.8270 ca        1 4ST     -0.134000
     15 CAF         3.4120   -1.6200   -3.1070 ca        1 4ST     -0.104000
     16 CAE         4.6540   -1.3290   -3.6670 ca        1 4ST     -0.127000
     17 CAG         5.5950   -0.5660   -2.9680 ca        1 4ST     -0.079000
     18 CAX         5.2770   -0.1170   -1.6960 cp        1 4ST     -0.060000
     19 CBA         5.9950    0.7160   -0.7420 cp        1 4ST     -0.029000
     20 CBC         5.1160    0.8510    0.3960 ca        1 4ST     -0.051200
     21 CBB         5.5020    1.6250    1.4770 ca        1 4ST     -0.094200
     22 NBG         4.7700    1.9480    2.6490 na        1 4ST     -0.127400
     23 CAV         5.6860    2.6770    3.4770 cc        1 4ST     -0.078300
     24 CAL         5.3830    3.1820    4.8360 c3        1 4ST     -0.019200
     25 CAJ         6.6550    3.6850    5.5030 c3        1 4ST     -0.077400
     26 CAI         7.5040    4.5250    4.5710 c3        1 4ST     -0.079400
     27 CAK         7.9700    3.7390    3.3560 c3        1 4ST     -0.032200
     28 CAT         6.8690    2.9400    2.7960 cd        1 4ST     -0.063400
     29 CAZ         6.7980    2.2800    1.5010 ca        1 4ST      0.024200
     30 CAW         7.6120    2.1470    0.3960 ca        1 4ST     -0.124600
     31 CAU         7.2130    1.3590   -0.7230 ca        1 4ST     -0.048300
     32 CAM         8.3130    1.4050   -1.7600 c3        1 4ST      0.131300
     33 NAP         9.3090    2.3050   -1.1970 ns        1 4ST     -0.575900
     34 CAS         8.9700    2.7120    0.1000 c         1 4ST      0.715100
     35 OAD         9.6740    3.4280    0.8220 o         1 4ST     -0.599500
     36 HAB1       -0.8510   -0.6610    1.0500 h1        1 4ST      0.057700
     37 HAB2        0.2360   -2.0520    0.5410 h1        1 4ST      0.057700
     38 HAB3       -0.5170   -0.9630   -0.7370 h1        1 4ST      0.057700
     39 HBF         1.2830   -0.6780    2.2850 h1        1 4ST      0.100700
     40 HBD         0.5510    1.6700    2.1560 hx        1 4ST      0.103700
     41 HNO         3.1320    2.5120    0.9670 hn        1 4ST      0.478800
     42 HAA1        1.9020    4.4250    0.2800 hx        1 4ST      0.102700
     43 HAA2        0.3700    3.6550    0.9310 hx        1 4ST      0.102700
     44 HAA3        1.7060    4.1560    2.0830 hx        1 4ST      0.102700
     45 HAN1        1.8470    0.9190    4.0410 hc        1 4ST      0.094200
     46 HAN2        2.4250    2.5930    3.6660 hc        1 4ST      0.094200
     47 HBE         4.1710    0.7070    4.2670 h2        1 4ST      0.117700
     48 HAC1        4.2450   -2.4010    0.9040 hc        1 4ST      0.073367
     49 HAC2        2.9590   -2.4790    2.1770 hc        1 4ST      0.073367
     50 HAC3        2.4880   -2.3620    0.4190 hc        1 4ST      0.073367
     51 HAH         2.0660   -1.3940   -1.4150 ha        1 4ST      0.144000
     52 HAF         2.6820   -2.2120   -3.6810 ha        1 4ST      0.147000
     53 HAE         4.8990   -1.6990   -4.6750 ha        1 4ST      0.152000
     54 HAG         6.5680   -0.3210   -3.4190 ha        1 4ST      0.148000
     55 HAL1        4.6360    4.0190    4.7600 hc        1 4ST      0.048700
     56 HAL2        4.9220    2.3780    5.4710 hc        1 4ST      0.048700
     57 HAJ1        7.2560    2.8070    5.8600 hc        1 4ST      0.056700
     58 HAJ2        6.3730    4.2910    6.4030 hc        1 4ST      0.056700
     59 HAI1        6.9160    5.4190    4.2350 hc        1 4ST      0.053700
     60 HAI2        8.4020    4.9030    5.1270 hc        1 4ST      0.053700
     61 HAK1        8.3840    4.4350    2.5750 hc        1 4ST      0.083700
     62 HAK2        8.8110    3.0480    3.6420 hc        1 4ST      0.083700
     63 HAM1        8.7360    0.3780   -1.9410 h1        1 4ST      0.070200
     64 HAM2        7.9330    1.8170   -2.7360 h1        1 4ST      0.070200
     65 HAP        10.2330    2.3350   -1.5460 hn        1 4ST      0.341500
     66 HAO2        1.8690    2.0080    0.0010 hn        1 4ST      0.478800
@<TRIPOS>BOND
     1    1    2 1   
     2    1   36 1   
     3    1   37 1   
     4    1   38 1   
     5    2    3 1   
     6    3    4 1   
     7    3   10 1   
     8    3   39 1   
     9    4    5 1   
    10    4    7 1   
    11    4   40 1   
    12    5    6 1   
    13    5   41 1   
    14    5   66 1   
    15    6   42 1   
    16    6   43 1   
    17    6   44 1   
    18    7    8 1   
    19    7   45 1   
    20    7   46 1   
    21    8    9 1   
    22    8   22 1   
    23    8   47 1   
    24    9   10 1   
    25   10   11 1   
    26   10   12 1   
    27   11   48 1   
    28   11   49 1   
    29   11   50 1   
    30   12   13 1   
    31   12   20 1   
    32   13   14 ar  
    33   13   18 ar  
    34   14   15 ar  
    35   14   51 1   
    36   15   16 ar  
    37   15   52 1   
    38   16   17 ar  
    39   16   53 1   
    40   17   18 ar  
    41   17   54 1   
    42   18   19 1   
    43   19   20 ar  
    44   19   31 ar  
    45   20   21 ar  
    46   21   22 1   
    47   21   29 ar  
    48   22   23 1   
    49   23   24 1   
    50   23   28 2   
    51   24   25 1   
    52   24   55 1   
    53   24   56 1   
    54   25   26 1   
    55   25   57 1   
    56   25   58 1   
    57   26   27 1   
    58   26   59 1   
    59   26   60 1   
    60   27   28 1   
    61   27   61 1   
    62   27   62 1   
    63   28   29 1   
    64   29   30 ar  
    65   30   31 ar  
    66   30   34 1   
    67   31   32 1   
    68   32   33 1   
    69   32   63 1   
    70   32   64 1   
    71   33   34 1   
    72   33   65 1   
    73   34   35 2   
@<TRIPOS>SUBSTRUCTURE
     1 4ST         1 TEMP              0 ****  ****    0 ROOT
