@<TRIPOS>MOLECULE
4ST
   65    63     1     0     0
SMALL
bcc


@<TRIPOS>ATOM
      1 CAB        -4.9280   -0.5990   -0.6600 c3        1 4ST     -0.079000
      2 OAQ        -3.4880   -0.5990   -0.6600 os        1 4ST     -0.264000
      3 CBF        -2.9130   -0.5990    0.6410 c3        1 4ST     -0.014000
      4 CBD        -2.4800    0.7900    0.9940 c3        1 4ST     -0.033000
      5 NAO        -1.5700    1.2800   -0.0090 n3        1 4ST     -0.298000
      6 CAA        -1.8400    2.6850   -0.2610 c3        1 4ST     -0.119000
      7 CAN        -1.7910    0.7750    2.3370 c3        1 4ST     -0.191000
      8 CBE        -0.6410   -0.2320    2.3120 c3        1 4ST      0.183000
      9 OAR        -1.1500   -1.5230    1.9690 os        1 4ST     -0.269000
     10 CBI        -1.7180   -1.5220    0.6630 c3        1 4ST      0.245000
     11 CAC        -2.1800   -2.9580    0.3120 c3        1 4ST     -0.223000
     12 NBH        -0.7520   -1.0800   -0.3230 n3        1 4ST     -0.196000
     13 CAY        -0.9650   -1.1220   -1.7580 c1        1 4ST      0.069500
     14 CAH        -2.1680   -1.1160   -2.4880 c1        1 4ST     -0.126000
     15 CAF        -2.1870   -1.5770   -3.8090 c1        1 4ST     -0.126000
     16 CAE        -1.0080   -2.0450   -4.4050 c1        1 4ST     -0.126000
     17 CAG         0.1860   -2.0510   -3.6820 c1        1 4ST     -0.126000
     18 CAX         0.2070   -1.5870   -2.3510 c1        1 4ST     -0.033500
     19 CBA         1.1500   -1.8370   -1.3170 c1        1 4ST     -0.072000
     20 CBC         0.5000   -1.6090   -0.0620 c1        1 4ST      0.069500
     21 CBB         1.1410   -0.8990    0.9240 c1        1 4ST     -0.033500
     22 NBG         0.3450    0.1980    1.3640 n2        1 4ST     -0.170000
     23 CAV         1.2150    1.2940    1.6200 c1        1 4ST     -0.020000
     24 CAL         1.0860    2.4300    2.7310 c2        1 4ST     -0.100000
     25 CAJ         2.3010    2.8660    3.3410 c3        1 4ST     -0.151000
     26 CAI         3.4730    2.9280    2.4930 c3        1 4ST     -0.155000
     27 CAK         3.7990    1.7530    1.7550 c3        1 4ST     -0.098000
     28 CAT         2.5730    0.8970    1.2000 c2        1 4ST     -0.123000
     29 CAZ         2.5010   -0.4110    0.7060 c1        1 4ST      0.023000
     30 CAW         3.1750   -0.7080   -0.5130 c1        1 4ST     -0.130000
     31 CAU         2.5210   -1.4070   -1.5120 c1        1 4ST     -0.042000
     32 CAM         3.4800   -1.5490   -2.6930 c3        1 4ST      0.000000
     33 NAP         4.7110   -0.8940   -2.3480 n         1 4ST     -0.381000
     34 CAS         4.5950   -0.4140   -0.9980 c2        1 4ST      0.351000
     35 OAD         5.4930    0.0700   -0.3310 o         1 4ST     -0.350000
     36 HAB1       -5.2530   -0.1600    0.1480 h1        1 4ST      0.078667
     37 HAB2       -5.2530   -1.5190   -0.6840 h1        1 4ST      0.078667
     38 HAB3       -5.2530   -0.1190   -1.4450 h1        1 4ST      0.078667
     39 HBF        -3.5750   -0.9080    1.2880 h1        1 4ST      0.097000
     40 HBD        -3.2610    1.3730    1.0370 h1        1 4ST      0.066000
     41 HNO        -1.6820    0.8050   -0.7790 hn        1 4ST      0.185000
     42 HAA1       -1.1360    3.0550   -0.8280 h1        1 4ST      0.069333
     43 HAA2       -2.7010    2.7750   -0.7120 h1        1 4ST      0.069333
     44 HAA3       -1.8640    3.1700    0.5860 h1        1 4ST      0.069333
     45 HAN1       -2.4310    0.5200    3.0290 hc        1 4ST      0.103500
     46 HAN2       -1.4390    1.6650    2.5320 hc        1 4ST      0.103500
     47 HBE        -0.2350   -0.2740    3.1980 h2        1 4ST      0.124000
     48 HAC1       -2.8590   -3.2470    0.9510 hc        1 4ST      0.102333
     49 HAC2       -2.5550   -2.9680   -0.5890 hc        1 4ST      0.102333
     50 HAC3       -1.4160   -3.5640    0.3530 hc        1 4ST      0.102333
     51 HAH        -2.9890   -0.7910   -2.0730 ha        1 4ST      0.134000
     52 HAF        -3.0210   -1.5730   -4.3150 ha        1 4ST      0.134000
     53 HAE        -1.0220   -2.3660   -5.3270 ha        1 4ST      0.134000
     54 HAG         1.0070   -2.3770   -4.0980 ha        1 4ST      0.134000
     55 HAL1        0.4980    2.0970    3.4360 ha        1 4ST      0.086500
     56 HAL2        0.6600    3.2060    2.3210 ha        1 4ST      0.086500
     57 HAJ1        2.4980    2.2620    4.0820 hc        1 4ST      0.083500
     58 HAJ2        2.1490    3.7570    3.7090 hc        1 4ST      0.083500
     59 HAI1        3.3440    3.6560    1.8560 hc        1 4ST      0.081500
     60 HAI2        4.2390    3.1510    3.0560 hc        1 4ST      0.081500
     61 HAK1        4.3500    2.0180    0.9940 hc        1 4ST      0.108000
     62 HAK2        4.3350    1.1740    2.3300 hc        1 4ST      0.108000
     63 HAM1        3.6480   -2.4940   -2.8700 h1        1 4ST      0.098000
     64 HAM2        3.0940   -1.1290   -3.4840 h1        1 4ST      0.098000
     65 HAP         5.4470   -0.8210   -2.8810 hn        1 4ST      0.229000
@<TRIPOS>BOND
     1    1    2 1   
     2    1   36 1   
     3    1   37 1   
     4    1   38 1   
     5    2    3 1   
     6    3    4 1   
     7    3   10 1   
     8    3   39 1   
     9    4    5 1   
    10    4    7 1   
    11    4   40 1   
    12    5    6 1   
    13    5   41 1   
    14    6   42 1   
    15    6   43 1   
    16    6   44 1   
    17    7    8 1   
    18    7   45 1   
    19    7   46 1   
    20    8    9 1   
    21    8   22 1   
    22    8   47 1   
    23    9   10 1   
    24   10   11 1   
    25   10   12 1   
    26   11   48 1   
    27   11   49 1   
    28   11   50 1   
    29   12   13 1   
    30   12   20 1   
    31   13   18 1   
    32   14   15 1   
    33   14   51 1   
    34   15   52 1   
    35   16   17 1   
    36   16   53 1   
    37   17   54 1   
    38   19   31 1   
    39   20   21 1   
    40   22   23 1   
    41   23   28 1   
    42   24   25 1   
    43   24   55 1   
    44   24   56 1   
    45   25   26 1   
    46   25   57 1   
    47   25   58 1   
    48   26   27 1   
    49   26   59 1   
    50   26   60 1   
    51   27   28 1   
    52   27   61 1   
    53   27   62 1   
    54   28   29 1   
    55   29   30 1   
    56   30   34 1   
    57   31   32 1   
    58   32   33 1   
    59   32   63 1   
    60   32   64 1   
    61   33   34 1   
    62   33   65 1   
    63   34   35 1   
@<TRIPOS>SUBSTRUCTURE
     1 4ST         1 TEMP              0 ****  ****    0 ROOT
