@<TRIPOS>MOLECULE
4ST
   66    73     1     0     0
SMALL
bcc


@<TRIPOS>ATOM
      1 CAB        -0.1080   -0.9960    0.2980 c3        1 4ST      0.106700
      2 OAQ         1.0110   -0.1140    0.2570 os        1 4ST     -0.431600
      3 CBF         1.7260   -0.0180    1.4770 c3        1 4ST      0.099100
      4 CBD         1.6440    1.4500    1.9650 c3        1 4ST      0.115500
      5 NAO         2.1130    2.4180    0.9140 n4        1 4ST     -0.747000
      6 CAA         1.4920    3.7520    1.0510 c3        1 4ST      0.082100
      7 CAN         2.4030    1.5540    3.2800 c3        1 4ST     -0.134400
      8 CBE         3.8350    0.9860    3.2080 c3        1 4ST      0.226800
      9 OAR         3.8720   -0.2870    2.5690 os        1 4ST     -0.394600
     10 CBI         3.2110   -0.4930    1.3040 c3        1 4ST      0.233500
     11 CAC         3.2140   -2.0330    1.1940 c3        1 4ST     -0.106100
     12 NBH         3.8590    0.2020    0.1800 na        1 4ST     -0.105300
     13 CAY         3.9980   -0.4450   -1.1000 ca        1 4ST     -0.042200
     14 CAH         3.0600   -1.1780   -1.8230 ca        1 4ST     -0.134000
     15 CAF         3.4080   -1.6280   -3.1000 ca        1 4ST     -0.104000
     16 CAE         4.6540   -1.3440   -3.6590 ca        1 4ST     -0.127000
     17 CAG         5.5960   -0.5830   -2.9600 ca        1 4ST     -0.079000
     18 CAX         5.2780   -0.1290   -1.6910 cp        1 4ST     -0.060000
     19 CBA         5.9970    0.7040   -0.7380 cp        1 4ST     -0.029000
     20 CBC         5.1150    0.8470    0.3990 ca        1 4ST     -0.051200
     21 CBB         5.5030    1.6220    1.4780 ca        1 4ST     -0.094200
     22 NBG         4.7700    1.9520    2.6470 na        1 4ST     -0.127400
     23 CAV         5.6880    2.6790    3.4760 cc        1 4ST     -0.078300
     24 CAL         5.3830    3.1890    4.8320 c3        1 4ST     -0.019200
     25 CAJ         6.6560    3.6880    5.5010 c3        1 4ST     -0.077400
     26 CAI         7.5110    4.5220    4.5680 c3        1 4ST     -0.079400
     27 CAK         7.9760    3.7300    3.3560 c3        1 4ST     -0.032200
     28 CAT         6.8730    2.9340    2.7960 cd        1 4ST     -0.063400
     29 CAZ         6.8020    2.2710    1.5030 ca        1 4ST      0.024200
     30 CAW         7.6180    2.1320    0.4000 ca        1 4ST     -0.124600
     31 CAU         7.2170    1.3420   -0.7170 ca        1 4ST     -0.048300
     32 CAM         8.3210    1.3800   -1.7520 c3        1 4ST      0.131300
     33 NAP         9.3190    2.2770   -1.1900 n         1 4ST     -0.575900
     34 CAS         8.9790    2.6890    0.1050 c         1 4ST      0.715100
     35 OAD         9.6840    3.4050    0.8270 o         1 4ST     -0.599500
     36 HAB1       -0.8590   -0.6370    1.0430 h1        1 4ST      0.057700
     37 HAB2       -0.5220   -0.9460   -0.7420 h1        1 4ST      0.057700
     38 HAB3        0.2220   -2.0350    0.5420 h1        1 4ST      0.057700
     39 HBF         1.2720   -0.6600    2.2840 h1        1 4ST      0.100700
     40 HBD         0.5510    1.6910    2.1460 hx        1 4ST      0.103700
     41 HNO         3.1380    2.5180    0.9600 hn        1 4ST      0.478800
     42 HAA1        1.9180    4.4340    0.2640 hx        1 4ST      0.102700
     43 HAA2        0.3810    3.6720    0.9140 hx        1 4ST      0.102700
     44 HAA3        1.7170    4.1710    2.0680 hx        1 4ST      0.102700
     45 HAN1        2.4260    2.6100    3.6570 hc        1 4ST      0.094200
     46 HAN2        1.8400    0.9400    4.0360 hc        1 4ST      0.094200
     47 HBE         4.1620    0.7180    4.2680 h2        1 4ST      0.117700
     48 HAC1        2.4740   -2.3550    0.4250 hc        1 4ST      0.073367
     49 HAC2        4.2300   -2.4010    0.9140 hc        1 4ST      0.073367
     50 HAC3        2.9410   -2.4690    2.1850 hc        1 4ST      0.073367
     51 HAH         2.0610   -1.3900   -1.4130 ha        1 4ST      0.144000
     52 HAF         2.6770   -2.2180   -3.6750 ha        1 4ST      0.147000
     53 HAE         4.8980   -1.7170   -4.6660 ha        1 4ST      0.152000
     54 HAG         6.5710   -0.3430   -3.4100 ha        1 4ST      0.148000
     55 HAL1        4.6410    4.0300    4.7530 hc        1 4ST      0.048700
     56 HAL2        4.9180    2.3890    5.4690 hc        1 4ST      0.048700
     57 HAJ1        7.2520    2.8090    5.8620 hc        1 4ST      0.056700
     58 HAJ2        6.3750    4.2980    6.3990 hc        1 4ST      0.056700
     59 HAI1        8.4100    4.8970    5.1250 hc        1 4ST      0.053700
     60 HAI2        6.9280    5.4180    4.2280 hc        1 4ST      0.053700
     61 HAK1        8.3950    4.4220    2.5740 hc        1 4ST      0.083700
     62 HAK2        8.8130    3.0360    3.6460 hc        1 4ST      0.083700
     63 HAM1        8.7390    0.3500   -1.9290 h1        1 4ST      0.070700
     64 HAM2        7.9440    1.7910   -2.7300 h1        1 4ST      0.070700
     65 HAP        10.2430    2.3020   -1.5360 hn        1 4ST      0.341500
     66 HAO2        1.8750    2.0170   -0.0070 hn        1 4ST      0.478800
@<TRIPOS>BOND
     1    1    2 1   
     2    1   36 1   
     3    1   37 1   
     4    1   38 1   
     5    2    3 1   
     6    3    4 1   
     7    3   10 1   
     8    3   39 1   
     9    4    5 1   
    10    4    7 1   
    11    4   40 1   
    12    5    6 1   
    13    5   41 1   
    14    5   66 1   
    15    6   42 1   
    16    6   43 1   
    17    6   44 1   
    18    7    8 1   
    19    7   45 1   
    20    7   46 1   
    21    8    9 1   
    22    8   22 1   
    23    8   47 1   
    24    9   10 1   
    25   10   11 1   
    26   10   12 1   
    27   11   48 1   
    28   11   49 1   
    29   11   50 1   
    30   12   13 1   
    31   12   20 1   
    32   13   14 ar  
    33   13   18 ar  
    34   14   15 ar  
    35   14   51 1   
    36   15   16 ar  
    37   15   52 1   
    38   16   17 ar  
    39   16   53 1   
    40   17   18 ar  
    41   17   54 1   
    42   18   19 1   
    43   19   20 ar  
    44   19   31 ar  
    45   20   21 ar  
    46   21   22 1   
    47   21   29 ar  
    48   22   23 1   
    49   23   24 1   
    50   23   28 2   
    51   24   25 1   
    52   24   55 1   
    53   24   56 1   
    54   25   26 1   
    55   25   57 1   
    56   25   58 1   
    57   26   27 1   
    58   26   59 1   
    59   26   60 1   
    60   27   28 1   
    61   27   61 1   
    62   27   62 1   
    63   28   29 1   
    64   29   30 ar  
    65   30   31 ar  
    66   30   34 1   
    67   31   32 1   
    68   32   33 1   
    69   32   63 1   
    70   32   64 1   
    71   33   34 1   
    72   33   65 1   
    73   34   35 2   
@<TRIPOS>SUBSTRUCTURE
     1 4ST         1 TEMP              0 ****  ****    0 ROOT
