@<TRIPOS>MOLECULE
4ST
   65    72     1     0     0
SMALL
bcc


@<TRIPOS>ATOM
      1 CAB         4.3080   -2.6740   -1.6440 c3        1 4ST      0.110700
      2 OAQ         3.4710   -1.7460   -0.9690 os        1 4ST     -0.407600
      3 CBF         2.3750   -2.3550   -0.2980 c3        1 4ST      0.097100
      4 CBD         1.2110   -2.6580   -1.2670 c3        1 4ST      0.164500
      5 NAO         0.7460   -1.4940   -2.0000 n3        1 4ST     -0.819200
      6 CAA         0.1640   -1.7950   -3.2800 c3        1 4ST      0.157100
      7 CAN         0.1040   -3.3130   -0.4340 c3        1 4ST     -0.112400
      8 CBE        -0.3000   -2.4860    0.7960 c3        1 4ST      0.275800
      9 OAR         0.8270   -2.0380    1.5460 os        1 4ST     -0.413600
     10 CBI         1.9480   -1.4190    0.8850 c3        1 4ST      0.297500
     11 CAC         3.0460   -1.5120    1.9770 c3        1 4ST     -0.105100
     12 NBH         1.6670   -0.0500    0.4800 na        1 4ST     -0.087300
     13 CAY         2.6100    1.0010    0.3930 ca        1 4ST      0.008800
     14 CAH         4.0090    0.9740    0.3920 ca        1 4ST     -0.146000
     15 CAF         4.6960    2.1790    0.2650 ca        1 4ST     -0.113000
     16 CAE         4.0240    3.3970    0.1250 ca        1 4ST     -0.158000
     17 CAG         2.6330    3.4430    0.0930 ca        1 4ST     -0.087000
     18 CAX         1.9150    2.2620    0.2200 cp        1 4ST     -0.066000
     19 CBA         0.4980    1.9630    0.2000 cp        1 4ST     -0.072000
     20 CBC         0.3920    0.5310    0.3720 ca        1 4ST      0.041800
     21 CBB        -0.8710   -0.0650    0.3790 ca        1 4ST     -0.046200
     22 NBG        -1.2220   -1.4090    0.5260 na        1 4ST     -0.078400
     23 CAV        -2.6240   -1.4880    0.4860 cc        1 4ST     -0.051300
     24 CAL        -3.4280   -2.7270    0.5900 c3        1 4ST     -0.017200
     25 CAJ        -4.8910   -2.3850    0.8250 c3        1 4ST     -0.072400
     26 CAI        -5.3710   -1.2520   -0.0610 c3        1 4ST     -0.076400
     27 CAK        -4.6160    0.0400    0.2080 c3        1 4ST     -0.014200
     28 CAT        -3.1700   -0.2090    0.2920 cd        1 4ST     -0.115400
     29 CAZ        -2.0770    0.7290    0.2200 ca        1 4ST      0.011200
     30 CAW        -1.9370    2.1020    0.0510 ca        1 4ST     -0.150600
     31 CAU        -0.6590    2.7070    0.0460 ca        1 4ST     -0.049300
     32 CAM        -0.8260    4.1960   -0.1640 c3        1 4ST      0.123300
     33 NAP        -2.2600    4.3830   -0.3530 n         1 4ST     -0.571900
     34 CAS        -2.9570    3.1740   -0.1400 c         1 4ST      0.713100
     35 OAD        -4.1930    3.0880   -0.1500 o         1 4ST     -0.624500
     36 HAB1        5.1090   -2.0370   -2.0950 h1        1 4ST      0.039367
     37 HAB2        4.7470   -3.4070   -0.9220 h1        1 4ST      0.039367
     38 HAB3        3.7420   -3.2140   -2.4410 h1        1 4ST      0.039367
     39 HBF         2.6960   -3.3290    0.1700 h1        1 4ST      0.057700
     40 HBD         1.5900   -3.4540   -1.9860 h1        1 4ST      0.026700
     41 HNO         1.4830   -0.8190   -2.0890 hn        1 4ST      0.389800
     42 HAA1        0.8720   -2.3020   -3.9940 h1        1 4ST      0.030367
     43 HAA2       -0.7240   -2.4660   -3.1370 h1        1 4ST      0.030367
     44 HAA3       -0.1830   -0.8340   -3.7420 h1        1 4ST      0.030367
     45 HAN1       -0.7970   -3.5110   -1.0690 hc        1 4ST      0.064200
     46 HAN2        0.4880   -4.2980   -0.0590 hc        1 4ST      0.064200
     47 HBE        -0.8110   -3.1820    1.5430 h2        1 4ST      0.084700
     48 HAC1        2.8300   -2.3940    2.6270 hc        1 4ST      0.063033
     49 HAC2        4.0400   -1.6490    1.4910 hc        1 4ST      0.063033
     50 HAC3        3.0640   -0.5970    2.6150 hc        1 4ST      0.063033
     51 HAH         4.5560    0.0230    0.4550 ha        1 4ST      0.143000
     52 HAF         5.7970    2.1670    0.2700 ha        1 4ST      0.129000
     53 HAE         4.6030    4.3270    0.0310 ha        1 4ST      0.130000
     54 HAG         2.1020    4.3980   -0.0360 ha        1 4ST      0.133000
     55 HAL1       -3.0580   -3.3770    1.4280 hc        1 4ST      0.046700
     56 HAL2       -3.3220   -3.3140   -0.3630 hc        1 4ST      0.046700
     57 HAJ1       -5.0340   -2.0970    1.9000 hc        1 4ST      0.044200
     58 HAJ2       -5.5100   -3.3000    0.6340 hc        1 4ST      0.044200
     59 HAI1       -6.4650   -1.0810    0.1150 hc        1 4ST      0.042700
     60 HAI2       -5.2420   -1.5420   -1.1360 hc        1 4ST      0.042700
     61 HAK1       -4.9690    0.4930    1.1760 hc        1 4ST      0.068200
     62 HAK2       -4.8340    0.7940   -0.5960 hc        1 4ST      0.068200
     63 HAM1       -0.4400    4.7720    0.7220 h1        1 4ST      0.058200
     64 HAM2       -0.2770    4.5380   -1.0840 h1        1 4ST      0.058200
     65 HAP        -2.6750    5.2550   -0.1450 hn        1 4ST      0.315500
@<TRIPOS>BOND
     1    1    2 1   
     2    1   36 1   
     3    1   37 1   
     4    1   38 1   
     5    2    3 1   
     6    3    4 1   
     7    3   10 1   
     8    3   39 1   
     9    4    5 1   
    10    4    7 1   
    11    4   40 1   
    12    5    6 1   
    13    5   41 1   
    14    6   42 1   
    15    6   43 1   
    16    6   44 1   
    17    7    8 1   
    18    7   45 1   
    19    7   46 1   
    20    8    9 1   
    21    8   22 1   
    22    8   47 1   
    23    9   10 1   
    24   10   11 1   
    25   10   12 1   
    26   11   48 1   
    27   11   49 1   
    28   11   50 1   
    29   12   13 1   
    30   12   20 1   
    31   13   14 ar  
    32   13   18 ar  
    33   14   15 ar  
    34   14   51 1   
    35   15   16 ar  
    36   15   52 1   
    37   16   17 ar  
    38   16   53 1   
    39   17   18 ar  
    40   17   54 1   
    41   18   19 1   
    42   19   20 ar  
    43   19   31 ar  
    44   20   21 ar  
    45   21   22 1   
    46   21   29 ar  
    47   22   23 1   
    48   23   24 1   
    49   23   28 2   
    50   24   25 1   
    51   24   55 1   
    52   24   56 1   
    53   25   26 1   
    54   25   57 1   
    55   25   58 1   
    56   26   27 1   
    57   26   59 1   
    58   26   60 1   
    59   27   28 1   
    60   27   61 1   
    61   27   62 1   
    62   28   29 1   
    63   29   30 ar  
    64   30   31 ar  
    65   30   34 1   
    66   31   32 1   
    67   32   33 1   
    68   32   63 1   
    69   32   64 1   
    70   33   34 1   
    71   33   65 1   
    72   34   35 2   
@<TRIPOS>SUBSTRUCTURE
     1 4ST         1 TEMP              0 ****  ****    0 ROOT
