@<TRIPOS>MOLECULE
4ST
   66    73     1     0     0
SMALL
bcc


@<TRIPOS>ATOM
      1 CAB        -0.1170   -0.9880    0.3070 c3        1 4ST      0.106700
      2 OAQ         1.0020   -0.1050    0.2650 os        1 4ST     -0.431600
      3 CBF         1.7230   -0.0150    1.4820 c3        1 4ST      0.099100
      4 CBD         1.6430    1.4500    1.9780 c3        1 4ST      0.115500
      5 NAO         2.1060    2.4240    0.9310 n4        1 4ST     -0.747000
      6 CAA         1.4850    3.7560    1.0780 c3        1 4ST      0.082100
      7 CAN         2.4090    1.5460    3.2910 c3        1 4ST     -0.134400
      8 CBE         3.8410    0.9810    3.2080 c3        1 4ST      0.226800
      9 OAR         3.8750   -0.2890    2.5610 os        1 4ST     -0.394600
     10 CBI         3.2080   -0.4880    1.2980 c3        1 4ST      0.233500
     11 CAC         3.2110   -2.0280    1.1800 c3        1 4ST     -0.106100
     12 NBH         3.8490    0.2130    0.1750 na        1 4ST     -0.105300
     13 CAY         3.9820   -0.4270   -1.1090 ca        1 4ST     -0.042200
     14 CAH         3.0410   -1.1570   -1.8310 ca        1 4ST     -0.134000
     15 CAF         3.3830   -1.5990   -3.1130 ca        1 4ST     -0.104000
     16 CAE         4.6250   -1.3110   -3.6770 ca        1 4ST     -0.127000
     17 CAG         5.5700   -0.5520   -2.9790 ca        1 4ST     -0.079000
     18 CAX         5.2580   -0.1060   -1.7050 cp        1 4ST     -0.060000
     19 CBA         5.9810    0.7220   -0.7510 cp        1 4ST     -0.029000
     20 CBC         5.1060    0.8580    0.3910 ca        1 4ST     -0.051200
     21 CBB         5.4980    1.6270    1.4720 ca        1 4ST     -0.094200
     22 NBG         4.7710    1.9500    2.6470 na        1 4ST     -0.127400
     23 CAV         5.6930    2.6730    3.4750 cc        1 4ST     -0.078300
     24 CAL         5.3950    3.1760    4.8360 c3        1 4ST     -0.019200
     25 CAJ         6.6710    3.6730    5.5000 c3        1 4ST     -0.077400
     26 CAI         7.5210    4.5120    4.5670 c3        1 4ST     -0.079400
     27 CAK         7.9800    3.7280    3.3490 c3        1 4ST     -0.032200
     28 CAT         6.8750    2.9340    2.7900 cd        1 4ST     -0.063400
     29 CAZ         6.7970    2.2780    1.4930 ca        1 4ST      0.024200
     30 CAW         7.6070    2.1450    0.3860 ca        1 4ST     -0.124600
     31 CAU         7.2020    1.3610   -0.7340 ca        1 4ST     -0.048300
     32 CAM         8.2990    1.4060   -1.7740 c3        1 4ST      0.131300
     33 NAP         9.3000    2.3010   -1.2120 n         1 4ST     -0.575900
     34 CAS         8.9660    2.7050    0.0870 c         1 4ST      0.715100
     35 OAD         9.6740    3.4180    0.8080 o         1 4ST     -0.599500
     36 HAB1       -0.5360   -0.9330   -0.7300 h1        1 4ST      0.057700
     37 HAB2        0.2160   -2.0290    0.5430 h1        1 4ST      0.057700
     38 HAB3       -0.8640   -0.6350    1.0580 h1        1 4ST      0.057700
     39 HBF         1.2740   -0.6630    2.2880 h1        1 4ST      0.100700
     40 HBD         0.5500    1.6880    2.1670 hx        1 4ST      0.103700
     41 HNO         1.8630    2.0270    0.0090 hn        1 4ST      0.478800
     42 HAA1        1.7150    4.1700    2.0970 hx        1 4ST      0.102700
     43 HAA2        0.3720    3.6770    0.9480 hx        1 4ST      0.102700
     44 HAA3        1.9050    4.4430    0.2940 hx        1 4ST      0.102700
     45 HAN1        2.4320    2.6000    3.6730 hc        1 4ST      0.094200
     46 HAN2        1.8500    0.9280    4.0460 hc        1 4ST      0.094200
     47 HBE         4.1730    0.7070    4.2640 h2        1 4ST      0.117700
     48 HAC1        4.2260   -2.3930    0.8930 hc        1 4ST      0.073367
     49 HAC2        2.4670   -2.3460    0.4130 hc        1 4ST      0.073367
     50 HAC3        2.9430   -2.4700    2.1700 hc        1 4ST      0.073367
     51 HAH         2.0430   -1.3720   -1.4170 ha        1 4ST      0.144000
     52 HAF         2.6490   -2.1870   -3.6870 ha        1 4ST      0.147000
     53 HAE         4.8650   -1.6790   -4.6870 ha        1 4ST      0.152000
     54 HAG         6.5430   -0.3100   -3.4320 ha        1 4ST      0.148000
     55 HAL1        4.6520    4.0160    4.7640 hc        1 4ST      0.048700
     56 HAL2        4.9340    2.3720    5.4700 hc        1 4ST      0.048700
     57 HAJ1        7.2700    2.7920    5.8530 hc        1 4ST      0.056700
     58 HAJ2        6.3940    4.2770    6.4030 hc        1 4ST      0.056700
     59 HAI1        8.4220    4.8860    5.1210 hc        1 4ST      0.053700
     60 HAI2        6.9350    5.4090    4.2350 hc        1 4ST      0.053700
     61 HAK1        8.3930    4.4250    2.5680 hc        1 4ST      0.083700
     62 HAK2        8.8190    3.0330    3.6310 hc        1 4ST      0.083700
     63 HAM1        7.9170    1.8220   -2.7480 h1        1 4ST      0.070200
     64 HAM2        8.7180    0.3780   -1.9590 h1        1 4ST      0.070200
     65 HAP        10.2220    2.3290   -1.5630 hn        1 4ST      0.341500
     66 HAO2        3.1300    2.5240    0.9720 hn        1 4ST      0.478800
@<TRIPOS>BOND
     1    1    2 1   
     2    1   36 1   
     3    1   37 1   
     4    1   38 1   
     5    2    3 1   
     6    3    4 1   
     7    3   10 1   
     8    3   39 1   
     9    4    5 1   
    10    4    7 1   
    11    4   40 1   
    12    5    6 1   
    13    5   41 1   
    14    5   66 1   
    15    6   42 1   
    16    6   43 1   
    17    6   44 1   
    18    7    8 1   
    19    7   45 1   
    20    7   46 1   
    21    8    9 1   
    22    8   22 1   
    23    8   47 1   
    24    9   10 1   
    25   10   11 1   
    26   10   12 1   
    27   11   48 1   
    28   11   49 1   
    29   11   50 1   
    30   12   13 1   
    31   12   20 1   
    32   13   14 ar  
    33   13   18 ar  
    34   14   15 ar  
    35   14   51 1   
    36   15   16 ar  
    37   15   52 1   
    38   16   17 ar  
    39   16   53 1   
    40   17   18 ar  
    41   17   54 1   
    42   18   19 1   
    43   19   20 ar  
    44   19   31 ar  
    45   20   21 ar  
    46   21   22 1   
    47   21   29 ar  
    48   22   23 1   
    49   23   24 1   
    50   23   28 2   
    51   24   25 1   
    52   24   55 1   
    53   24   56 1   
    54   25   26 1   
    55   25   57 1   
    56   25   58 1   
    57   26   27 1   
    58   26   59 1   
    59   26   60 1   
    60   27   28 1   
    61   27   61 1   
    62   27   62 1   
    63   28   29 1   
    64   29   30 ar  
    65   30   31 ar  
    66   30   34 1   
    67   31   32 1   
    68   32   33 1   
    69   32   63 1   
    70   32   64 1   
    71   33   34 1   
    72   33   65 1   
    73   34   35 2   
@<TRIPOS>SUBSTRUCTURE
     1 4ST         1 TEMP              0 ****  ****    0 ROOT
