@<TRIPOS>MOLECULE
4SU
   32    33     1     0     0
SMALL
bcc


@<TRIPOS>ATOM
      1 N1          0.7690   -0.2940    1.9260 n         1 4SU     -0.350000
      2 C2          0.8860   -0.3050    3.3360 c         1 4SU      0.781500
      3 N3         -0.2870   -0.4350    4.1070 n         1 4SU     -0.530500
      4 C4         -1.5610   -0.5220    3.5550 c         1 4SU      0.480600
      5 C5         -1.6220   -0.4720    2.1250 cc        1 4SU     -0.339200
      6 C6         -0.4870   -0.3460    1.3510 cd        1 4SU      0.084600
      7 O2          1.9860   -0.2360    3.9390 o         1 4SU     -0.686500
      8 S4         -2.8340   -0.6750    4.5330 s         1 4SU     -0.650400
      9 C1'         2.0060   -0.1230    1.1410 c3        1 4SU      0.267500
     10 C2'         2.1490   -1.1810   -0.0030 c3        1 4SU      0.109100
     11 O2'         3.4850   -1.6420   -0.0090 oh        1 4SU     -0.617800
     12 C3'         1.7170   -0.4050   -1.2560 c3        1 4SU      0.072100
     13 C4'         1.8050    1.0890   -0.8810 c3        1 4SU      0.061100
     14 O3'         2.5540   -0.7090   -2.3460 oh        1 4SU     -0.662800
     15 O4'         2.0620    1.1640    0.5430 os        1 4SU     -0.433600
     16 C5'         0.5200    1.8980   -1.1910 c3        1 4SU      0.228400
     17 O5'         0.1200    1.7920   -2.4920 os        1 4SU     -0.566200
     18 P          -1.0210    0.5500   -2.9040 p5        1 4SU      1.344900
     19 OP1        -1.3810    0.0370   -1.5200 o         1 4SU     -0.922833
     20 OP2        -2.0780    1.2290   -3.7050 o         1 4SU     -0.922833
     21 OP3        -0.0400   -0.3880   -3.5670 o         1 4SU     -0.922833
     22 HN3        -0.1830   -0.4410    5.1000 hn        1 4SU      0.340500
     23 H5         -2.6040   -0.5190    1.6320 ha        1 4SU      0.199000
     24 H6         -0.5800   -0.2830    0.2100 h4        1 4SU      0.317000
     25 H1'         2.8780   -0.1730    1.8580 h2        1 4SU      0.106700
     26 H2'         1.5110   -2.0870    0.1670 h1        1 4SU      0.075700
     27 HO2'        3.9330   -1.2170   -0.7530 ho        1 4SU      0.425000
     28 H3'         0.6350   -0.6590   -1.5240 h1        1 4SU      0.169700
     29 H4'         2.6950    1.5650   -1.3690 h1        1 4SU      0.050700
     30 HO3'        1.9590   -0.6880   -3.1310 ho        1 4SU      0.495000
     31 H5'        -0.2910    1.5750   -0.4800 h1        1 4SU     -0.001300
     32 H5''        0.7730    2.9780   -0.9730 h1        1 4SU     -0.001300
@<TRIPOS>BOND
     1    1    2 1   
     2    1    6 1   
     3    1    9 1   
     4    2    3 1   
     5    2    7 2   
     6    3    4 1   
     7    3   22 1   
     8    4    5 1   
     9    4    8 2   
    10    5    6 2   
    11    5   23 1   
    12    6   24 1   
    13    9   10 1   
    14    9   15 1   
    15    9   25 1   
    16   10   11 1   
    17   10   12 1   
    18   10   26 1   
    19   11   27 1   
    20   12   13 1   
    21   12   14 1   
    22   12   28 1   
    23   13   15 1   
    24   13   16 1   
    25   13   29 1   
    26   14   30 1   
    27   16   17 1   
    28   16   31 1   
    29   16   32 1   
    30   17   18 1   
    31   18   19 1   
    32   18   20 1   
    33   18   21 1   
@<TRIPOS>SUBSTRUCTURE
     1 4SU         1 TEMP              0 ****  ****    0 ROOT
