@<TRIPOS>MOLECULE
4SU
   32    33     1     0     0
SMALL
bcc


@<TRIPOS>ATOM
      1 N1          0.3580    1.4390    0.3840 n         1 4SU     -0.335000
      2 C2         -0.2740    1.5650    1.6960 c         1 4SU      0.788500
      3 N3          0.5530    1.6540    2.9020 n         1 4SU     -0.530500
      4 C4          1.9580    1.7670    2.7870 c         1 4SU      0.481600
      5 C5          2.5940    1.6430    1.4760 cc        1 4SU     -0.350200
      6 C6          1.7640    1.4230    0.2780 cd        1 4SU      0.099600
      7 O2         -1.4930    1.5860    1.7880 o         1 4SU     -0.655500
      8 S4          2.8740    2.1070    4.1220 s         1 4SU     -0.631400
      9 C1'        -0.4520    1.4670   -0.8140 c3        1 4SU      0.270500
     10 C2'         0.2850    0.7160   -1.9870 c3        1 4SU      0.023100
     11 O2'         0.2240    1.4400   -3.1050 oh        1 4SU     -0.640800
     12 C3'        -0.4580   -0.5830   -2.1670 c3        1 4SU      0.276100
     13 C4'        -1.2440   -0.6730   -1.1080 c3        1 4SU      0.030100
     14 O3'        -1.2800   -0.5460   -3.4250 oh        1 4SU     -0.964800
     15 O4'        -1.5310    0.8250   -0.6340 os        1 4SU     -0.427600
     16 C5'        -0.5580   -1.4340   -0.0200 c3        1 4SU      0.168400
     17 O5'        -1.5340   -1.8410    0.9700 os        1 4SU     -0.587200
     18 P          -1.5810   -3.4130    1.4350 p5        1 4SU      1.349900
     19 OP1        -0.1840   -3.8990    1.7100 o         1 4SU     -0.731833
     20 OP2        -2.1930   -4.2410    0.3440 o         1 4SU     -0.731833
     21 OP3        -2.4090   -3.5390    2.6830 o         1 4SU     -0.731833
     22 HN3         0.1510    1.7330    3.7320 hn        1 4SU      0.344500
     23 H5          3.5400    1.8070    1.3830 ha        1 4SU      0.180000
     24 H6          2.1950    1.3370   -0.6200 h4        1 4SU      0.212000
     25 H1'        -0.6510    2.4150   -1.0770 h2        1 4SU      0.101700
     26 H2'         1.2220    0.5410   -1.7450 h1        1 4SU      0.030700
     27 HO2'        1.0690    1.5130   -3.4720 ho        1 4SU      0.441000
     28 H3'         0.1880   -1.3550   -2.1900 h1        1 4SU     -0.046300
     29 H4'        -2.0920   -1.1190   -1.3510 h1        1 4SU      0.089700
     30 HO3'       -1.0280   -1.2440   -3.9790 ho        1 4SU      0.442000
     31 H5'        -0.1260   -2.2240   -0.3970 h1        1 4SU      0.017700
     32 H5''        0.1130   -0.8660    0.4000 h1        1 4SU      0.017700
@<TRIPOS>BOND
     1    1    2 1   
     2    1    6 1   
     3    1    9 1   
     4    2    3 1   
     5    2    7 2   
     6    3    4 1   
     7    3   22 1   
     8    4    5 1   
     9    4    8 2   
    10    5    6 2   
    11    5   23 1   
    12    6   24 1   
    13    9   10 1   
    14    9   15 1   
    15    9   25 1   
    16   10   11 1   
    17   10   12 1   
    18   10   26 1   
    19   11   27 1   
    20   12   13 1   
    21   12   14 1   
    22   12   28 1   
    23   13   15 1   
    24   13   16 1   
    25   13   29 1   
    26   14   30 1   
    27   16   17 1   
    28   16   31 1   
    29   16   32 1   
    30   17   18 1   
    31   18   19 1   
    32   18   20 1   
    33   18   21 1   
@<TRIPOS>SUBSTRUCTURE
     1 4SU         1 TEMP              0 ****  ****    0 ROOT
