@<TRIPOS>MOLECULE
4SX
   17    17     1     0     0
SMALL
bcc


@<TRIPOS>ATOM
      1 O11        -0.0210    0.0980    0.0220 o         1 4SX     -0.744533
      2 S9          1.3880   -0.0370   -0.0250 s6        1 4SX      1.460100
      3 O12         2.0220    0.0220    1.2360 o         1 4SX     -0.744533
      4 O10         1.8240   -1.1140   -0.8270 o         1 4SX     -0.744533
      5 C4          1.9390    1.4240   -0.8770 ca        1 4SX     -0.251500
      6 C3          1.0570    2.1230   -1.6960 ca        1 4SX     -0.081000
      7 C5          3.2490    1.8820   -0.7390 ca        1 4SX     -0.040000
      8 C6          3.6990    3.0160   -1.4110 ca        1 4SX     -0.171000
      9 C1          2.8140    3.7150   -2.2410 ca        1 4SX      0.107100
     10 O7          3.2920    4.8330   -2.8940 oh        1 4SX     -0.517100
     11 C2          1.4870    3.2640   -2.3790 ca        1 4SX     -0.004900
     12 O8          0.6620    4.0060   -3.2120 oh        1 4SX     -0.542100
     13 H1          0.0150    1.7740   -1.7890 ha        1 4SX      0.154000
     14 H2          3.9350    1.3340   -0.0710 ha        1 4SX      0.146000
     15 H3          4.7310    3.3750   -1.3030 ha        1 4SX      0.130000
     16 H4          2.5610    5.1970   -3.4150 ho        1 4SX      0.423000
     17 H5         -0.2120    3.5960   -3.1790 ho        1 4SX      0.421000
@<TRIPOS>BOND
     1    1    2 1   
     2    2    3 1   
     3    2    4 1   
     4    2    5 1   
     5    5    6 ar  
     6    5    7 ar  
     7    6   11 ar  
     8    6   13 1   
     9    7    8 ar  
    10    7   14 1   
    11    8    9 ar  
    12    8   15 1   
    13    9   10 1   
    14    9   11 ar  
    15   10   16 1   
    16   11   12 1   
    17   12   17 1   
@<TRIPOS>SUBSTRUCTURE
     1 4SX         1 TEMP              0 ****  ****    0 ROOT
