@<TRIPOS>MOLECULE
4T0
   77    81     1     0     0
SMALL
bcc


@<TRIPOS>ATOM
      1 C13        -0.2930    0.5030    0.5500 ca        1 4T0      0.174600
      2 C18        -2.5150    0.6810   -2.4960 c         1 4T0      0.668100
      3 C17        -1.9860    0.0200   -1.1900 c3        1 4T0      0.193800
      4 C15        -0.3660   -0.4800    2.7820 ca        1 4T0     -0.064000
      5 C21        -4.3840    0.5340   -5.1700 ca        1 4T0      0.080700
      6 C22        -4.3760   -0.8560   -5.0740 ca        1 4T0     -0.208000
      7 C23        -4.3400   -1.6790   -6.2270 ca        1 4T0      0.139600
      8 C24        -4.3420   -1.0510   -7.4930 ca        1 4T0     -0.186000
      9 C11         1.5960    0.7760    2.0820 ca        1 4T0      0.052000
     10 C12         0.9840    0.9960    0.8270 ca        1 4T0     -0.206000
     11 C34        -4.2630   -4.0490   -7.0410 c         1 4T0      0.668100
     12 N1         -3.8780    0.7310   -2.7100 n         1 4T0     -0.458800
     13 C2         -4.4340    1.3710   -3.9050 c3        1 4T0      0.123000
     14 C3         -5.9060    1.7320   -3.5790 c3        1 4T0     -0.086400
     15 C4         -6.1650    1.2800   -2.1490 c3        1 4T0     -0.089400
     16 C5         -4.8590    0.6490   -1.6440 c3        1 4T0      0.088000
     17 N6          2.8390    0.3170    4.5930 nb        1 4T0     -0.751000
     18 C7          3.4360    1.0500    3.6150 ca        1 4T0      0.437200
     19 C8          2.8850    1.3020    2.3740 ca        1 4T0     -0.291300
     20 C9          1.6050   -0.1830    4.3510 ca        1 4T0      0.660200
     21 C10         0.9240    0.0210    3.0780 ca        1 4T0     -0.209300
     22 C14        -0.9590   -0.2570    1.5650 ca        1 4T0     -0.179000
     23 N16        -0.9210    0.8450   -0.6570 nh        1 4T0     -0.721600
     24 N20         0.9400   -0.8590    5.3840 nh        1 4T0     -0.927500
     25 C25        -4.3690    0.3300   -7.5650 ca        1 4T0     -0.012000
     26 C26        -4.3840    1.1620   -6.4310 ca        1 4T0     -0.406500
     27 S27        -4.4490    2.8080   -6.7630 sy        1 4T0      1.362300
     28 O28        -5.1780    3.0000   -7.9540 o         1 4T0     -0.660800
     29 O29        -4.8900    3.5510   -5.6540 o         1 4T0     -0.660800
     30 C30        -2.7820    3.1440   -7.0870 c3        1 4T0     -0.262900
     31 C31        -2.6670    4.4340   -7.8710 c3        1 4T0     -0.081600
     32 C32        -1.9470    3.2290   -5.8310 c3        1 4T0     -0.081600
     33 N33        -4.3110   -3.0640   -6.0540 n         1 4T0     -0.476100
     34 O35        -4.2540   -3.7880   -8.2550 o         1 4T0     -0.572100
     35 C36        -1.6120   -1.4020   -1.5390 ca        1 4T0     -0.130300
     36 C37        -2.2410   -2.4670   -0.8870 ca        1 4T0     -0.109000
     37 C38        -1.8890   -3.7810   -1.1940 ca        1 4T0     -0.133000
     38 C39        -0.9070   -4.0370   -2.1500 ca        1 4T0     -0.123000
     39 C40        -0.2810   -2.9770   -2.8060 ca        1 4T0     -0.133000
     40 C41        -0.6330   -1.6620   -2.5040 ca        1 4T0     -0.109000
     41 C42        -4.2250   -5.4750   -6.5430 c3        1 4T0     -0.179100
     42 H56        -2.8010   -0.0030   -0.4060 h1        1 4T0      0.077700
     43 H54        -0.9270   -1.0540    3.5360 ha        1 4T0      0.129000
     44 H59        -4.3950   -1.3290   -4.0790 ha        1 4T0      0.143000
     45 H60        -4.3280   -1.6450   -8.4220 ha        1 4T0      0.182000
     46 H52         1.5410    1.5810    0.0790 ha        1 4T0      0.140000
     47 H43        -3.8370    2.3180   -4.0930 h1        1 4T0      0.096700
     48 H44        -6.0410    2.8380   -3.6970 hc        1 4T0      0.079200
     49 H45        -6.6030    1.2240   -4.2900 hc        1 4T0      0.079200
     50 H47        -6.4500    2.1470   -1.5030 hc        1 4T0      0.056200
     51 H46        -6.9960    0.5340   -2.1080 hc        1 4T0      0.056200
     52 H49        -4.5000    1.1940   -0.7270 h1        1 4T0      0.044700
     53 H48        -5.0180   -0.4310   -1.3730 h1        1 4T0      0.044700
     54 H50         4.4340    1.4370    3.8920 h4        1 4T0      0.019100
     55 H51         3.4180    1.8940    1.6200 ha        1 4T0      0.143000
     56 H53        -1.9590   -0.6720    1.3690 ha        1 4T0      0.129000
     57 H55        -0.2830    1.1540   -1.3680 hn        1 4T0      0.418800
     58 H57         0.3630   -1.6080    5.0780 hn        1 4T0      0.404800
     59 H58         1.4910   -1.0760    6.1860 hn        1 4T0      0.404800
     60 H61        -4.3980    0.8010   -8.5680 ha        1 4T0      0.158000
     61 H62        -2.3510    2.3220   -7.7260 h1        1 4T0      0.106700
     62 H64        -3.0010    5.3000   -7.2470 hc        1 4T0      0.054700
     63 H65        -3.2960    4.3880   -8.7960 hc        1 4T0      0.054700
     64 H63        -1.6070    4.6100   -8.1710 hc        1 4T0      0.054700
     65 H67        -0.9060    3.5490   -6.0790 hc        1 4T0      0.054700
     66 H68        -1.8930    2.2350   -5.3190 hc        1 4T0      0.054700
     67 H66        -2.3830    3.9780   -5.1240 hc        1 4T0      0.054700
     68 H69        -4.2960   -3.3790   -5.1080 hn        1 4T0      0.320500
     69 H70        -3.0120   -2.2720   -0.1260 ha        1 4T0      0.142000
     70 H71        -2.3830   -4.6150   -0.6740 ha        1 4T0      0.136000
     71 H72        -0.6230   -5.0740   -2.3840 ha        1 4T0      0.133000
     72 H73         0.4930   -3.1750   -3.5620 ha        1 4T0      0.136000
     73 H74        -0.1560   -0.8210   -3.0340 ha        1 4T0      0.142000
     74 H77        -3.3200   -5.6480   -5.9120 hc        1 4T0      0.072033
     75 H76        -5.1400   -5.7070   -5.9460 hc        1 4T0      0.072033
     76 H75        -4.1870   -6.1580   -7.4280 hc        1 4T0      0.072033
     77 O19        -1.7080    1.0840   -3.3580 o         1 4T0     -0.612100
@<TRIPOS>BOND
     1    1   10 ar  
     2    1   22 ar  
     3    1   23 1   
     4    2    3 1   
     5    2   12 1   
     6    2   77 2   
     7    3   23 1   
     8    3   35 1   
     9    3   42 1   
    10    4   21 ar  
    11    4   22 ar  
    12    4   43 1   
    13    5    6 ar  
    14    5   13 1   
    15    5   26 ar  
    16    6    7 ar  
    17    6   44 1   
    18    7    8 ar  
    19    7   33 1   
    20    8   25 ar  
    21    8   45 1   
    22    9   10 ar  
    23    9   19 ar  
    24    9   21 ar  
    25   10   46 1   
    26   11   33 1   
    27   11   34 2   
    28   11   41 1   
    29   12   13 1   
    30   12   16 1   
    31   13   14 1   
    32   13   47 1   
    33   14   15 1   
    34   14   48 1   
    35   14   49 1   
    36   15   16 1   
    37   15   50 1   
    38   15   51 1   
    39   16   52 1   
    40   16   53 1   
    41   17   18 ar  
    42   17   20 ar  
    43   18   19 ar  
    44   18   54 1   
    45   19   55 1   
    46   20   21 ar  
    47   20   24 1   
    48   22   56 1   
    49   23   57 1   
    50   24   58 1   
    51   24   59 1   
    52   25   26 ar  
    53   25   60 1   
    54   26   27 1   
    55   27   28 2   
    56   27   29 2   
    57   27   30 1   
    58   30   31 1   
    59   30   32 1   
    60   30   61 1   
    61   31   62 1   
    62   31   63 1   
    63   31   64 1   
    64   32   65 1   
    65   32   66 1   
    66   32   67 1   
    67   33   68 1   
    68   35   36 ar  
    69   35   40 ar  
    70   36   37 ar  
    71   36   69 1   
    72   37   38 ar  
    73   37   70 1   
    74   38   39 ar  
    75   38   71 1   
    76   39   40 ar  
    77   39   72 1   
    78   40   73 1   
    79   41   74 1   
    80   41   75 1   
    81   41   76 1   
@<TRIPOS>SUBSTRUCTURE
     1 4T0         1 TEMP              0 ****  ****    0 ROOT
