@<TRIPOS>MOLECULE
4T0
   77    78     1     0     0
SMALL
bcc


@<TRIPOS>ATOM
      1 C13         0.4800   -1.0050    0.2760 c2        1 4T0      0.008000
      2 C18        -2.4600   -0.8920   -2.1000 c2        1 4T0      0.288000
      3 C17        -1.7650   -0.9270   -0.7170 c3        1 4T0      0.054000
      4 C15         0.9370   -0.0670    2.5550 c1        1 4T0     -0.207000
      5 C21        -5.0850    0.6610   -5.9880 c2        1 4T0     -0.111000
      6 C22        -4.6180   -0.5740   -6.2520 c2        1 4T0     -0.169000
      7 C23        -3.3630   -0.9170   -6.8930 c1        1 4T0     -0.016000
      8 C24        -2.1900    1.3180   -7.7300 c1        1 4T0     -0.109000
      9 C11         2.6170   -1.5030    1.4220 c2        1 4T0     -0.243000
     10 C12         1.6640   -1.6730    0.3350 c2        1 4T0     -0.191000
     11 C34        -1.0920   -1.7540   -6.7730 c2        1 4T0      0.320000
     12 N1         -3.6920   -0.1850   -2.1100 n2        1 4T0     -0.267000
     13 C2         -6.4320    0.8630   -5.3770 c3        1 4T0     -0.158000
     14 C3         -6.7500   -0.0560   -4.2140 c3        1 4T0     -0.149000
     15 C4         -5.9450    0.2400   -2.9630 c3        1 4T0     -0.154000
     16 C5         -4.6340   -0.4860   -2.9380 c2        1 4T0      0.041000
     17 N6          3.9900   -1.5290    4.0450 n2        1 4T0     -0.216000
     18 C7          5.0900   -1.5290    3.3920 c2        1 4T0     -0.004000
     19 C8          3.8520   -1.9860    1.3340 c1        1 4T0      0.062000
     20 C9          2.9070   -0.6540    3.7890 c2        1 4T0      0.272000
     21 C10         2.1480   -0.7260    2.5770 c2        1 4T0     -0.227000
     22 C14         0.0540   -0.0950    1.4010 c3        1 4T0     -0.121000
     23 N16        -0.3310   -1.0760   -0.8740 n7        1 4T0     -0.264000
     24 N20         2.5180    0.2100    4.7650 n8        1 4T0     -0.308000
     25 C25        -3.1480    1.6250   -7.0790 c1        1 4T0     -0.219000
     26 C26        -4.3110    1.9100   -6.2980 c3        1 4T0     -0.555000
     27 S27        -5.3340    3.1340   -7.0680 s6        1 4T0      2.744000
     28 O28        -6.1940    2.5670   -8.0170 o         1 4T0     -0.921000
     29 O29        -5.9420    3.8570   -6.0220 o         1 4T0     -0.921000
     30 C30        -4.1830    4.1460   -7.8560 c3        1 4T0     -0.768000
     31 C31        -4.9240    5.1480   -8.7190 c3        1 4T0     -0.196000
     32 C32        -3.2810    4.8690   -6.8830 c3        1 4T0     -0.196000
     33 N33        -2.3370   -1.3690   -6.1880 ns        1 4T0     -0.250000
     34 O35        -0.7670   -1.4050   -7.9130 o         1 4T0     -0.284000
     35 C36        -2.4440   -1.9900    0.0920 c2        1 4T0     -0.119000
     36 C37        -3.4510   -1.6160    1.1500 c3        1 4T0     -0.108000
     37 C38        -4.5990   -2.5930    1.1230 c2        1 4T0     -0.145000
     38 C39        -4.5090   -3.8450    0.6190 c2        1 4T0     -0.151000
     39 C40        -3.1600   -4.3240    0.2750 c2        1 4T0     -0.077000
     40 C41        -2.3760   -3.3060   -0.0670 c1        1 4T0     -0.152000
     41 C42        -0.1980   -2.5910   -5.8950 c3        1 4T0     -0.256000
     42 H56        -0.0970   -1.8410   -1.4800 hn        1 4T0      0.198000
     43 H54        -0.9670   -0.4090    1.7690 hc        1 4T0      0.124500
     44 H59        -5.2750   -1.4530   -6.0930 ha        1 4T0      0.142000
     45 H60        -1.3580    1.0100   -8.3190 ha        1 4T0      0.247000
     46 H52         1.9740   -2.3660   -0.4640 ha        1 4T0      0.127000
     47 H43        -6.5410    1.9240   -5.0160 hc        1 4T0      0.114000
     48 H44        -7.2070    0.7050   -6.1810 hc        1 4T0      0.114000
     49 H45        -6.6210   -1.1280   -4.5150 hc        1 4T0      0.088000
     50 H47        -7.8380    0.0820   -3.9640 hc        1 4T0      0.088000
     51 H46        -5.7850    1.3480   -2.8630 hc        1 4T0      0.118000
     52 H49        -6.5320   -0.0910   -2.0610 hc        1 4T0      0.118000
     53 H48        -4.5470   -1.3180   -3.6770 h4        1 4T0      0.114000
     54 H50         5.4180   -0.7970    2.6250 h4        1 4T0      0.147500
     55 H51         5.8130   -2.3330    3.6370 h4        1 4T0      0.147500
     56 H53        -0.0400    0.9620    1.0180 hc        1 4T0      0.124500
     57 H55        -1.9370    0.0790   -0.2190 h1        1 4T0      0.140000
     58 H57         1.6340    0.6670    4.6230 hn        1 4T0      0.257000
     59 H58         2.9130    0.1810    5.6730 hn        1 4T0      0.257000
     60 H61        -3.9770    2.3410   -5.3020 h1        1 4T0      0.164000
     61 H62        -3.5290    3.5370   -8.5450 h1        1 4T0      0.164000
     62 H64        -4.1990    5.7680   -9.2980 hc        1 4T0      0.093000
     63 H65        -5.5390    5.8310   -8.0820 hc        1 4T0      0.093000
     64 H63        -5.5940    4.6180   -9.4420 hc        1 4T0      0.093000
     65 H67        -2.6310    5.5980   -7.4240 hc        1 4T0      0.093000
     66 H68        -3.8910    5.4310   -6.1310 hc        1 4T0      0.093000
     67 H66        -2.6220    4.1410   -6.3490 hc        1 4T0      0.093000
     68 H69        -2.3550   -1.4520   -5.1840 hn        1 4T0      0.207000
     69 H70        -3.8310   -0.5860    0.9100 hc        1 4T0      0.122500
     70 H71        -3.0160   -1.5900    2.1850 hc        1 4T0      0.122500
     71 H72        -5.5320   -2.2220    1.5730 ha        1 4T0      0.137000
     72 H73        -5.3540   -4.5410    0.5690 ha        1 4T0      0.142000
     73 H74        -2.8770   -5.3670    0.4310 ha        1 4T0      0.162000
     74 H77        -0.1630   -2.1970   -4.8480 hc        1 4T0      0.118000
     75 H76         0.8340   -2.5910   -6.3240 hc        1 4T0      0.118000
     76 H75        -0.5830   -3.6400   -5.8720 hc        1 4T0      0.118000
     77 O19        -1.9580   -1.4070   -3.1150 o         1 4T0     -0.356000
@<TRIPOS>BOND
     1    1   10 1   
     2    1   22 1   
     3    1   23 1   
     4    2    3 1   
     5    2   12 1   
     6    2   77 1   
     7    3   23 1   
     8    3   35 1   
     9    3   57 1   
    10    4   21 1   
    11    4   22 1   
    12    5    6 1   
    13    5   13 1   
    14    5   26 1   
    15    6    7 1   
    16    6   44 1   
    17    7   33 1   
    18    8   25 1   
    19    8   45 1   
    20    9   10 1   
    21    9   19 1   
    22    9   21 1   
    23   10   46 1   
    24   11   33 1   
    25   11   34 1   
    26   11   41 1   
    27   12   16 1   
    28   13   14 1   
    29   13   47 1   
    30   13   48 1   
    31   14   15 1   
    32   14   49 1   
    33   14   50 1   
    34   15   16 1   
    35   15   51 1   
    36   15   52 1   
    37   16   53 1   
    38   17   18 1   
    39   17   20 1   
    40   18   54 1   
    41   18   55 1   
    42   20   21 1   
    43   20   24 1   
    44   22   43 1   
    45   22   56 1   
    46   23   42 1   
    47   24   58 1   
    48   24   59 1   
    49   25   26 1   
    50   26   27 1   
    51   26   60 1   
    52   27   28 1   
    53   27   29 1   
    54   27   30 1   
    55   30   31 1   
    56   30   32 1   
    57   30   61 1   
    58   31   62 1   
    59   31   63 1   
    60   31   64 1   
    61   32   65 1   
    62   32   66 1   
    63   32   67 1   
    64   33   68 1   
    65   35   36 1   
    66   35   40 1   
    67   36   37 1   
    68   36   69 1   
    69   36   70 1   
    70   37   38 1   
    71   37   71 1   
    72   38   39 1   
    73   38   72 1   
    74   39   40 1   
    75   39   73 1   
    76   41   74 1   
    77   41   75 1   
    78   41   76 1   
@<TRIPOS>SUBSTRUCTURE
     1 4T0         1 TEMP              0 ****  ****    0 ROOT
