@<TRIPOS>MOLECULE
4T3
   47    51     1     0     0
SMALL
bcc


@<TRIPOS>ATOM
      1 C4         -0.0050    0.2420   -0.0260 ca        1 4T3     -0.405700
      2 C5          1.4180    0.1110    0.0650 ca        1 4T3      0.492100
      3 C7          1.5750   -0.1790   -2.2170 ca        1 4T3      0.867900
      4 C13        -3.3700    0.2550   -4.8010 cc        1 4T3     -0.069600
      5 C17        -3.6210    0.6170   -6.1890 cx        1 4T3     -0.071400
      6 C21         3.8140   -0.3860   -3.2120 c3        1 4T3      0.193300
      7 C22         4.5890   -0.2040   -4.5230 c3        1 4T3     -0.112900
      8 C24         2.5900   -1.0720   -5.7560 c3        1 4T3     -0.112900
      9 C1          1.8500    0.2400    1.4420 cc        1 4T3     -0.256800
     10 C2          0.7840    0.4560    2.2730 cd        1 4T3     -0.134400
     11 S3         -0.6880    0.5170    1.4750 ss        1 4T3      0.130500
     12 N6          2.2180   -0.1090   -1.0120 nb        1 4T3     -0.738000
     13 N8          0.1980   -0.1030   -2.4220 nb        1 4T3     -0.773000
     14 C9         -0.5830    0.1210   -1.3350 ca        1 4T3      0.755200
     15 N10        -1.9660    0.3110   -1.4560 nh        1 4T3     -0.786600
     16 C11        -2.6330    0.0660   -2.6700 cd        1 4T3      0.493200
     17 C12        -2.4080    0.7740   -3.9180 cd        1 4T3     -0.252300
     18 N14        -4.0880   -0.7100   -4.0770 na        1 4T3     -0.000600
     19 N16        -3.6720   -0.8380   -2.8250 nc        1 4T3     -0.531800
     20 C18        -4.0810   -0.4140   -7.1930 cx        1 4T3     -0.123400
     21 C19        -5.0280    0.6530   -6.7380 cx        1 4T3     -0.123400
     22 N20         2.3760   -0.2940   -3.4130 nh        1 4T3     -0.728300
     23 C23         4.0970   -1.2250   -5.5500 c3        1 4T3      0.117500
     24 C25         1.8750   -1.2280   -4.4080 c3        1 4T3      0.193300
     25 N26         4.8400   -1.0800   -6.8550 n4        1 4T3     -0.844600
     26 H1         -2.9120    1.3990   -6.5340 hc        1 4T3      0.098700
     27 H2          4.1410    0.4420   -2.5170 h1        1 4T3      0.079700
     28 H3          4.1120   -1.3710   -2.7490 h1        1 4T3      0.079700
     29 H4          5.6780   -0.3520   -4.3030 hc        1 4T3      0.074700
     30 H5          4.4400    0.8400   -4.9060 hc        1 4T3      0.074700
     31 H6          2.3520   -0.0660   -6.1910 hc        1 4T3      0.074700
     32 H7          2.1980   -1.8620   -6.4480 hc        1 4T3      0.074700
     33 H8          2.8990    0.1690    1.7400 ha        1 4T3      0.176000
     34 H9          0.8510    0.5880    3.3560 h4        1 4T3      0.187000
     35 H10        -2.4830    0.0630   -0.6330 hn        1 4T3      0.442800
     36 H11        -1.6580    1.5320   -4.1080 ha        1 4T3      0.177000
     37 H12        -4.8800   -1.2200   -4.3930 hn        1 4T3      0.328700
     38 H13        -4.2430   -1.4560   -6.8650 hc        1 4T3      0.078450
     39 H14        -3.6700   -0.3680   -8.2170 hc        1 4T3      0.078450
     40 H15        -5.8730    0.3830   -6.0810 hc        1 4T3      0.078450
     41 H16        -5.2980    1.4690   -7.4330 hc        1 4T3      0.078450
     42 H17         4.3210   -2.2710   -5.1770 hx        1 4T3      0.110700
     43 H18         1.9890   -2.2970   -4.0640 h1        1 4T3      0.079700
     44 H19         0.7780   -1.0330   -4.5900 h1        1 4T3      0.079700
     45 H20         5.8440   -1.2030   -6.6980 hn        1 4T3      0.456800
     46 H21         4.6760   -0.1470   -7.2440 hn        1 4T3      0.456800
     47 H263        4.5090   -1.7820   -7.5230 hn        1 4T3      0.456800
@<TRIPOS>BOND
     1    1    2 ar  
     2    1   11 1   
     3    1   14 ar  
     4    2    9 1   
     5    2   12 ar  
     6    3   12 ar  
     7    3   13 ar  
     8    3   22 1   
     9    4    5 1   
    10    4   17 2   
    11    4   18 1   
    12    5   20 1   
    13    5   21 1   
    14    5   26 1   
    15    6    7 1   
    16    6   22 1   
    17    6   27 1   
    18    6   28 1   
    19    7   23 1   
    20    7   29 1   
    21    7   30 1   
    22    8   23 1   
    23    8   24 1   
    24    8   31 1   
    25    8   32 1   
    26    9   10 2   
    27    9   33 1   
    28   10   11 1   
    29   10   34 1   
    30   13   14 ar  
    31   14   15 1   
    32   15   16 1   
    33   15   35 1   
    34   16   17 1   
    35   16   19 2   
    36   17   36 1   
    37   18   19 1   
    38   18   37 1   
    39   20   21 1   
    40   20   38 1   
    41   20   39 1   
    42   21   40 1   
    43   21   41 1   
    44   22   24 1   
    45   23   25 1   
    46   23   42 1   
    47   24   43 1   
    48   24   44 1   
    49   25   45 1   
    50   25   46 1   
    51   25   47 1   
@<TRIPOS>SUBSTRUCTURE
     1 4T3         1 TEMP              0 ****  ****    0 ROOT
