@<TRIPOS>MOLECULE
4T3
   47    51     1     0     0
SMALL
bcc


@<TRIPOS>ATOM
      1 C4         -0.0120    0.2560   -0.0290 ca        1 4T3     -0.405700
      2 C5          1.4110    0.1300    0.0650 ca        1 4T3      0.492100
      3 C7          1.5720   -0.1700   -2.2150 ca        1 4T3      0.867900
      4 C13        -3.3690    0.2410   -4.8090 cc        1 4T3     -0.069600
      5 C17        -3.6200    0.5970   -6.1990 cx        1 4T3     -0.071400
      6 C21         3.8130   -0.3770   -3.2060 c3        1 4T3      0.193300
      7 C22         4.5910   -0.1990   -4.5160 c3        1 4T3     -0.112900
      8 C24         2.5950   -1.0720   -5.7500 c3        1 4T3     -0.112900
      9 C1          1.8410    0.2650    1.4420 cc        1 4T3     -0.256800
     10 C2          0.7720    0.4820    2.2710 cd        1 4T3     -0.134400
     11 S3         -0.6980    0.5360    1.4700 ss        1 4T3      0.130500
     12 N6          2.2140   -0.0930   -1.0090 nb        1 4T3     -0.738000
     13 N8          0.1960   -0.0980   -2.4230 nb        1 4T3     -0.773000
     14 C9         -0.5880    0.1280   -1.3390 ca        1 4T3      0.755200
     15 N10        -1.9710    0.3140   -1.4620 nu        1 4T3     -0.786600
     16 C11        -2.6360    0.0630   -2.6760 cd        1 4T3      0.493200
     17 C12        -2.4100    0.7670   -3.9260 cd        1 4T3     -0.252300
     18 N14        -4.0850   -0.7230   -4.0830 na        1 4T3     -0.000600
     19 N16        -3.6710   -0.8450   -2.8300 nc        1 4T3     -0.531800
     20 C18        -4.0750   -0.4390   -7.2000 cx        1 4T3     -0.123400
     21 C19        -5.0250    0.6260   -6.7500 cx        1 4T3     -0.123400
     22 N20         2.3760   -0.2870   -3.4090 nh        1 4T3     -0.728300
     23 C23         4.1020   -1.2230   -5.5400 c3        1 4T3      0.117500
     24 C25         1.8770   -1.2240   -4.4030 c3        1 4T3      0.193300
     25 N26         4.8480   -1.0810   -6.8450 nz        1 4T3     -0.844600
     26 H1         -2.9120    1.3790   -6.5460 hc        1 4T3      0.098700
     27 H2          4.1390    0.4530   -2.5130 h1        1 4T3      0.079700
     28 H3          4.1120   -1.3600   -2.7390 h1        1 4T3      0.079700
     29 H4          4.4410    0.8440   -4.9010 hc        1 4T3      0.074700
     30 H5          5.6790   -0.3450   -4.2920 hc        1 4T3      0.074700
     31 H6          2.2050   -1.8640   -6.4410 hc        1 4T3      0.074700
     32 H7          2.3570   -0.0670   -6.1880 hc        1 4T3      0.074700
     33 H8          2.8890    0.1980    1.7430 ha        1 4T3      0.176000
     34 H9          0.8380    0.6170    3.3530 h4        1 4T3      0.187000
     35 H10        -2.4890    0.0690   -0.6390 hn        1 4T3      0.442800
     36 H11        -1.6630    1.5260   -4.1180 ha        1 4T3      0.177000
     37 H12        -4.8760   -1.2370   -4.3980 hn        1 4T3      0.328700
     38 H13        -4.2340   -1.4800   -6.8680 hc        1 4T3      0.078450
     39 H14        -3.6620   -0.3960   -8.2240 hc        1 4T3      0.078450
     40 H15        -5.8710    0.3560   -6.0930 hc        1 4T3      0.078450
     41 H16        -5.2970    1.4390   -7.4490 hc        1 4T3      0.078450
     42 H17         4.3260   -2.2680   -5.1640 hx        1 4T3      0.110700
     43 H18         0.7810   -1.0310   -4.5880 h1        1 4T3      0.079700
     44 H19         1.9920   -2.2930   -4.0560 h1        1 4T3      0.079700
     45 H20         4.5190   -1.7850   -7.5110 hn        1 4T3      0.456800
     46 H21         5.8510   -1.2030   -6.6850 hn        1 4T3      0.456800
     47 H263        4.6830   -0.1490   -7.2370 hn        1 4T3      0.456800
@<TRIPOS>BOND
     1    1    2 ar  
     2    1   11 1   
     3    1   14 ar  
     4    2    9 1   
     5    2   12 ar  
     6    3   12 ar  
     7    3   13 ar  
     8    3   22 1   
     9    4    5 1   
    10    4   17 2   
    11    4   18 1   
    12    5   20 1   
    13    5   21 1   
    14    5   26 1   
    15    6    7 1   
    16    6   22 1   
    17    6   27 1   
    18    6   28 1   
    19    7   23 1   
    20    7   29 1   
    21    7   30 1   
    22    8   23 1   
    23    8   24 1   
    24    8   31 1   
    25    8   32 1   
    26    9   10 2   
    27    9   33 1   
    28   10   11 1   
    29   10   34 1   
    30   13   14 ar  
    31   14   15 1   
    32   15   16 1   
    33   15   35 1   
    34   16   17 1   
    35   16   19 2   
    36   17   36 1   
    37   18   19 1   
    38   18   37 1   
    39   20   21 1   
    40   20   38 1   
    41   20   39 1   
    42   21   40 1   
    43   21   41 1   
    44   22   24 1   
    45   23   25 1   
    46   23   42 1   
    47   24   43 1   
    48   24   44 1   
    49   25   45 1   
    50   25   46 1   
    51   25   47 1   
@<TRIPOS>SUBSTRUCTURE
     1 4T3         1 TEMP              0 ****  ****    0 ROOT
