@<TRIPOS>MOLECULE
4T4
   94    99     1     0     0
SMALL
bcc


@<TRIPOS>ATOM
      1 C1          0.1390    0.7990   -1.1240 c3        1 4T4      0.075300
      2 C2          7.6910   -7.4130   -3.5680 ca        1 4T4      0.021400
      3 C3          7.9250   -7.6210   -2.2060 ca        1 4T4     -0.124500
      4 C4         11.8940   -4.6670   -1.4070 ca        1 4T4      0.004600
      5 C5         12.0290   -4.7330   -0.0070 ca        1 4T4     -0.091500
      6 C6         11.6200   -3.6820    0.8010 ca        1 4T4     -0.184500
      7 C7         11.0740   -2.4970    0.2480 ca        1 4T4      0.164600
      8 C8         10.9530   -2.4360   -1.1610 ca        1 4T4     -0.184500
      9 C9         11.3560   -3.4910   -1.9660 ca        1 4T4     -0.091500
     10 C10        10.0280   -0.2880    0.5090 c3        1 4T4      0.204800
     11 C11         8.5710   -0.5300    0.0820 c3        1 4T4     -0.103700
     12 C12         8.1330    0.5880   -0.8510 c3        1 4T4     -0.073900
     13 C13        11.6790   -7.0440   -1.9720 c3        1 4T4      0.216300
     14 C14        13.1490   -5.5480   -3.3140 c         1 4T4      0.705500
     15 C15        13.6300   -6.7390   -4.1220 c3        1 4T4     -0.105100
     16 C16        13.4490   -8.0550   -3.4650 ca        1 4T4     -0.062300
     17 C17        12.5090   -8.2130   -2.4460 ca        1 4T4     -0.095300
     18 C18        12.3320   -9.4600   -1.8360 ca        1 4T4     -0.149000
     19 C19        13.0850  -10.5560   -2.2540 ca        1 4T4      0.104100
     20 C20        14.0400  -10.3980   -3.2960 ca        1 4T4      0.116100
     21 C21        14.2200   -9.1470   -3.8860 ca        1 4T4     -0.181000
     22 C22        15.7930  -11.3640   -4.5760 c3        1 4T4      0.108700
     23 CL1         6.1160   -7.5690   -4.1880 cl        1 4T4     -0.091400
     24 C23         9.2180   -7.4910   -1.7020 ca        1 4T4     -0.106000
     25 C24        10.2800   -7.1600   -2.5500 ca        1 4T4     -0.100300
     26 C25        10.0340   -6.9510   -3.9100 ca        1 4T4     -0.106000
     27 C26         8.7450   -7.0760   -4.4240 ca        1 4T4     -0.124500
     28 N1         12.3060   -5.7550   -2.2270 n         1 4T4     -0.379000
     29 O2         13.0260  -11.7990   -1.6610 os        1 4T4     -0.315900
     30 C27        11.7110  -12.2410   -1.2540 c3        1 4T4      0.137100
     31 C28        11.5940  -13.6820   -1.7180 c3        1 4T4     -0.108600
     32 C29        11.6130  -12.1370    0.2560 c3        1 4T4     -0.108600
     33 O3         13.5350   -4.4050   -3.6280 o         1 4T4     -0.630500
     34 N2         10.7500   -1.4050    1.0730 nh        1 4T4     -0.658000
     35 C30         6.6880    0.4320   -1.2740 c3        1 4T4     -0.078400
     36 C31         5.7610    0.4070   -0.0480 c3        1 4T4      0.192500
     37 C32         6.2000   -0.7590    0.8590 c3        1 4T4     -0.078400
     38 C33         7.6440   -0.5930    1.2830 c3        1 4T4     -0.073900
     39 N3          4.3320    0.2930   -0.3730 n3        1 4T4     -0.735600
     40 C34         3.4830    0.7790    0.7030 c3        1 4T4      0.157800
     41 C35         1.9940    0.4880    0.4390 c3        1 4T4      0.096000
     42 N4          1.5540    0.8570   -0.8840 n         1 4T4     -0.467800
     43 C36         2.4520    0.8910   -1.9390 c         1 4T4      0.697500
     44 C37         3.9560    0.8590   -1.6540 c3        1 4T4      0.103800
     45 O4          2.0660    1.0230   -3.1180 o         1 4T4     -0.645500
     46 C38        10.5290   -1.6790    2.4700 c3        1 4T4      0.189100
     47 H1         -0.2560   -0.2370   -0.9420 h1        1 4T4      0.046033
     48 H2         -0.3830    1.5100   -0.4290 h1        1 4T4      0.046033
     49 H3         -0.0800    1.0920   -2.1860 h1        1 4T4      0.046033
     50 H5         12.4710   -5.6220    0.4700 ha        1 4T4      0.141000
     51 H6         11.7490   -3.7860    1.8890 ha        1 4T4      0.134500
     52 H7         10.5380   -1.5430   -1.6530 ha        1 4T4      0.134500
     53 H8         11.2760   -3.3910   -3.0610 ha        1 4T4      0.141000
     54 H9         10.6100    0.0730   -0.3880 h1        1 4T4      0.055200
     55 H10        10.0430    0.5450    1.2690 h1        1 4T4      0.055200
     56 H11         8.5040   -1.5070   -0.4760 hc        1 4T4      0.067700
     57 H12         8.7820    0.5860   -1.7670 hc        1 4T4      0.042200
     58 H13         8.2740    1.5770   -0.3400 hc        1 4T4      0.042200
     59 H14        11.5860   -7.1360   -0.8420 h1        1 4T4      0.071700
     60 H15        13.0760   -6.7250   -5.1020 hc        1 4T4      0.086200
     61 H16        14.7170   -6.5610   -4.3500 hc        1 4T4      0.086200
     62 H17        11.5970   -9.5750   -1.0250 ha        1 4T4      0.144000
     63 H18        14.9600   -9.0060   -4.6860 ha        1 4T4      0.144000
     64 H19        16.2400  -12.3880   -4.6510 h1        1 4T4      0.045700
     65 H20        16.5430  -10.6330   -4.1880 h1        1 4T4      0.045700
     66 H21        15.4000  -11.0330   -5.5690 h1        1 4T4      0.045700
     67 H22         9.3960   -7.6480   -0.6280 ha        1 4T4      0.137000
     68 H23        10.8640   -6.6870   -4.5840 ha        1 4T4      0.137000
     69 H24         8.5590   -6.9090   -5.4960 ha        1 4T4      0.148500
     70 H25        10.9160  -11.6140   -1.7440 h1        1 4T4      0.051700
     71 H26        10.6110  -14.0970   -1.3940 hc        1 4T4      0.046533
     72 H27        12.4150  -14.2970   -1.2810 hc        1 4T4      0.046533
     73 H28        11.6680  -13.7350   -2.8300 hc        1 4T4      0.046533
     74 H29        10.6340  -12.5480    0.5970 hc        1 4T4      0.046533
     75 H30        12.4380  -12.7160    0.7360 hc        1 4T4      0.046533
     76 H31        11.6960  -11.0730    0.5820 hc        1 4T4      0.046533
     77 H32         6.4240    1.2900   -1.9460 hc        1 4T4      0.050450
     78 H33         6.5650   -0.5170   -1.8590 hc        1 4T4      0.050450
     79 H34         5.9440    1.3720    0.5230 h1        1 4T4      0.024700
     80 H35         5.5560   -0.8060    1.7750 hc        1 4T4      0.050450
     81 H36         6.0740   -1.7270    0.3070 hc        1 4T4      0.050450
     82 H37         7.9360   -1.4560    1.9380 hc        1 4T4      0.042200
     83 H38         7.7540    0.3430    1.8920 hc        1 4T4      0.042200
     84 H40         3.7680    0.2490    1.6530 h1        1 4T4      0.042700
     85 H41         3.6140    1.8880    0.8750 h1        1 4T4      0.042700
     86 H42         1.7960   -0.6100    0.6120 h1        1 4T4      0.044700
     87 H43         1.3880    1.0710    1.1900 h1        1 4T4      0.044700
     88 H44         4.4200    0.2260   -2.4640 h1        1 4T4      0.068700
     89 H45         4.3110    1.9240   -1.7850 h1        1 4T4      0.068700
     90 H46        10.0580   -0.7920    2.9700 h1        1 4T4      0.037033
     91 H47        11.5210   -1.8780    2.9600 h1        1 4T4      0.037033
     92 H48         9.8660   -2.5730    2.6330 h1        1 4T4      0.037033
     93 O1         14.7270  -11.5390   -3.6500 os        1 4T4     -0.301900
     94 H4          7.0940   -7.8810   -1.5320 ha        1 4T4      0.148500
@<TRIPOS>BOND
     1    1   42 1   
     2    1   47 1   
     3    1   48 1   
     4    1   49 1   
     5    2    3 ar  
     6    2   23 1   
     7    2   27 ar  
     8    3   24 ar  
     9    3   94 1   
    10    4    5 ar  
    11    4    9 ar  
    12    4   28 1   
    13    5    6 ar  
    14    5   50 1   
    15    6    7 ar  
    16    6   51 1   
    17    7    8 ar  
    18    7   34 1   
    19    8    9 ar  
    20    8   52 1   
    21    9   53 1   
    22   10   11 1   
    23   10   34 1   
    24   10   54 1   
    25   10   55 1   
    26   11   12 1   
    27   11   38 1   
    28   11   56 1   
    29   12   35 1   
    30   12   57 1   
    31   12   58 1   
    32   13   17 1   
    33   13   25 1   
    34   13   28 1   
    35   13   59 1   
    36   14   15 1   
    37   14   28 1   
    38   14   33 2   
    39   15   16 1   
    40   15   60 1   
    41   15   61 1   
    42   16   17 ar  
    43   16   21 ar  
    44   17   18 ar  
    45   18   19 ar  
    46   18   62 1   
    47   19   20 ar  
    48   19   29 1   
    49   20   21 ar  
    50   20   93 1   
    51   21   63 1   
    52   22   64 1   
    53   22   65 1   
    54   22   66 1   
    55   22   93 1   
    56   24   25 ar  
    57   24   67 1   
    58   25   26 ar  
    59   26   27 ar  
    60   26   68 1   
    61   27   69 1   
    62   29   30 1   
    63   30   31 1   
    64   30   32 1   
    65   30   70 1   
    66   31   71 1   
    67   31   72 1   
    68   31   73 1   
    69   32   74 1   
    70   32   75 1   
    71   32   76 1   
    72   34   46 1   
    73   35   36 1   
    74   35   77 1   
    75   35   78 1   
    76   36   37 1   
    77   36   39 1   
    78   36   79 1   
    79   37   38 1   
    80   37   80 1   
    81   37   81 1   
    82   38   82 1   
    83   38   83 1   
    84   39   40 1   
    85   39   44 1   
    86   40   41 1   
    87   40   84 1   
    88   40   85 1   
    89   41   42 1   
    90   41   86 1   
    91   41   87 1   
    92   42   43 1   
    93   43   44 1   
    94   43   45 2   
    95   44   88 1   
    96   44   89 1   
    97   46   90 1   
    98   46   91 1   
    99   46   92 1   
@<TRIPOS>SUBSTRUCTURE
     1 4T4         1 TEMP              0 ****  ****    0 ROOT
