@<TRIPOS>MOLECULE
4T4
   94    93     1     0     0
SMALL
bcc


@<TRIPOS>ATOM
      1 C1          0.9990   -0.4080   -2.5600 c3        1 4T4     -0.002700
      2 C2          7.5010   -7.2100   -4.5820 ce        1 4T4     -0.019600
      3 C3          6.9600   -8.1980   -3.6730 ce        1 4T4     -0.090000
      4 C4         11.7680   -4.9140   -1.6910 ce        1 4T4      0.077900
      5 C5         11.7030   -5.1590   -0.3500 cf        1 4T4     -0.042000
      6 C6         11.4660   -4.2410    0.7240 cf        1 4T4     -0.281000
      7 C7         11.6660   -2.8960    0.6760 c2        1 4T4      0.111000
      8 C8         11.4440   -2.5440   -2.7500 c1        1 4T4     -0.140500
      9 C9         11.5980   -3.6250   -2.2560 cg        1 4T4     -0.174300
     10 C10        11.3780   -0.6200    1.4400 c3        1 4T4      0.183100
     11 C11         8.2020    0.3730   -0.7390 ce        1 4T4     -0.192000
     12 C12         7.3680    1.4190   -1.3070 ce        1 4T4     -0.108000
     13 C13        10.9130   -6.9080   -2.8210 c3        1 4T4      0.229100
     14 C14        13.0240   -5.7450   -3.6110 c         1 4T4      0.700300
     15 C15        14.3360   -6.2110   -3.1090 ce        1 4T4     -0.242200
     16 C16        14.8770   -7.3130   -3.6840 cf        1 4T4     -0.043000
     17 C17        11.2840   -8.3670   -3.0260 c2        1 4T4     -0.118300
     18 C18        12.1960   -9.0790   -2.4290 c1        1 4T4     -0.120800
     19 C19        13.2480   -9.8210   -2.1360 ce        1 4T4      0.122000
     20 C20        14.4260   -9.5610   -3.0110 ce        1 4T4      0.163100
     21 C21        15.1160   -8.4040   -2.7670 cf        1 4T4     -0.258000
     22 C22        15.3910  -10.0280   -5.1330 c3        1 4T4      0.106700
     23 Cl1         6.4550   -6.7120   -5.8460 cl        1 4T4     -0.123400
     24 C23         7.6350   -8.7490   -2.6600 c2        1 4T4     -0.241000
     25 C24        10.0130   -6.5120   -3.9180 cd        1 4T4     -0.118200
     26 C25         9.7320   -5.7820   -5.0050 cd        1 4T4     -0.046000
     27 C26         8.7120   -6.6710   -4.5180 cd        1 4T4     -0.078000
     28 N1         12.0280   -6.0030   -2.5860 n         1 4T4     -0.424000
     29 O2         13.4430  -10.7140   -1.1070 os        1 4T4     -0.230200
     30 C27        12.3160  -11.0080   -0.3340 c2        1 4T4      0.003100
     31 C28         8.6300  -10.7590    0.2520 c3        1 4T4     -0.113800
     32 C29        12.4930  -11.7880    0.7350 c2        1 4T4     -0.260000
     33 O3         12.7640   -5.3370   -4.7450 o         1 4T4     -0.538100
     34 N2         11.5530   -2.0180    1.7400 nh        1 4T4     -0.660400
     35 C30         6.1480    1.4480   -0.7050 c2        1 4T4     -0.153200
     36 C31         5.7280    0.6130    0.5010 c3        1 4T4      0.215700
     37 C32         6.8720   -0.3530    1.0870 c3        1 4T4     -0.054200
     38 C33         8.0510    0.3970    0.6320 c2        1 4T4     -0.197200
     39 N3          4.4580   -0.0630    0.2650 n3        1 4T4     -0.749600
     40 C34         3.8800   -0.6420    1.4550 c3        1 4T4      0.156100
     41 C35         1.7680   -1.8350   -0.7120 c1        1 4T4     -0.090500
     42 N4          2.0020   -0.9560   -1.6620 n         1 4T4     -0.290400
     43 C36         3.3470   -0.4860   -1.8740 c         1 4T4      0.676100
     44 C37         4.4370   -0.9340   -0.8920 c3        1 4T4      0.126800
     45 O4          3.5830    0.2480   -2.8390 o         1 4T4     -0.543100
     46 C38        10.9710   -2.4800    2.9720 c3        1 4T4      0.183100
     47 H1          1.2570   -0.6630   -3.6220 h1        1 4T4      0.059367
     48 H2         -0.0070   -0.8300   -2.3070 h1        1 4T4      0.059367
     49 H3          0.9720    0.7100   -2.4630 h1        1 4T4      0.059367
     50 H5         11.1260   -4.7220    1.6570 ha        1 4T4      0.128000
     51 H6         11.8170   -6.2080   -0.0090 ha        1 4T4      0.133000
     52 H7         12.0200   -2.4150   -0.2610 h4        1 4T4      0.151000
     53 H8         11.3100   -1.5890   -3.1900 ha        1 4T4      0.168500
     54 H9         10.3020   -0.3650    1.2230 h1        1 4T4      0.042367
     55 H10        12.0010   -0.3380    0.5510 h1        1 4T4      0.042367
     56 H11        11.7200   -0.0150    2.3230 h1        1 4T4      0.042367
     57 H12         8.4270   -0.5200   -1.3320 ha        1 4T4      0.142000
     58 H13         7.6390    2.0210   -2.1790 ha        1 4T4      0.143000
     59 H14        10.2890   -6.8840   -1.8630 h1        1 4T4      0.095700
     60 H15        14.7640   -7.5250   -4.7590 ha        1 4T4      0.135000
     61 H16        14.6050   -5.8950   -2.0880 ha        1 4T4      0.155000
     62 H17        10.6250   -8.8750   -3.7630 ha        1 4T4      0.151000
     63 H18        15.3440   -8.1450   -1.7200 ha        1 4T4      0.155000
     64 H19        14.9740   -9.3100   -5.8820 h1        1 4T4      0.054033
     65 H20        15.5860  -11.0220   -5.6100 h1        1 4T4      0.054033
     66 H21        16.3190   -9.6170   -4.6660 h1        1 4T4      0.054033
     67 H22         7.1810   -9.4960   -1.9970 ha        1 4T4      0.111000
     68 H23         8.6780   -8.4930   -2.4300 ha        1 4T4      0.111000
     69 H24        10.0240   -5.0560   -5.7400 ha        1 4T4      0.211000
     70 H25        11.3590  -10.5820   -0.6700 h4        1 4T4      0.151000
     71 H26         8.9110   -9.9930   -0.5060 hc        1 4T4      0.028700
     72 H27         8.2110  -10.2550    1.1500 hc        1 4T4      0.028700
     73 H28         7.8660  -11.4410   -0.1810 hc        1 4T4      0.028700
     74 H29         9.5310  -11.3440    0.5410 hc        1 4T4      0.028700
     75 H30        11.6440  -12.0690    1.3690 ha        1 4T4      0.132500
     76 H31        13.4730  -12.1850    1.0260 ha        1 4T4      0.132500
     77 H32         7.2890   -2.6140   -1.3910 ha        1 4T4      0.001000
     78 H33         6.6490   -2.8050   -1.2750 ha        1 4T4      0.001000
     79 H34         5.3420    2.0820   -1.1110 ha        1 4T4      0.148000
     80 H35         5.5370    1.3580    1.3340 h1        1 4T4      0.070700
     81 H36         6.7850   -1.3740    0.6390 hc        1 4T4      0.056700
     82 H37         6.7620   -0.4280    2.1940 hc        1 4T4      0.056700
     83 H38         8.2790    1.3170    1.1950 ha        1 4T4      0.117000
     84 H40         3.6790    0.1820    2.1890 h1        1 4T4      0.044700
     85 H41         4.5520   -1.4010    1.9430 h1        1 4T4      0.044700
     86 H42         2.9110   -1.1450    1.1850 h1        1 4T4      0.044700
     87 H43         0.7120   -2.1580   -0.5950 ha        1 4T4     -0.006500
     88 H44         4.2530   -2.0120   -0.6110 h1        1 4T4      0.083200
     89 H45         5.4100   -0.8740   -1.4630 h1        1 4T4      0.083200
     90 H46        11.0060   -1.6590    3.7360 h1        1 4T4      0.042367
     91 H47         9.9030   -2.8050    2.8390 h1        1 4T4      0.042367
     92 H48        11.5650   -3.3530    3.3550 h1        1 4T4      0.042367
     93 O1         14.3860  -10.3040   -4.1570 os        1 4T4     -0.303900
     94 H4          5.9120   -8.4910   -3.8670 ha        1 4T4      0.135000
@<TRIPOS>BOND
     1    1   42 1   
     2    1   47 1   
     3    1   48 1   
     4    1   49 1   
     5    2    3 1   
     6    2   23 1   
     7    2   27 2   
     8    3   24 2   
     9    3   94 1   
    10    4    5 2   
    11    4    9 1   
    12    4   28 1   
    13    5    6 1   
    14    5   51 1   
    15    6    7 2   
    16    6   50 1   
    17    7   34 1   
    18    7   52 1   
    19    8    9 3   
    20    8   53 1   
    21   10   34 1   
    22   10   54 1   
    23   10   55 1   
    24   10   56 1   
    25   11   12 1   
    26   11   38 2   
    27   11   57 1   
    28   12   35 2   
    29   12   58 1   
    30   13   17 1   
    31   13   25 1   
    32   13   28 1   
    33   13   59 1   
    34   14   15 1   
    35   14   28 1   
    36   14   33 2   
    37   15   16 2   
    38   15   61 1   
    39   16   21 1   
    40   16   60 1   
    41   17   18 2   
    42   17   62 1   
    43   18   19 2   
    44   19   20 1   
    45   19   29 1   
    46   20   21 2   
    47   20   93 1   
    48   21   63 1   
    49   22   64 1   
    50   22   65 1   
    51   22   66 1   
    52   22   93 1   
    53   24   67 1   
    54   24   68 1   
    55   25   26 2   
    56   25   27 1   
    57   26   27 1   
    58   26   69 1   
    59   29   30 1   
    60   30   32 2   
    61   30   70 1   
    62   31   71 1   
    63   31   72 1   
    64   31   73 1   
    65   31   74 1   
    66   32   75 1   
    67   32   76 1   
    68   34   46 1   
    69   35   36 1   
    70   35   79 1   
    71   36   37 1   
    72   36   39 1   
    73   36   80 1   
    74   37   38 1   
    75   37   81 1   
    76   37   82 1   
    77   38   83 1   
    78   39   40 1   
    79   39   44 1   
    80   40   84 1   
    81   40   85 1   
    82   40   86 1   
    83   41   42 3   
    84   41   87 1   
    85   42   43 1   
    86   43   44 1   
    87   43   45 2   
    88   44   88 1   
    89   44   89 1   
    90   46   90 1   
    91   46   91 1   
    92   46   92 1   
    93   77   78 1   
@<TRIPOS>SUBSTRUCTURE
     1 4T4         1 TEMP              0 ****  ****    0 ROOT
