@<TRIPOS>MOLECULE
4T5
   50    53     1     0     0
SMALL
bcc


@<TRIPOS>ATOM
      1 N3          0.2940   -0.0730   -0.5260 nb        1 4T5     -0.813000
      2 C4          1.6670   -0.0560   -0.3600 ca        1 4T5      0.883900
      3 C6          1.5420    0.2570    1.9280 ca        1 4T5      0.487200
      4 C8          3.8100    0.1110   -1.5530 c3        1 4T5      0.199800
      5 C13         6.7850   -1.5720   -4.1790 c3        1 4T5      0.118500
      6 C15         6.6950   -0.0450   -4.0950 c3        1 4T5     -0.101400
      7 C24        -3.8030    0.7160   -0.8970 cc        1 4T5     -0.314300
      8 C26        -5.3410    1.1130   -4.4280 cx        1 4T5     -0.116400
      9 C1          0.1460    0.2330    1.8910 ca        1 4T5     -0.447600
     10 C2         -0.4640    0.0570    0.6060 ca        1 4T5      0.717200
     11 N5          2.3280    0.1260    0.8440 nb        1 4T5     -0.770000
     12 N7          2.4290   -0.3140   -1.5300 nu        1 4T5     -0.826900
     13 C9          4.5180   -0.2740   -2.8640 c3        1 4T5     -0.081700
     14 C11         4.6020   -1.7840   -3.0090 c3        1 4T5     -0.077400
     15 C12         5.3830   -2.1840   -4.2460 c3        1 4T5     -0.101400
     16 C16         5.9090    0.3430   -2.8580 c3        1 4T5     -0.077400
     17 N17         7.6180   -2.0000   -5.3630 nz        1 4T5     -0.843600
     18 N18        -1.8550   -0.0290    0.5330 nu        1 4T5     -0.707300
     19 C19        -2.5800    0.0420   -0.6590 cd        1 4T5      0.094300
     20 N20        -2.2880   -0.6700   -1.8440 na        1 4T5      0.002400
     21 N22        -3.1880   -0.4380   -2.7960 nd        1 4T5     -0.521800
     22 C23        -4.1490    0.3760   -2.2590 cc        1 4T5      0.361600
     23 C25        -5.3510    0.8440   -2.9420 cx        1 4T5     -0.165000
     24 C27        -6.0980   -0.0620   -3.8920 cx        1 4T5     -0.116400
     25 H1          2.0800    0.3970    2.8850 h4        1 4T5      0.035100
     26 H2          3.9020    1.2290   -1.4190 h1        1 4T5      0.063200
     27 H3          4.3510   -0.3820   -0.6950 h1        1 4T5      0.063200
     28 H4          7.3210   -1.9650   -3.2620 hx        1 4T5      0.113700
     29 H7         -4.3670    1.3410   -0.2170 ha        1 4T5      0.169000
     30 H8         -4.4120    0.9380   -4.9990 hc        1 4T5      0.076450
     31 H9         -5.8990    1.9900   -4.8030 hc        1 4T5      0.076450
     32 H10        -0.4480    0.3420    2.8040 ha        1 4T5      0.163000
     33 H11         1.9340   -0.1230   -2.3790 hn        1 4T5      0.415800
     34 H12         3.9450    0.1440   -3.7400 hc        1 4T5      0.059700
     35 H13         5.0820   -2.2250   -2.0950 hc        1 4T5      0.077450
     36 H14         3.5690   -2.2190   -3.0850 hc        1 4T5      0.077450
     37 H15         4.8460   -1.8210   -5.1620 hc        1 4T5      0.067200
     38 H16         5.4450   -3.3030   -4.2960 hc        1 4T5      0.067200
     39 H17         6.4630    0.0190   -1.9370 hc        1 4T5      0.077450
     40 H18         5.8270    1.4620   -2.8240 hc        1 4T5      0.077450
     41 H19         7.1820   -1.6720   -6.2300 hn        1 4T5      0.457800
     42 H21         8.5560   -1.5980   -5.2900 hn        1 4T5      0.457800
     43 H22        -2.3540    0.2840    1.3390 hn        1 4T5      0.459800
     44 H23        -1.4340   -1.1280   -2.0660 hn        1 4T5      0.331700
     45 H24        -5.9470    1.5230   -2.2970 hc        1 4T5      0.088700
     46 H25        -5.7110   -1.0800   -4.0770 hc        1 4T5      0.076450
     47 H26        -7.2020   -0.0350   -3.8800 hc        1 4T5      0.076450
     48 H5          7.7210    0.4060   -4.0370 hc        1 4T5      0.067200
     49 H173        7.6830   -3.0210   -5.3880 hn        1 4T5      0.457800
     50 H6          6.1830    0.3630   -5.0070 hc        1 4T5      0.067200
@<TRIPOS>BOND
     1    1    2 ar  
     2    1   10 ar  
     3    2   11 ar  
     4    2   12 1   
     5    3    9 ar  
     6    3   11 ar  
     7    3   25 1   
     8    4   12 1   
     9    4   13 1   
    10    4   26 1   
    11    4   27 1   
    12    5    6 1   
    13    5   15 1   
    14    5   17 1   
    15    5   28 1   
    16    6   16 1   
    17    6   48 1   
    18    6   50 1   
    19    7   19 2   
    20    7   22 1   
    21    7   29 1   
    22    8   23 1   
    23    8   24 1   
    24    8   30 1   
    25    8   31 1   
    26    9   10 ar  
    27    9   32 1   
    28   10   18 1   
    29   12   33 1   
    30   13   14 1   
    31   13   16 1   
    32   13   34 1   
    33   14   15 1   
    34   14   35 1   
    35   14   36 1   
    36   15   37 1   
    37   15   38 1   
    38   16   39 1   
    39   16   40 1   
    40   17   41 1   
    41   17   42 1   
    42   17   49 1   
    43   18   19 1   
    44   18   43 1   
    45   19   20 1   
    46   20   21 1   
    47   20   44 1   
    48   21   22 2   
    49   22   23 1   
    50   23   24 1   
    51   23   45 1   
    52   24   46 1   
    53   24   47 1   
@<TRIPOS>SUBSTRUCTURE
     1 4T5         1 TEMP              0 ****  ****    0 ROOT
