@<TRIPOS>MOLECULE
4T5
   50    53     1     0     0
SMALL
bcc


@<TRIPOS>ATOM
      1 N3          0.2890   -0.1700   -0.6860 nb        1 4T5     -0.815000
      2 C4          1.6350   -0.4010   -0.4670 ca        1 4T5      0.886900
      3 C6          1.3040   -1.2290    1.6670 ca        1 4T5      0.488200
      4 C8          3.8950    0.0530   -1.3300 c3        1 4T5      0.201800
      5 C13         6.9510   -0.6360   -4.2910 c3        1 4T5      0.118500
      6 C15         6.9990    0.6840   -3.5160 c3        1 4T5     -0.101400
      7 C24        -3.8470   -0.4630   -1.4450 cc        1 4T5     -0.321300
      8 C26        -5.9560   -1.2810   -3.6240 cx        1 4T5     -0.121900
      9 C1         -0.0790   -1.0740    1.5500 ca        1 4T5     -0.449600
     10 C2         -0.5670   -0.5180    0.3230 ca        1 4T5      0.718200
     11 N5          2.1830   -0.9080    0.7010 nb        1 4T5     -0.771000
     12 N7          2.4870   -0.1550   -1.5730 nh        1 4T5     -0.829900
     13 C9          4.6950    0.2130   -2.6350 c3        1 4T5     -0.081700
     14 C11         4.6490   -1.0650   -3.4560 c3        1 4T5     -0.077400
     15 C12         5.5110   -0.9610   -4.7000 c3        1 4T5     -0.101400
     16 C16         6.1300    0.5700   -2.2780 c3        1 4T5     -0.077400
     17 N17         7.8560   -0.5880   -5.4980 n4        1 4T5     -0.843600
     18 N18        -1.9360   -0.2750    0.1980 nh        1 4T5     -0.708300
     19 C19        -2.5780   -0.0040   -1.0130 cd        1 4T5      0.097300
     20 N20        -2.1310    0.8990   -2.0030 na        1 4T5      0.003400
     21 N22        -2.9840    0.9790   -3.0200 nd        1 4T5     -0.515800
     22 C23        -4.0620    0.1920   -2.7150 cc        1 4T5      0.361600
     23 C25        -5.2420    0.0490   -3.5660 cx        1 4T5     -0.159000
     24 C27        -6.5990   -0.1230   -2.9250 cx        1 4T5     -0.121900
     25 H1          1.7510   -1.6380    2.5940 h4        1 4T5      0.035100
     26 H2          4.0730    0.9690   -0.6940 h1        1 4T5      0.063200
     27 H3          4.3010   -0.8370   -0.7690 h1        1 4T5      0.063200
     28 H4          7.3490   -1.4690   -3.6350 hx        1 4T5      0.113700
     29 H7         -4.5190   -1.1450   -0.9400 ha        1 4T5      0.168000
     30 H8         -6.3580   -1.6190   -4.5950 hc        1 4T5      0.074950
     31 H9         -5.5670   -2.1210   -3.0210 hc        1 4T5      0.074950
     32 H10        -0.7520   -1.3560    2.3670 ha        1 4T5      0.162000
     33 H11         2.0950    0.4600   -2.2580 hn        1 4T5      0.416800
     34 H12         4.2580    1.0540   -3.2450 hc        1 4T5      0.059700
     35 H13         3.5920   -1.2770   -3.7730 hc        1 4T5      0.077450
     36 H14         4.9870   -1.9310   -2.8270 hc        1 4T5      0.077450
     37 H15         5.4710   -1.9340   -5.2580 hc        1 4T5      0.067200
     38 H16         5.1080   -0.1550   -5.3690 hc        1 4T5      0.067200
     39 H17         6.5530   -0.2050   -1.5860 hc        1 4T5      0.077450
     40 H18         6.1520    1.5530   -1.7350 hc        1 4T5      0.077450
     41 H19         8.8160   -0.3910   -5.2040 hn        1 4T5      0.457800
     42 H21         7.5440    0.1510   -6.1360 hn        1 4T5      0.457800
     43 H22        -2.5180   -0.7090    0.8830 hn        1 4T5      0.458800
     44 H23        -1.2210    1.2900   -2.0830 hn        1 4T5      0.331700
     45 H24        -5.1890    0.6440   -4.5020 hc        1 4T5      0.098700
     46 H25        -6.6700   -0.1350   -1.8230 hc        1 4T5      0.074950
     47 H26        -7.4660    0.3780   -3.3910 hc        1 4T5      0.074950
     48 H5          8.0520    0.9200   -3.2080 hc        1 4T5      0.067200
     49 H173        7.8250   -1.4860   -5.9890 hn        1 4T5      0.457800
     50 H6          6.6250    1.5240   -4.1600 hc        1 4T5      0.067200
@<TRIPOS>BOND
     1    1    2 ar  
     2    1   10 ar  
     3    2   11 ar  
     4    2   12 1   
     5    3    9 ar  
     6    3   11 ar  
     7    3   25 1   
     8    4   12 1   
     9    4   13 1   
    10    4   26 1   
    11    4   27 1   
    12    5    6 1   
    13    5   15 1   
    14    5   17 1   
    15    5   28 1   
    16    6   16 1   
    17    6   48 1   
    18    6   50 1   
    19    7   19 2   
    20    7   22 1   
    21    7   29 1   
    22    8   23 1   
    23    8   24 1   
    24    8   30 1   
    25    8   31 1   
    26    9   10 ar  
    27    9   32 1   
    28   10   18 1   
    29   12   33 1   
    30   13   14 1   
    31   13   16 1   
    32   13   34 1   
    33   14   15 1   
    34   14   35 1   
    35   14   36 1   
    36   15   37 1   
    37   15   38 1   
    38   16   39 1   
    39   16   40 1   
    40   17   41 1   
    41   17   42 1   
    42   17   49 1   
    43   18   19 1   
    44   18   43 1   
    45   19   20 1   
    46   20   21 1   
    47   20   44 1   
    48   21   22 2   
    49   22   23 1   
    50   23   24 1   
    51   23   45 1   
    52   24   46 1   
    53   24   47 1   
@<TRIPOS>SUBSTRUCTURE
     1 4T5         1 TEMP              0 ****  ****    0 ROOT
