@<TRIPOS>MOLECULE
4T6
   44    48     1     0     0
SMALL
bcc


@<TRIPOS>ATOM
      1 C4         -0.0320   -0.1530   -0.0540 ca        1 4T6     -0.077200
      2 C5          1.3560    0.0360   -0.0210 ca        1 4T6      0.011400
      3 C6          2.0380   -0.2940    1.1500 ca        1 4T6     -0.075300
      4 C7          3.5330   -0.1620    1.2400 c3        1 4T6      0.249100
      5 C13         6.9730    3.1530    0.8400 ca        1 4T6      0.702200
      6 C17         5.2060    5.8050    0.6520 cc        1 4T6     -0.244300
      7 C22         3.5120    7.6150   -0.0580 cx        1 4T6     -0.059400
      8 C24         2.8080    8.1190   -1.2940 cx        1 4T6     -0.128400
      9 C1          1.3370   -0.7910    2.2680 ca        1 4T6     -0.129000
     10 C2         -0.0350   -0.9870    2.2640 ca        1 4T6     -0.066000
     11 C3         -0.7490   -0.6730    1.1000 ca        1 4T6      0.079400
     12 N8          3.9630    1.2190    1.2900 nh        1 4T6     -0.823900
     13 C9          5.3340    1.5120    1.1690 ca        1 4T6      0.890900
     14 N10         6.2590    0.5120    1.4510 nb        1 4T6     -0.770000
     15 C11         7.5480    0.8870    1.4250 ca        1 4T6      0.481200
     16 C12         7.9850    2.1810    1.1310 ca        1 4T6     -0.464600
     17 N14         5.6500    2.8210    0.8340 nb        1 4T6     -0.790000
     18 C16         6.5010    5.4420    0.0980 cc        1 4T6      0.507200
     19 C18         4.7550    6.8620   -0.1570 cd        1 4T6     -0.075600
     20 N19         5.7550    7.0760   -1.1180 na        1 4T6     -0.009600
     21 N21         6.7860    6.2500   -0.9910 nd        1 4T6     -0.553800
     22 C23         3.4720    9.0910   -0.3690 cx        1 4T6     -0.128400
     23 CL1         2.1440    0.6470   -1.3970 cl        1 4T6     -0.089400
     24 N26        -0.9970    0.0640   -1.0400 na        1 4T6     -0.279300
     25 C27        -2.2270   -0.3200   -0.4750 cc        1 4T6      0.426700
     26 N28        -2.1210   -0.7590    0.7880 nd        1 4T6     -0.562100
     27 H1          3.9040   -0.6700    2.1780 h1        1 4T6      0.067200
     28 H2          3.9920   -0.7050    0.3590 h1        1 4T6      0.067200
     29 H3          4.7050    5.3420    1.4940 ha        1 4T6      0.183000
     30 H4          2.8860    7.2440    0.7810 hc        1 4T6      0.102700
     31 H5          3.2520    7.9260   -2.2870 hc        1 4T6      0.074450
     32 H6          1.7040    8.0700   -1.3250 hc        1 4T6      0.074450
     33 H7          1.9100   -1.0280    3.1800 ha        1 4T6      0.146000
     34 H8         -0.5580   -1.3770    3.1480 ha        1 4T6      0.156000
     35 H9          3.3490    1.8750    0.8530 hn        1 4T6      0.432800
     36 H10         8.2750    0.0850    1.6530 h4        1 4T6      0.024100
     37 H11         9.0490    2.4350    1.1310 ha        1 4T6      0.152000
     38 H12         8.3230    4.5510    0.2860 hn        1 4T6      0.431800
     39 H13         5.7590    7.7730   -1.8250 hn        1 4T6      0.320700
     40 H14         2.8480    9.7440    0.2670 hc        1 4T6      0.074450
     41 H15         4.3960    9.6020   -0.6930 hc        1 4T6      0.074450
     42 H16        -0.8310    0.4060   -1.9490 hn        1 4T6      0.314700
     43 H17        -3.1640   -0.2520   -1.0430 h5        1 4T6      0.072800
     44 N15         7.3830    4.4830    0.6240 nh        1 4T6     -0.790600
@<TRIPOS>BOND
     1    1    2 ar  
     2    1   11 ar  
     3    1   24 1   
     4    2    3 ar  
     5    2   23 1   
     6    3    4 1   
     7    3    9 ar  
     8    4   12 1   
     9    4   27 1   
    10    4   28 1   
    11    5   16 ar  
    12    5   17 ar  
    13    5   44 1   
    14    6   18 1   
    15    6   19 2   
    16    6   29 1   
    17    7    8 1   
    18    7   19 1   
    19    7   22 1   
    20    7   30 1   
    21    8   22 1   
    22    8   31 1   
    23    8   32 1   
    24    9   10 ar  
    25    9   33 1   
    26   10   11 ar  
    27   10   34 1   
    28   11   26 1   
    29   12   13 1   
    30   12   35 1   
    31   13   14 ar  
    32   13   17 ar  
    33   14   15 ar  
    34   15   16 ar  
    35   15   36 1   
    36   16   37 1   
    37   18   21 2   
    38   18   44 1   
    39   19   20 1   
    40   20   21 1   
    41   20   39 1   
    42   22   40 1   
    43   22   41 1   
    44   24   25 1   
    45   24   42 1   
    46   25   26 2   
    47   25   43 1   
    48   38   44 1   
@<TRIPOS>SUBSTRUCTURE
     1 4T6         1 TEMP              0 ****  ****    0 ROOT
