@<TRIPOS>MOLECULE
4T6
   44    60     1     0     0
SMALL
bcc


@<TRIPOS>ATOM
      1 C4          0.0000    0.0000    0.0000 c2        1 4T6     -0.252000
      2 C5          1.3890    0.0000    0.0000 c2        1 4T6     -0.183000
      3 C6          2.0720    0.0000    1.1990 c3        1 4T6     -0.081000
      4 C7          3.5790    0.0000    1.2010 DU        1 4T6     -0.294000
      5 C13         7.1520    3.1180    0.6580 c3        1 4T6     -0.066000
      6 C17         5.2730    5.2950    0.1470 c2        1 4T6     -0.435000
      7 C22         3.2760    6.8110   -0.3150 DU        1 4T6     -0.221000
      8 C24         2.8560    7.8010   -1.4030 cx        1 4T6     -0.314000
      9 C1          1.3810   -0.0000    2.4020 c3        1 4T6     -0.159000
     10 C2          0.0150   -0.0000    2.4210 c2        1 4T6     -0.201000
     11 C3         -0.6990   -0.0070    1.2190 c2        1 4T6     -0.053000
     12 N8          4.0680    1.3600    0.9620 ny        1 4T6     -0.177000
     13 C9          5.4290    1.6100    0.9220 c3        1 4T6      0.108000
     14 N10         6.2750    0.6060    1.0990 n7        1 4T6     -0.017000
     15 C11         7.5850    0.8050    1.0660 c3        1 4T6     -0.001000
     16 C12         8.0690    2.0790    0.8440 c2        1 4T6     -0.572000
     17 N14         5.8520    2.8450    0.7040 n2        1 4T6     -0.190000
     18 C16         6.6710    5.4250    0.1400 c2        1 4T6     -0.071000
     19 C18         4.7430    6.4920   -0.1930 c3        1 4T6     -0.113000
     20 N19         5.7630    7.3510   -0.4020 n7        1 4T6     -0.085000
     21 N21         6.9640    6.6600   -0.1930 n7        1 4T6     -0.006000
     22 C23         2.8240    8.2210    0.0680 cx        1 4T6     -0.221000
     23 Cl1         2.2610   -0.0000   -1.5010 cl        1 4T6      0.120000
     24 N26        -0.9620   -0.0000   -0.9910 ny        1 4T6      0.441000
     25 C27        -2.1760   -0.0000   -0.3750 c2        1 4T6     -0.454000
     26 N28        -2.0220   -0.0100    0.9160 n2        1 4T6      0.001000
     27 H1          4.2900    0.7920    0.9980 DU        1 4T6      0.253000
     28 H2          3.9410   -0.6560    0.4190 hx        1 4T6      0.087000
     29 H3          5.0380    4.2990    0.5030 ha        1 4T6      0.235000
     30 H4          3.8140    5.9160   -0.0280 DU        1 4T6      0.317000
     31 H5          2.7060    6.9340   -0.7700 DU        1 4T6      0.152000
     32 H6          1.8900    7.6140   -1.8570 hc        1 4T6      0.051000
     33 H7          1.6390    0.9270    1.9060 DU        1 4T6      0.232000
     34 H8          0.9920   -0.0000    2.8890 DU        1 4T6      0.239000
     35 H9          3.2110    1.1060    1.4120 DU        1 4T6      0.253000
     36 H10         6.5520    1.1290    1.0110 DU        1 4T6      0.146000
     37 H11         8.1710    1.0170    1.0300 DU        1 4T6      0.241000
     38 H12         8.1730    3.6100    0.5780 DU        1 4T6      0.336000
     39 H13         6.4350    6.6100   -0.4210 DU        1 4T6      0.243000
     40 H14         3.8720    8.2560   -0.2030 hc        1 4T6      0.180000
     41 H15         1.8380    8.2920    0.5120 hc        1 4T6      0.180000
     42 H16        -0.5080    0.8820   -0.8550 hn        1 4T6      0.099000
     43 H17        -1.4700    0.0030   -1.1970 DU        1 4T6      0.200000
     44 N15         7.5930    4.4130    0.4370 n7        1 4T6      0.056000
@<TRIPOS>BOND
     1    1    2 1   
     2    1   11 1   
     3    1   24 1   
     4    2    3 1   
     5    2   23 1   
     6    3    4 1   
     7    3    9 1   
     8    3   33 1   
     9    4   12 1   
    10    4   27 1   
    11    4   28 1   
    12    4   35 1   
    13    5   16 1   
    14    5   17 1   
    15    5   38 1   
    16    5   44 1   
    17    6   18 1   
    18    6   19 1   
    19    6   29 1   
    20    7    8 1   
    21    7   19 1   
    22    7   22 1   
    23    7   30 1   
    24    7   31 1   
    25    8   22 1   
    26    8   31 1   
    27    8   32 1   
    28    9   10 1   
    29    9   33 1   
    30    9   34 1   
    31   10   11 1   
    32   10   34 1   
    33   11   26 1   
    34   12   13 1   
    35   12   27 1   
    36   12   35 1   
    37   13   14 1   
    38   13   17 1   
    39   13   36 1   
    40   14   15 1   
    41   14   36 1   
    42   15   16 1   
    43   15   36 1   
    44   15   37 1   
    45   16   37 1   
    46   18   21 1   
    47   18   44 1   
    48   19   20 1   
    49   19   30 1   
    50   20   21 1   
    51   20   39 1   
    52   21   39 1   
    53   22   40 1   
    54   22   41 1   
    55   24   25 1   
    56   24   42 1   
    57   24   43 1   
    58   25   26 1   
    59   25   43 1   
    60   38   44 1   
@<TRIPOS>SUBSTRUCTURE
     1 4T6         1 TEMP              0 ****  ****    0 ROOT
