@<TRIPOS>MOLECULE
4T9
   42    34     1     0     0
SMALL
bcc


@<TRIPOS>ATOM
      1 C3         -1.3370   -2.2990   -6.4840 c3        1 4T9     -0.076000
      2 O1         -1.2060   -0.9820   -5.8810 os        1 4T9     -0.207000
      3 C2         -0.6600   -0.9990   -4.5760 c2        1 4T9      0.037000
      4 C4         -1.3180   -1.6870   -3.5510 c2        1 4T9     -0.174000
      5 C5         -0.7690   -1.7140   -2.2550 c1        1 4T9     -0.154000
      6 C6          0.4400   -1.0500   -1.9900 c1        1 4T9      0.034000
      7 C17         1.1040   -0.3550   -3.0230 c1        1 4T9     -0.093000
      8 C1          0.5580   -0.3290   -4.3100 c1        1 4T9      0.041000
      9 O           1.2520    0.3100   -5.3560 os        1 4T9     -0.212000
     10 C           2.3950   -0.4220   -5.8340 c3        1 4T9     -0.074000
     11 N           1.0150   -1.0810   -0.6340 n3        1 4T9     -0.228000
     12 C7          0.5590   -0.1770    0.3460 c2        1 4T9      0.117000
     13 C16         0.6210   -0.6150    1.6710 c2        1 4T9     -0.253000
     14 C10         0.2470    0.2620    2.7250 c1        1 4T9      0.062000
     15 N2          0.2040    0.0990    4.1200 n1        1 4T9     -0.209000
     16 C11        -0.2390    1.2660    4.6670 c1        1 4T9      0.045000
     17 C15        -0.4740    2.1540    3.6450 c1        1 4T9     -0.164000
     18 C9         -0.1680    1.5160    2.4380 c1        1 4T9     -0.169000
     19 C8         -0.2290    1.9620    1.0640 c1        1 4T9      0.015000
     20 N1          0.1310    1.1180    0.0560 n1        1 4T9     -0.190000
     21 C12        -0.4890    1.6750    6.1150 c1        1 4T9     -0.133000
     22 C14        -1.6360    1.4180    6.8440 c1        1 4T9     -0.130000
     23 N4         -1.4130    1.8080    8.1280 n2        1 4T9     -0.118000
     24 N3         -0.1210    2.3120    8.2070 n2        1 4T9     -0.118000
     25 C13         0.4430    2.2290    6.9710 c1        1 4T9     -0.130000
     26 H31C       -1.9250   -2.8540   -5.9310 h1        1 4T9      0.083000
     27 H32C       -1.7270   -2.2090   -7.3980 h1        1 4T9      0.083000
     28 H33C       -0.4410   -2.7260   -6.5460 h1        1 4T9      0.083000
     29 H4         -2.1500   -2.1440   -3.7330 ha        1 4T9      0.137000
     30 H5         -1.2420   -2.2080   -1.5210 ha        1 4T9      0.129000
     31 H17         1.9780    0.1260   -2.8330 ha        1 4T9      0.169000
     32 H           1.6170   -1.6830   -0.4270 hn        1 4T9      0.204000
     33 HC1         2.6970   -0.0370   -6.6730 h1        1 4T9      0.081667
     34 HC2         2.1420   -1.3820   -5.9790 h1        1 4T9      0.081667
     35 HC3         3.1230   -0.3700   -5.1680 h1        1 4T9      0.081667
     36 H16         0.9910   -1.5230    1.8820 ha        1 4T9      0.142000
     37 H2          0.4330   -0.6560    4.5800 DU        1 4T9      0.208800
     38 H15        -0.8050    3.0870    3.7450 DU        1 4T9      0.208800
     39 H8         -0.5250    2.8580    0.8600 ha        1 4T9      0.163000
     40 H14        -2.4540    1.0300    6.5010 DU        1 4T9      0.208800
     41 H13         1.3870    2.5250    6.7210 DU        1 4T9      0.208800
     42 HA         -2.0090    1.7490    8.8190 DU        1 4T9      0.208800
@<TRIPOS>BOND
     1    1    2 1   
     2    1   26 1   
     3    1   27 1   
     4    1   28 1   
     5    2    3 1   
     6    3    4 1   
     7    3    8 1   
     8    4    5 1   
     9    4   29 1   
    10    5   30 1   
    11    6    7 1   
    12    6   11 1   
    13    7   31 1   
    14    8    9 1   
    15    9   10 1   
    16   10   33 1   
    17   10   34 1   
    18   10   35 1   
    19   11   12 1   
    20   11   32 1   
    21   12   13 1   
    22   12   20 1   
    23   13   14 1   
    24   13   36 1   
    25   15   16 1   
    26   16   17 1   
    27   17   18 1   
    28   18   19 1   
    29   19   39 1   
    30   21   22 1   
    31   21   25 1   
    32   22   23 1   
    33   23   24 1   
    34   24   25 1   
@<TRIPOS>SUBSTRUCTURE
     1 4T9         1 TEMP              0 ****  ****    0 ROOT
