@<TRIPOS>MOLECULE
4T9
   43    46     1     0     0
SMALL
bcc


@<TRIPOS>ATOM
      1 C3         -0.1780   -1.1370    0.5790 c3        1 4T9      0.101700
      2 O1          0.8710   -0.1810    0.7430 os        1 4T9     -0.278900
      3 C2          1.7260   -0.3800    1.7900 ca        1 4T9      0.167100
      4 C4          1.6470   -1.4270    2.7080 ca        1 4T9     -0.185000
      5 C5          2.5770   -1.5330    3.7430 ca        1 4T9     -0.095000
      6 C6          3.5980   -0.5840    3.8520 ca        1 4T9     -0.060400
      7 C17         3.7000    0.4900    2.9420 ca        1 4T9     -0.162000
      8 C1          2.7700    0.5930    1.9140 ca        1 4T9      0.130100
      9 O           2.7550    1.5790    0.9620 os        1 4T9     -0.282900
     10 C           3.7770    2.5720    1.0510 c3        1 4T9      0.101700
     11 N           4.5960   -0.7050    4.9200 n4        1 4T9     -0.598100
     12 C7          4.4620    0.3480    5.9580 ca        1 4T9      0.433200
     13 C16         3.5400    0.1540    7.0010 ca        1 4T9     -0.185300
     14 C10         3.4790    1.1850    7.9500 ca        1 4T9     -0.040200
     15 N2          2.7130    1.3390    9.0980 na        1 4T9     -0.162400
     16 C11         3.0460    2.5700    9.6930 cc        1 4T9      0.117700
     17 C15         4.0360    3.2130    8.9220 cd        1 4T9     -0.186200
     18 C9          4.3280    2.3600    7.8140 ca        1 4T9     -0.157100
     19 C8          5.1990    2.4170    6.7070 ca        1 4T9      0.471200
     20 N1          5.2710    1.4470    5.7960 nb        1 4T9     -0.683000
     21 C12         2.4310    3.0270   10.8930 cc        1 4T9     -0.274100
     22 C14         2.6930    4.2340   11.5840 cd        1 4T9     -0.077300
     23 N4          1.8520    4.2330   12.6880 na        1 4T9      0.001400
     24 N3          1.0880    3.1390   12.7540 nd        1 4T9     -0.481800
     25 C13         1.4020    2.3720   11.6830 cc        1 4T9      0.319200
     26 H31C       -0.8500   -1.1360    1.4710 h1        1 4T9      0.062033
     27 H32C       -0.7180   -0.7590   -0.3280 h1        1 4T9      0.062033
     28 H33C        0.2440   -2.1540    0.3960 h1        1 4T9      0.062033
     29 H4          0.8510   -2.1840    2.6260 ha        1 4T9      0.169000
     30 H5          2.4870   -2.3720    4.4520 ha        1 4T9      0.147000
     31 H17         4.4990    1.2420    3.0470 ha        1 4T9      0.174000
     32 H           4.4950   -1.6170    5.3800 hn        1 4T9      0.461800
     33 HC1         3.5470    3.2440    0.1840 h1        1 4T9      0.058700
     34 HC2         4.7860    2.1080    0.9350 h1        1 4T9      0.058700
     35 HC3         3.7010    3.1290    2.0150 h1        1 4T9      0.058700
     36 H16         2.9040   -0.7380    7.0770 ha        1 4T9      0.158000
     37 H2          2.0410    0.7010    9.4410 hn        1 4T9      0.318700
     38 H15         4.4880    4.1770    9.1360 ha        1 4T9      0.178000
     39 H8          5.8710    3.2830    6.5460 h4        1 4T9      0.055100
     40 H14         3.3890    5.0440   11.3650 h4        1 4T9      0.193000
     41 H13         0.9160    1.4140   11.4990 h4        1 4T9      0.046100
     42 HA          1.7800    4.9370   13.3900 hn        1 4T9      0.341700
     43 HN3         5.5330   -0.6460    4.4920 hn        1 4T9      0.461800
@<TRIPOS>BOND
     1    1    2 1   
     2    1   26 1   
     3    1   27 1   
     4    1   28 1   
     5    2    3 1   
     6    3    4 ar  
     7    3    8 ar  
     8    4    5 ar  
     9    4   29 1   
    10    5    6 ar  
    11    5   30 1   
    12    6    7 ar  
    13    6   11 1   
    14    7    8 ar  
    15    7   31 1   
    16    8    9 1   
    17    9   10 1   
    18   10   33 1   
    19   10   34 1   
    20   10   35 1   
    21   11   12 1   
    22   11   32 1   
    23   11   43 1   
    24   12   13 ar  
    25   12   20 ar  
    26   13   14 ar  
    27   13   36 1   
    28   14   15 1   
    29   14   18 ar  
    30   15   16 1   
    31   15   37 1   
    32   16   17 2   
    33   16   21 1   
    34   17   18 1   
    35   17   38 1   
    36   18   19 ar  
    37   19   20 ar  
    38   19   39 1   
    39   21   22 2   
    40   21   25 1   
    41   22   23 1   
    42   22   40 1   
    43   23   24 1   
    44   23   42 1   
    45   24   25 2   
    46   25   41 1   
@<TRIPOS>SUBSTRUCTURE
     1 4T9         1 TEMP              0 ****  ****    0 ROOT
