@<TRIPOS>MOLECULE
4T9
   42    45     1     0     0
SMALL
bcc


@<TRIPOS>ATOM
      1 C3         -6.8080   -2.4860   -0.1580 c3        1 4T9      0.111700
      2 O1         -6.4920   -1.1310    0.1410 os        1 4T9     -0.304900
      3 C2         -5.2020   -0.7360   -0.1540 ca        1 4T9      0.087100
      4 C4         -4.2260   -1.5460   -0.7310 ca        1 4T9     -0.167000
      5 C5         -2.9520   -1.0460   -0.9950 ca        1 4T9     -0.107000
      6 C6         -2.6270    0.2830   -0.6740 ca        1 4T9      0.131600
      7 C17        -3.6130    1.1110   -0.0830 ca        1 4T9     -0.221000
      8 C1         -4.8870    0.6110    0.1680 ca        1 4T9      0.117100
      9 O          -5.9210    1.3390    0.7250 os        1 4T9     -0.304900
     10 C          -5.6030    2.6620    1.1360 c3        1 4T9      0.110700
     11 N          -1.3690    0.8330   -1.0180 nh        1 4T9     -0.708300
     12 C7         -0.1570    0.2900   -0.5290 ca        1 4T9      0.642200
     13 C16         1.0280    1.0360   -0.7690 ca        1 4T9     -0.320300
     14 C10         2.2350    0.4590   -0.3540 ca        1 4T9      0.017800
     15 N2          3.5460    0.9120   -0.4340 na        1 4T9     -0.187400
     16 C11         4.3900   -0.0670    0.1380 cc        1 4T9      0.029700
     17 C15         3.6160   -1.1400    0.5970 cd        1 4T9     -0.153200
     18 C9          2.2430   -0.8350    0.2980 ca        1 4T9     -0.247100
     19 C8          1.0040   -1.4670    0.4880 ca        1 4T9      0.479200
     20 N1         -0.1570   -0.9420    0.1020 nb        1 4T9     -0.719000
     21 C12         5.8070    0.0920    0.2040 cc        1 4T9     -0.211100
     22 C14         6.7440   -0.8170    0.7380 cd        1 4T9     -0.120300
     23 N4          7.9940   -0.2220    0.5770 na        1 4T9     -0.017600
     24 N3          7.9220    0.9740   -0.0090 nd        1 4T9     -0.506800
     25 C13         6.6090    1.2120   -0.2560 cc        1 4T9      0.301200
     26 H31C       -6.7130   -2.6820   -1.2540 h1        1 4T9      0.042367
     27 H32C       -6.1550   -3.1830    0.4210 h1        1 4T9      0.042367
     28 H33C       -7.8740   -2.5810    0.1680 h1        1 4T9      0.042367
     29 H4         -4.4500   -2.5920   -0.9870 ha        1 4T9      0.140000
     30 H5         -2.2040   -1.7090   -1.4550 ha        1 4T9      0.154000
     31 H17        -3.3740    2.1520    0.1750 ha        1 4T9      0.135000
     32 H          -1.3620    1.8340   -1.0080 hn        1 4T9      0.409800
     33 HC1        -6.5610    3.0300    1.5850 h1        1 4T9      0.042367
     34 HC2        -4.7880    2.6580    1.9000 h1        1 4T9      0.042367
     35 HC3        -5.3140    3.2910    0.2590 h1        1 4T9      0.042367
     36 H16         1.0060    2.0120   -1.2670 ha        1 4T9      0.142000
     37 H2          3.8500    1.7430   -0.8640 hn        1 4T9      0.301700
     38 H15         3.9820   -2.0360    1.0880 ha        1 4T9      0.155000
     39 H8          0.9400   -2.4530    0.9850 h4        1 4T9      0.024100
     40 H14         6.6080   -1.7950    1.1970 h4        1 4T9      0.184000
     41 H13         6.2670    2.1290   -0.7330 h4        1 4T9      0.041100
     42 HA          8.8740   -0.5970    0.8460 hn        1 4T9      0.325700
@<TRIPOS>BOND
     1    1    2 1   
     2    1   26 1   
     3    1   27 1   
     4    1   28 1   
     5    2    3 1   
     6    3    4 ar  
     7    3    8 ar  
     8    4    5 ar  
     9    4   29 1   
    10    5    6 ar  
    11    5   30 1   
    12    6    7 ar  
    13    6   11 1   
    14    7    8 ar  
    15    7   31 1   
    16    8    9 1   
    17    9   10 1   
    18   10   33 1   
    19   10   34 1   
    20   10   35 1   
    21   11   12 1   
    22   11   32 1   
    23   12   13 ar  
    24   12   20 ar  
    25   13   14 ar  
    26   13   36 1   
    27   14   15 1   
    28   14   18 ar  
    29   15   16 1   
    30   15   37 1   
    31   16   17 2   
    32   16   21 1   
    33   17   18 1   
    34   17   38 1   
    35   18   19 ar  
    36   19   20 ar  
    37   19   39 1   
    38   21   22 2   
    39   21   25 1   
    40   22   23 1   
    41   22   40 1   
    42   23   24 1   
    43   23   42 1   
    44   24   25 2   
    45   25   41 1   
@<TRIPOS>SUBSTRUCTURE
     1 4T9         1 TEMP              0 ****  ****    0 ROOT
