@<TRIPOS>MOLECULE
4T9
   42    45     1     0     0
SMALL
bcc


@<TRIPOS>ATOM
      1 C3          0.3340   -0.1310   -0.5610 c3        1 4T9      0.111700
      2 O1          1.7240   -0.0720   -0.2680 os        1 4T9     -0.304900
      3 C2          2.0570   -0.1000    1.0730 ca        1 4T9      0.087100
      4 C4          1.1470   -0.2030    2.1240 ca        1 4T9     -0.167000
      5 C5          1.5890   -0.2290    3.4460 ca        1 4T9     -0.107000
      6 C6          2.9600   -0.1420    3.7410 ca        1 4T9      0.131600
      7 C17         3.8890   -0.0330    2.6780 ca        1 4T9     -0.221000
      8 C1          3.4450   -0.0180    1.3590 ca        1 4T9      0.117100
      9 O           4.2690    0.0690    0.2540 os        1 4T9     -0.304900
     10 C           5.6560    0.2410    0.5190 c3        1 4T9      0.110700
     11 N           3.4320   -0.2590    5.0720 nh        1 4T9     -0.708300
     12 C7          3.0300    0.6400    6.0880 ca        1 4T9      0.642200
     13 C16         3.7140    0.5560    7.3310 ca        1 4T9     -0.320300
     14 C10         3.2620    1.3920    8.3600 ca        1 4T9      0.017800
     15 N2          3.7000    1.5580    9.6680 na        1 4T9     -0.187400
     16 C11         2.8900    2.5360   10.2870 cc        1 4T9      0.029700
     17 C15         1.9420    3.0070    9.3690 cd        1 4T9     -0.153200
     18 C9          2.1550    2.2980    8.1360 ca        1 4T9     -0.247100
     19 C8          1.5680    2.2940    6.8600 ca        1 4T9      0.479200
     20 N1          1.9770    1.5100    5.8650 nb        1 4T9     -0.719000
     21 C12         3.0760    2.9330   11.6450 cc        1 4T9     -0.211100
     22 C14         2.3280    3.8870   12.3670 cd        1 4T9     -0.120300
     23 N4          2.8830    3.9270   13.6450 na        1 4T9     -0.017600
     24 N3          3.9090    3.0860   13.7850 nd        1 4T9     -0.506800
     25 C13         4.0660    2.4560   12.5940 cc        1 4T9      0.301200
     26 H31C        0.3030   -0.0840   -1.6790 h1        1 4T9      0.042367
     27 H32C       -0.2040    0.7410   -0.1150 h1        1 4T9      0.042367
     28 H33C       -0.1080   -1.0910   -0.1960 h1        1 4T9      0.042367
     29 H4          0.0680   -0.2660    1.9230 ha        1 4T9      0.140000
     30 H5          0.8470   -0.3150    4.2540 ha        1 4T9      0.154000
     31 H17         4.9650    0.0380    2.8930 ha        1 4T9      0.135000
     32 H           4.4080   -0.4720    5.1250 hn        1 4T9      0.409800
     33 HC1         6.0690   -0.6480    1.0550 h1        1 4T9      0.042367
     34 HC2         5.8370    1.1730    1.1090 h1        1 4T9      0.042367
     35 HC3         6.1050    0.3280   -0.5030 h1        1 4T9      0.042367
     36 H16         4.5490   -0.1370    7.4850 ha        1 4T9      0.142000
     37 H2          4.4140    1.0470   10.1130 hn        1 4T9      0.301700
     38 H15         1.1880    3.7650    9.5520 ha        1 4T9      0.155000
     39 H8          0.7230    2.9660    6.6220 h4        1 4T9      0.024100
     40 H14         1.4820    4.5050   12.0680 h4        1 4T9      0.184000
     41 H13         4.8440    1.7100   12.4330 h4        1 4T9      0.041100
     42 HA          2.5920    4.4950   14.4050 hn        1 4T9      0.325700
@<TRIPOS>BOND
     1    1    2 1   
     2    1   26 1   
     3    1   27 1   
     4    1   28 1   
     5    2    3 1   
     6    3    4 ar  
     7    3    8 ar  
     8    4    5 ar  
     9    4   29 1   
    10    5    6 ar  
    11    5   30 1   
    12    6    7 ar  
    13    6   11 1   
    14    7    8 ar  
    15    7   31 1   
    16    8    9 1   
    17    9   10 1   
    18   10   33 1   
    19   10   34 1   
    20   10   35 1   
    21   11   12 1   
    22   11   32 1   
    23   12   13 ar  
    24   12   20 ar  
    25   13   14 ar  
    26   13   36 1   
    27   14   15 1   
    28   14   18 ar  
    29   15   16 1   
    30   15   37 1   
    31   16   17 2   
    32   16   21 1   
    33   17   18 1   
    34   17   38 1   
    35   18   19 ar  
    36   19   20 ar  
    37   19   39 1   
    38   21   22 2   
    39   21   25 1   
    40   22   23 1   
    41   22   40 1   
    42   23   24 1   
    43   23   42 1   
    44   24   25 2   
    45   25   41 1   
@<TRIPOS>SUBSTRUCTURE
     1 4T9         1 TEMP              0 ****  ****    0 ROOT
