@<TRIPOS>MOLECULE
4T9
   42    45     1     0     0
SMALL
bcc


@<TRIPOS>ATOM
      1 C3          0.3300   -0.1420   -0.5570 c3        1 4T9      0.111700
      2 O1          1.7200   -0.0760   -0.2660 os        1 4T9     -0.304900
      3 C2          2.0550   -0.1030    1.0740 ca        1 4T9      0.087100
      4 C4          1.1480   -0.2100    2.1260 ca        1 4T9     -0.167000
      5 C5          1.5910   -0.2350    3.4480 ca        1 4T9     -0.107000
      6 C6          2.9620   -0.1420    3.7410 ca        1 4T9      0.131600
      7 C17         3.8890   -0.0280    2.6760 ca        1 4T9     -0.221000
      8 C1          3.4430   -0.0150    1.3590 ca        1 4T9      0.117100
      9 O           4.2650    0.0760    0.2520 os        1 4T9     -0.304900
     10 C           5.6510    0.2540    0.5150 c3        1 4T9      0.110700
     11 N           3.4360   -0.2570    5.0710 nu        1 4T9     -0.708300
     12 C7          3.0330    0.6410    6.0880 ca        1 4T9      0.642200
     13 C16         3.7190    0.5600    7.3300 ca        1 4T9     -0.320300
     14 C10         3.2650    1.3930    8.3590 ca        1 4T9      0.017800
     15 N2          3.7050    1.5610    9.6660 na        1 4T9     -0.187400
     16 C11         2.8910    2.5360   10.2870 cc        1 4T9      0.029700
     17 C15         1.9400    3.0030    9.3710 cd        1 4T9     -0.153200
     18 C9          2.1530    2.2950    8.1370 ca        1 4T9     -0.247100
     19 C8          1.5650    2.2890    6.8620 ca        1 4T9      0.479200
     20 N1          1.9750    1.5060    5.8670 nb        1 4T9     -0.719000
     21 C12         3.0780    2.9340   11.6450 cc        1 4T9     -0.211100
     22 C14         2.3260    3.8830   12.3680 cd        1 4T9     -0.120300
     23 N4          2.8830    3.9270   13.6450 na        1 4T9     -0.017600
     24 N3          3.9140    3.0910   13.7830 nd        1 4T9     -0.506800
     25 C13         4.0730    2.4630   12.5920 cc        1 4T9      0.301200
     26 H31C       -0.2110    0.7270   -0.1100 h1        1 4T9      0.042367
     27 H32C       -0.1060   -1.1030   -0.1920 h1        1 4T9      0.042367
     28 H33C        0.2970   -0.0940   -1.6750 h1        1 4T9      0.042367
     29 H4          0.0680   -0.2780    1.9270 ha        1 4T9      0.140000
     30 H5          0.8500   -0.3240    4.2570 ha        1 4T9      0.154000
     31 H17         4.9650    0.0480    2.8900 ha        1 4T9      0.135000
     32 H           4.4140   -0.4660    5.1220 hn        1 4T9      0.409800
     33 HC1         5.8290    1.1860    1.1050 h1        1 4T9      0.042367
     34 HC2         6.0700   -0.6330    1.0500 h1        1 4T9      0.042367
     35 HC3         6.0980    0.3430   -0.5070 h1        1 4T9      0.042367
     36 H16         4.5570   -0.1300    7.4820 ha        1 4T9      0.142000
     37 H2          4.4210    1.0530   10.1110 hn        1 4T9      0.301700
     38 H15         1.1830    3.7580    9.5550 ha        1 4T9      0.155000
     39 H8          0.7170    2.9570    6.6250 h4        1 4T9      0.024100
     40 H14         1.4760    4.4960   12.0710 h4        1 4T9      0.184000
     41 H13         4.8540    1.7210   12.4290 h4        1 4T9      0.041100
     42 HA          2.5910    4.4930   14.4060 hn        1 4T9      0.325700
@<TRIPOS>BOND
     1    1    2 1   
     2    1   26 1   
     3    1   27 1   
     4    1   28 1   
     5    2    3 1   
     6    3    4 ar  
     7    3    8 ar  
     8    4    5 ar  
     9    4   29 1   
    10    5    6 ar  
    11    5   30 1   
    12    6    7 ar  
    13    6   11 1   
    14    7    8 ar  
    15    7   31 1   
    16    8    9 1   
    17    9   10 1   
    18   10   33 1   
    19   10   34 1   
    20   10   35 1   
    21   11   12 1   
    22   11   32 1   
    23   12   13 ar  
    24   12   20 ar  
    25   13   14 ar  
    26   13   36 1   
    27   14   15 1   
    28   14   18 ar  
    29   15   16 1   
    30   15   37 1   
    31   16   17 2   
    32   16   21 1   
    33   17   18 1   
    34   17   38 1   
    35   18   19 ar  
    36   19   20 ar  
    37   19   39 1   
    38   21   22 2   
    39   21   25 1   
    40   22   23 1   
    41   22   40 1   
    42   23   24 1   
    43   23   42 1   
    44   24   25 2   
    45   25   41 1   
@<TRIPOS>SUBSTRUCTURE
     1 4T9         1 TEMP              0 ****  ****    0 ROOT
