@<TRIPOS>MOLECULE
4TB
   20    20     1     0     0
SMALL
bcc


@<TRIPOS>ATOM
      1 S1          0.0560    0.3300    0.0170 ss        1 4TB     -0.034800
      2 C2          1.7150    0.0150    0.0130 cc        1 4TB     -0.049400
      3 C3          2.1820   -0.1530    1.3000 cd        1 4TB     -0.177000
      4 C4          1.1420   -0.0100    2.2720 cd        1 4TB     -0.153000
      5 C5         -0.0720    0.2610    1.6840 cc        1 4TB     -0.190100
      6 C6          2.5060   -0.0530   -1.2270 c3        1 4TB     -0.020100
      7 C7          3.0740   -1.4380   -1.4910 c3        1 4TB     -0.058400
      8 C8          3.9740   -1.4350   -2.7030 c3        1 4TB     -0.198400
      9 C9          4.3810   -2.8670   -3.0970 c         1 4TB      0.909600
     10 O1          5.6080   -3.0940   -3.3000 o         1 4TB     -0.849800
     11 O2          3.4720   -3.7380   -3.2170 o         1 4TB     -0.849800
     12 H3          3.2190   -0.3810    1.5570 ha        1 4TB      0.156000
     13 H4          1.3140   -0.1110    3.3450 ha        1 4TB      0.138000
     14 H5         -1.0130    0.4090    2.2070 h4        1 4TB      0.155000
     15 H61         3.3540    0.6830   -1.1570 hc        1 4TB      0.041200
     16 H62         1.8730    0.2570   -2.1020 hc        1 4TB      0.041200
     17 H71         2.2430   -2.1730   -1.6580 hc        1 4TB      0.050200
     18 H72         3.6490   -1.7810   -0.5920 hc        1 4TB      0.050200
     19 H81         3.4410   -0.9790   -3.5750 hc        1 4TB      0.019200
     20 H82         4.8930   -0.8290   -2.5050 hc        1 4TB      0.019200
@<TRIPOS>BOND
     1    1    2 1   
     2    1    5 1   
     3    2    3 2   
     4    2    6 1   
     5    3    4 1   
     6    3   12 1   
     7    4    5 2   
     8    4   13 1   
     9    5   14 1   
    10    6    7 1   
    11    6   15 1   
    12    6   16 1   
    13    7    8 1   
    14    7   17 1   
    15    7   18 1   
    16    8    9 1   
    17    8   19 1   
    18    8   20 1   
    19    9   10 1   
    20    9   11 1   
@<TRIPOS>SUBSTRUCTURE
     1 4TB         1 TEMP              0 ****  ****    0 ROOT
