@<TRIPOS>MOLECULE
4TB
   20    16     1     0     0
SMALL
bcc


@<TRIPOS>ATOM
      1 S1         -0.7010    1.0680    2.0410 ss        1 4TB      0.608000
      2 C2          0.0310   -0.0980    1.3240 c1        1 4TB     -0.414500
      3 C3         -0.2480   -1.3180    2.0570 c1        1 4TB     -0.179000
      4 C4         -1.1890   -0.9570    3.2900 c1        1 4TB     -0.179000
      5 C5         -1.4480    0.4700    3.2640 c1        1 4TB     -0.414500
      6 C6          0.9380    0.0290    0.1200 c2        1 4TB     -0.106000
      7 C7          0.1070    0.3330   -1.1070 c3        1 4TB     -0.152000
      8 C8          0.9780    0.2430   -2.3410 c3        1 4TB     -0.224000
      9 C9          0.1520    0.5680   -3.5660 c2        1 4TB      0.328000
     10 O1         -0.4940   -0.3410   -4.1500 o         1 4TB     -0.585000
     11 O2          0.1090    1.7490   -4.0000 o         1 4TB     -0.585000
     12 H3          0.0830   -2.2080    1.8320 DU        1 4TB      0.143333
     13 H4         -1.5320   -1.5880    3.9510 DU        1 4TB      0.143333
     14 H5         -1.9560    0.9730    3.9280 DU        1 4TB      0.143333
     15 H61         1.5780    0.7540    0.2680 ha        1 4TB      0.085500
     16 H62         1.4220   -0.8110   -0.0140 ha        1 4TB      0.085500
     17 H71        -0.2630    1.2350   -1.0350 hc        1 4TB      0.089500
     18 H72        -0.6220   -0.3150   -1.1750 hc        1 4TB      0.089500
     19 H81         1.3370   -0.6640   -2.4210 hc        1 4TB      0.060500
     20 H82         1.7160    0.8800   -2.2660 hc        1 4TB      0.060500
@<TRIPOS>BOND
     1    1    2 1   
     2    1    5 1   
     3    2    3 1   
     4    3    4 1   
     5    4    5 1   
     6    6    7 1   
     7    6   15 1   
     8    6   16 1   
     9    7    8 1   
    10    7   17 1   
    11    7   18 1   
    12    8    9 1   
    13    8   19 1   
    14    8   20 1   
    15    9   10 1   
    16    9   11 1   
@<TRIPOS>SUBSTRUCTURE
     1 4TB         1 TEMP              0 ****  ****    0 ROOT
