@<TRIPOS>MOLECULE
4TB
   20    20     1     0     0
SMALL
bcc


@<TRIPOS>ATOM
      1 S1          0.0290    0.2030    0.1110 ss        1 4TB     -0.034800
      2 C2          1.7030   -0.0050    0.0220 cc        1 4TB     -0.049400
      3 C3          2.2520   -0.0780    1.2860 cd        1 4TB     -0.177000
      4 C4          1.2610    0.0460    2.3100 cd        1 4TB     -0.153000
      5 C5          0.0000    0.2080    1.7830 cc        1 4TB     -0.190100
      6 C6          2.4260   -0.0830   -1.2580 c3        1 4TB     -0.020100
      7 C7          3.0660   -1.4410   -1.4940 c3        1 4TB     -0.058400
      8 C8          3.8940   -1.4410   -2.7560 c3        1 4TB     -0.198400
      9 C9          4.3680   -2.8630   -3.1100 c         1 4TB      0.909600
     10 O1          5.5940   -3.0240   -3.3750 o         1 4TB     -0.849800
     11 O2          3.5110   -3.7930   -3.1380 o         1 4TB     -0.849800
     12 H3          3.3150   -0.2260    1.4900 ha        1 4TB      0.156000
     13 H4          1.5000    0.0090    3.3740 ha        1 4TB      0.138000
     14 H5         -0.9170    0.3210    2.3540 h4        1 4TB      0.155000
     15 H61         3.2280    0.7070   -1.2720 hc        1 4TB      0.041200
     16 H62         1.7260    0.1450   -2.1070 hc        1 4TB      0.041200
     17 H71         2.2760   -2.2340   -1.5790 hc        1 4TB      0.050200
     18 H72         3.7110   -1.7050   -0.6170 hc        1 4TB      0.050200
     19 H81         3.2850   -1.0600   -3.6140 hc        1 4TB      0.019200
     20 H82         4.7830   -0.7720   -2.6390 hc        1 4TB      0.019200
@<TRIPOS>BOND
     1    1    2 1   
     2    1    5 1   
     3    2    3 2   
     4    2    6 1   
     5    3    4 1   
     6    3   12 1   
     7    4    5 2   
     8    4   13 1   
     9    5   14 1   
    10    6    7 1   
    11    6   15 1   
    12    6   16 1   
    13    7    8 1   
    14    7   17 1   
    15    7   18 1   
    16    8    9 1   
    17    8   19 1   
    18    8   20 1   
    19    9   10 1   
    20    9   11 1   
@<TRIPOS>SUBSTRUCTURE
     1 4TB         1 TEMP              0 ****  ****    0 ROOT
