@<TRIPOS>MOLECULE
4TB
   20    20     1     0     0
SMALL
bcc


@<TRIPOS>ATOM
      1 S1         -0.4020    1.0570   -1.7140 ss        1 4TB      0.068200
      2 C2          0.5660   -0.2780   -1.3910 cc        1 4TB     -0.077400
      3 C3          1.2260   -0.6960   -2.5330 cd        1 4TB     -0.197000
      4 C4          0.9020    0.1160   -3.6620 cd        1 4TB     -0.161000
      5 C5          0.0110    1.1140   -3.3260 cc        1 4TB     -0.219100
      6 C6          0.6610   -0.9060   -0.0620 c3        1 4TB     -0.020100
      7 C7          0.1390   -0.0180    1.0520 c3        1 4TB     -0.073400
      8 C8          0.1160   -0.7390    2.3770 c3        1 4TB     -0.195400
      9 C9         -0.6030    0.0950    3.4550 c         1 4TB      0.908600
     10 O1         -0.1200    0.0800    4.6230 o         1 4TB     -0.850300
     11 O2         -1.6440    0.7350    3.1290 o         1 4TB     -0.850300
     12 H3          1.9150   -1.5400   -2.5790 ha        1 4TB      0.142000
     13 H4          1.3180   -0.0490   -4.6560 ha        1 4TB      0.133000
     14 H5         -0.3860    1.8590   -4.0110 h4        1 4TB      0.155000
     15 H61         1.7320   -1.1780    0.1460 hc        1 4TB      0.046200
     16 H62         0.0780   -1.8690   -0.0740 hc        1 4TB      0.046200
     17 H71        -0.9050    0.3300    0.8160 hc        1 4TB      0.050200
     18 H72         0.7820    0.8960    1.1370 hc        1 4TB      0.050200
     19 H81         1.1570   -0.9650    2.7160 hc        1 4TB      0.021200
     20 H82        -0.4330   -1.7100    2.2780 hc        1 4TB      0.021200
@<TRIPOS>BOND
     1    1    2 1   
     2    1    5 1   
     3    2    3 2   
     4    2    6 1   
     5    3    4 1   
     6    3   12 1   
     7    4    5 2   
     8    4   13 1   
     9    5   14 1   
    10    6    7 1   
    11    6   15 1   
    12    6   16 1   
    13    7    8 1   
    14    7   17 1   
    15    7   18 1   
    16    8    9 1   
    17    8   19 1   
    18    8   20 1   
    19    9   10 1   
    20    9   11 1   
@<TRIPOS>SUBSTRUCTURE
     1 4TB         1 TEMP              0 ****  ****    0 ROOT
