@<TRIPOS>MOLECULE
4TD
   61    60     1     0     0
SMALL
bcc


@<TRIPOS>ATOM
      1 C1          0.0400   -0.0350   -0.0370 c3        1 4TD     -0.049000
      2 C2          1.5720   -0.0540    0.0150 c3        1 4TD      0.141650
      3 C4          3.4590    0.0670   -1.4090 c3        1 4TD      0.104900
      4 C5          3.8320   -0.0560   -2.8900 c3        1 4TD      0.142100
      5 C6          3.2650    1.0980   -3.6960 c3        1 4TD     -0.128100
      6 C8         -0.4760   -0.0230    1.4060 c3        1 4TD      0.141650
      7 C10        -2.4920   -0.0100    2.6470 c3        1 4TD      0.104900
      8 C11        -4.0030    0.1490    2.4420 c3        1 4TD      0.142100
      9 C12        -4.5880   -1.0490    1.7190 c3        1 4TD     -0.128100
     10 C14        -0.4490    1.2070   -0.7900 c3        1 4TD      0.141650
     11 C16        -0.3730    3.5680   -0.7150 c3        1 4TD      0.104900
     12 C17         0.2570    4.7030    0.1010 c3        1 4TD      0.142100
     13 C18        -0.7840    5.7140    0.5430 c3        1 4TD     -0.128100
     14 C20        -0.4850   -1.2690   -0.7790 c3        1 4TD      0.141650
     15 C22        -0.4160   -3.6340   -0.7100 c3        1 4TD      0.104900
     16 C23         0.0580   -4.7750    0.1970 c3        1 4TD      0.142100
     17 C24         1.5720   -4.8310    0.2640 c3        1 4TD     -0.128100
     18 O25        -0.5090   -4.6530    1.4900 oh        1 4TD     -0.599800
     19 O21        -0.0260   -2.4200   -0.0700 os        1 4TD     -0.436600
     20 O15         0.0260    2.3530   -0.0840 os        1 4TD     -0.436600
     21 O19         1.2230    5.3060   -0.7560 oh        1 4TD     -0.599800
     22 O9         -1.9030    0.0090    1.3480 os        1 4TD     -0.436600
     23 O13        -4.2880    1.3530    1.7530 oh        1 4TD     -0.599800
     24 O3          2.0430   -0.0810   -1.3330 os        1 4TD     -0.436600
     25 O7          3.4060   -1.3030   -3.4110 oh        1 4TD     -0.599800
     26 H1          1.9480    0.8680    0.5320 h1        1 4TD      0.044700
     27 H2          1.9290   -0.9760    0.5470 h1        1 4TD      0.044700
     28 H3          3.7600    1.0690   -1.0080 h1        1 4TD      0.041075
     29 H4          3.9540   -0.7460   -0.8150 h1        1 4TD      0.041075
     30 H5          4.9550   -0.0880   -2.9800 h1        1 4TD      0.069200
     31 H6          3.4650    0.9370   -4.7820 hc        1 4TD      0.046533
     32 H7          3.7360    2.0570   -3.3740 hc        1 4TD      0.046533
     33 H8          2.1620    1.1690   -3.5380 hc        1 4TD      0.046533
     34 H9         -0.1020    0.8900    1.9420 h1        1 4TD      0.044700
     35 H10        -0.1440   -0.9530    1.9400 h1        1 4TD      0.044700
     36 H11        -2.0910    0.8410    3.2570 h1        1 4TD      0.041075
     37 H12        -2.2620   -0.9840    3.1530 h1        1 4TD      0.041075
     38 H13        -4.4920    0.2830    3.4490 h1        1 4TD      0.069200
     39 H14        -4.0480   -1.2170    0.7560 hc        1 4TD      0.046533
     40 H15        -4.4890   -1.9640    2.3500 hc        1 4TD      0.046533
     41 H16        -5.6680   -0.8710    1.5000 hc        1 4TD      0.046533
     42 H17        -0.0350    1.2100   -1.8340 h1        1 4TD      0.044700
     43 H18        -1.5720    1.2220   -0.8160 h1        1 4TD      0.044700
     44 H19         0.0000    3.5920   -1.7740 h1        1 4TD      0.041075
     45 H20        -1.4920    3.6420   -0.7070 h1        1 4TD      0.041075
     46 H21         0.7820    4.2720    1.0020 h1        1 4TD      0.069200
     47 H22        -0.3000    6.5330    1.1290 hc        1 4TD      0.046533
     48 H23        -1.2900    6.1660   -0.3440 hc        1 4TD      0.046533
     49 H24        -1.5500    5.2180    1.1850 hc        1 4TD      0.046533
     50 H25        -0.0820   -1.2870   -1.8270 h1        1 4TD      0.044700
     51 H26        -1.6070   -1.2620   -0.7920 h1        1 4TD      0.044700
     52 H27         0.0670   -3.7050   -1.7180 h1        1 4TD      0.041075
     53 H28        -1.5320   -3.6610   -0.8180 h1        1 4TD      0.041075
     54 H29        -0.3580   -5.7460   -0.1970 h1        1 4TD      0.069200
     55 H30         1.9780   -3.8410    0.5830 hc        1 4TD      0.046533
     56 H31         1.8910   -5.6060    1.0000 hc        1 4TD      0.046533
     57 H32         1.9910   -5.0840   -0.7390 hc        1 4TD      0.046533
     58 H33        -0.2420   -3.7910    1.8340 ho        1 4TD      0.407750
     59 H34         1.6060    6.0430   -0.2680 ho        1 4TD      0.407750
     60 H35        -3.8140    1.3160    0.9120 ho        1 4TD      0.407750
     61 H36         2.4500   -1.3520   -3.2790 ho        1 4TD      0.407750
@<TRIPOS>BOND
     1    1    2 1   
     2    1    6 1   
     3    1   10 1   
     4    1   14 1   
     5    2   24 1   
     6    2   26 1   
     7    2   27 1   
     8    3    4 1   
     9    3   24 1   
    10    3   28 1   
    11    3   29 1   
    12    4    5 1   
    13    4   25 1   
    14    4   30 1   
    15    5   31 1   
    16    5   32 1   
    17    5   33 1   
    18    6   22 1   
    19    6   34 1   
    20    6   35 1   
    21    7    8 1   
    22    7   22 1   
    23    7   36 1   
    24    7   37 1   
    25    8    9 1   
    26    8   23 1   
    27    8   38 1   
    28    9   39 1   
    29    9   40 1   
    30    9   41 1   
    31   10   20 1   
    32   10   42 1   
    33   10   43 1   
    34   11   12 1   
    35   11   20 1   
    36   11   44 1   
    37   11   45 1   
    38   12   13 1   
    39   12   21 1   
    40   12   46 1   
    41   13   47 1   
    42   13   48 1   
    43   13   49 1   
    44   14   19 1   
    45   14   50 1   
    46   14   51 1   
    47   15   16 1   
    48   15   19 1   
    49   15   52 1   
    50   15   53 1   
    51   16   17 1   
    52   16   18 1   
    53   16   54 1   
    54   17   55 1   
    55   17   56 1   
    56   17   57 1   
    57   18   58 1   
    58   21   59 1   
    59   23   60 1   
    60   25   61 1   
@<TRIPOS>SUBSTRUCTURE
     1 4TD         1 TEMP              0 ****  ****    0 ROOT
