@<TRIPOS>MOLECULE
4TD
   61    60     1     0     0
SMALL
bcc


@<TRIPOS>ATOM
      1 C1          0.0410   -0.0340   -0.0380 c3        1 4TD     -0.049000
      2 C2          1.5720   -0.0550    0.0180 c3        1 4TD      0.141650
      3 C4          3.4640    0.0650   -1.4000 c3        1 4TD      0.104900
      4 C5          3.8410   -0.0570   -2.8810 c3        1 4TD      0.142100
      5 C6          3.2790    1.0990   -3.6860 c3        1 4TD     -0.128100
      6 C8         -0.4800   -0.0240    1.4040 c3        1 4TD      0.141650
      7 C10        -2.4990   -0.0120    2.6390 c3        1 4TD      0.104900
      8 C11        -4.0090    0.1490    2.4300 c3        1 4TD      0.142100
      9 C12        -4.5930   -1.0470    1.7040 c3        1 4TD     -0.128100
     10 C14        -0.4460    1.2080   -0.7910 c3        1 4TD      0.141650
     11 C16        -0.3710    3.5700   -0.7120 c3        1 4TD      0.104900
     12 C17         0.2570    4.7030    0.1080 c3        1 4TD      0.142100
     13 C18        -0.7870    5.7080    0.5570 c3        1 4TD     -0.128100
     14 C20        -0.4830   -1.2670   -0.7830 c3        1 4TD      0.141650
     15 C22        -0.4160   -3.6330   -0.7160 c3        1 4TD      0.104900
     16 C23         0.0540   -4.7750    0.1910 c3        1 4TD      0.142100
     17 C24         1.5680   -4.8320    0.2610 c3        1 4TD     -0.128100
     18 O25        -0.5150   -4.6540    1.4830 oh        1 4TD     -0.599800
     19 O21        -0.0260   -2.4200   -0.0740 os        1 4TD     -0.436600
     20 O15         0.0280    2.3530   -0.0820 os        1 4TD     -0.436600
     21 O19         1.2170    5.3130   -0.7500 oh        1 4TD     -0.599800
     22 O9         -1.9060    0.0090    1.3420 os        1 4TD     -0.436600
     23 O13        -4.2910    1.3550    1.7430 oh        1 4TD     -0.599800
     24 O3          2.0470   -0.0800   -1.3290 os        1 4TD     -0.436600
     25 O7          3.4130   -1.3020   -3.4040 oh        1 4TD     -0.599800
     26 H1          1.9470    0.8670    0.5370 h1        1 4TD      0.044700
     27 H2          1.9270   -0.9770    0.5500 h1        1 4TD      0.044700
     28 H3          3.7660    1.0660   -0.9970 h1        1 4TD      0.040950
     29 H4          3.9550   -0.7500   -0.8050 h1        1 4TD      0.040950
     30 H5          4.9640   -0.0920   -2.9660 h1        1 4TD      0.069200
     31 H6          3.4820    0.9400   -4.7710 hc        1 4TD      0.046533
     32 H7          3.7510    2.0570   -3.3620 hc        1 4TD      0.046533
     33 H8          2.1750    1.1730   -3.5320 hc        1 4TD      0.046533
     34 H9         -0.1070    0.8880    1.9410 h1        1 4TD      0.044700
     35 H10        -0.1490   -0.9550    1.9380 h1        1 4TD      0.044700
     36 H11        -2.0990    0.8380    3.2520 h1        1 4TD      0.040950
     37 H12        -2.2710   -0.9870    3.1440 h1        1 4TD      0.040950
     38 H13        -4.5010    0.2820    3.4360 h1        1 4TD      0.069200
     39 H14        -4.0510   -1.2140    0.7420 hc        1 4TD      0.046533
     40 H15        -4.4970   -1.9630    2.3330 hc        1 4TD      0.046533
     41 H16        -5.6720   -0.8670    1.4820 hc        1 4TD      0.046533
     42 H17        -0.0290    1.2130   -1.8340 h1        1 4TD      0.044700
     43 H18        -1.5690    1.2240   -0.8200 h1        1 4TD      0.044700
     44 H19         0.0040    3.5950   -1.7690 h1        1 4TD      0.040950
     45 H20        -1.4910    3.6430   -0.7060 h1        1 4TD      0.040950
     46 H21         0.7860    4.2700    1.0050 h1        1 4TD      0.069200
     47 H22        -0.3050    6.5260    1.1460 hc        1 4TD      0.046533
     48 H23        -1.2970    6.1620   -0.3260 hc        1 4TD      0.046533
     49 H24        -1.5490    5.2060    1.1990 hc        1 4TD      0.046533
     50 H25        -0.0770   -1.2840   -1.8300 h1        1 4TD      0.044700
     51 H26        -1.6050   -1.2600   -0.8000 h1        1 4TD      0.044700
     52 H27         0.0700   -3.7030   -1.7240 h1        1 4TD      0.040950
     53 H28        -1.5320   -3.6590   -0.8270 h1        1 4TD      0.040950
     54 H29        -0.3610   -5.7450   -0.2040 h1        1 4TD      0.069200
     55 H30         1.9750   -3.8430    0.5830 hc        1 4TD      0.046533
     56 H31         1.8850   -5.6090    0.9980 hc        1 4TD      0.046533
     57 H32         1.9900   -5.0850   -0.7400 hc        1 4TD      0.046533
     58 H33        -0.2480   -3.7920    1.8280 ho        1 4TD      0.407750
     59 H34         1.5980    6.0510   -0.2600 ho        1 4TD      0.407750
     60 H35        -3.8150    1.3190    0.9030 ho        1 4TD      0.407750
     61 H36         2.4570   -1.3490   -3.2750 ho        1 4TD      0.407750
@<TRIPOS>BOND
     1    1    2 1   
     2    1    6 1   
     3    1   10 1   
     4    1   14 1   
     5    2   24 1   
     6    2   26 1   
     7    2   27 1   
     8    3    4 1   
     9    3   24 1   
    10    3   28 1   
    11    3   29 1   
    12    4    5 1   
    13    4   25 1   
    14    4   30 1   
    15    5   31 1   
    16    5   32 1   
    17    5   33 1   
    18    6   22 1   
    19    6   34 1   
    20    6   35 1   
    21    7    8 1   
    22    7   22 1   
    23    7   36 1   
    24    7   37 1   
    25    8    9 1   
    26    8   23 1   
    27    8   38 1   
    28    9   39 1   
    29    9   40 1   
    30    9   41 1   
    31   10   20 1   
    32   10   42 1   
    33   10   43 1   
    34   11   12 1   
    35   11   20 1   
    36   11   44 1   
    37   11   45 1   
    38   12   13 1   
    39   12   21 1   
    40   12   46 1   
    41   13   47 1   
    42   13   48 1   
    43   13   49 1   
    44   14   19 1   
    45   14   50 1   
    46   14   51 1   
    47   15   16 1   
    48   15   19 1   
    49   15   52 1   
    50   15   53 1   
    51   16   17 1   
    52   16   18 1   
    53   16   54 1   
    54   17   55 1   
    55   17   56 1   
    56   17   57 1   
    57   18   58 1   
    58   21   59 1   
    59   23   60 1   
    60   25   61 1   
@<TRIPOS>SUBSTRUCTURE
     1 4TD         1 TEMP              0 ****  ****    0 ROOT
