@<TRIPOS>MOLECULE
4TH
   74    78     1     0     0
SMALL
bcc


@<TRIPOS>ATOM
      1 C2          0.3440   -0.1570   -0.1960 ca        1 4TH      0.020400
      2 C3          1.6750   -0.5360    0.0010 ca        1 4TH     -0.125000
      3 C11         0.1720    0.9950    5.6910 c3        1 4TH     -0.105100
      4 C12         1.3220    1.7770    5.1780 ca        1 4TH     -0.055300
      5 C13         2.2030    1.2130    4.2530 ca        1 4TH     -0.101300
      6 C14         3.2820    1.9570    3.7650 ca        1 4TH     -0.133000
      7 C15         3.4780    3.2700    4.1940 ca        1 4TH      0.096100
      8 C16         2.5720    3.8510    5.1200 ca        1 4TH      0.119100
      9 C17         1.5090    3.0940    5.6170 ca        1 4TH     -0.184000
     10 C22         4.8080    4.1010    2.3970 c3        1 4TH      0.137100
     11 C23         4.9240    5.5840    2.0590 c3        1 4TH     -0.086400
     12 C25         1.4850   -2.4450    4.6280 ca        1 4TH      0.030600
     13 C26         2.7780   -2.9910    4.7360 ca        1 4TH     -0.109500
     14 C27         2.9830   -4.3610    4.6230 ca        1 4TH     -0.152500
     15 C28         1.9040   -5.2470    4.4260 ca        1 4TH      0.121600
     16 C29         0.6050   -4.6960    4.3490 ca        1 4TH     -0.152500
     17 C30         0.4000   -3.3270    4.4440 ca        1 4TH     -0.109500
     18 CL1        -0.3040   -0.1340   -1.7670 cl        1 4TH     -0.091400
     19 C4          2.2010   -0.5540    1.2910 ca        1 4TH     -0.105500
     20 C5          1.4080   -0.1920    2.3860 ca        1 4TH     -0.101300
     21 C6          0.0780    0.1830    2.1770 ca        1 4TH     -0.105500
     22 C7         -0.4590    0.2030    0.8910 ca        1 4TH     -0.125000
     23 C8          2.0180   -0.2070    3.7760 c3        1 4TH      0.216300
     24 N9          1.2840   -1.0380    4.7200 n         1 4TH     -0.382000
     25 C10         0.3150   -0.5100    5.5670 c         1 4TH      0.706500
     26 O21         4.5800    4.0130    3.8240 os        1 4TH     -0.320900
     27 O24        -0.4280   -1.2480    6.2430 o         1 4TH     -0.628500
     28 C31         6.0980    3.3650    2.0900 c3        1 4TH     -0.112100
     29 N32         2.0670   -6.6590    4.3850 nh        1 4TH     -0.632000
     30 C33         3.3230   -7.1700    4.8760 c3        1 4TH      0.167100
     31 C34         1.5710   -7.3180    3.1900 c3        1 4TH      0.227100
     32 N35         3.8930   -6.9110   -0.4390 nb        1 4TH     -0.662000
     33 C36         2.0090   -6.2550    0.9430 ca        1 4TH     -0.234300
     34 C37         2.7910   -6.1670   -0.2230 ca        1 4TH      0.390700
     35 C38         4.2450   -7.7830    0.5260 ca        1 4TH      0.390700
     36 C39         3.5280   -7.9460    1.7240 ca        1 4TH     -0.234300
     37 C40         2.3860   -7.1640    1.9360 ca        1 4TH     -0.084300
     38 H1          2.3050   -0.8210   -0.8550 ha        1 4TH      0.149000
     39 H2          3.1810    6.1430    3.2070 hc        1 4TH      0.040033
     40 H3          2.8660    5.8900    1.4380 hc        1 4TH      0.040033
     41 H4          3.7260    7.3840    1.9960 hc        1 4TH      0.040033
     42 H5         -0.7630    1.2900    5.1390 hc        1 4TH      0.087700
     43 H6          0.0020    1.2180    6.7800 hc        1 4TH      0.087700
     44 H7          3.9840    1.5130    3.0430 ha        1 4TH      0.146000
     45 H8          0.8080    3.5240    6.3470 ha        1 4TH      0.144000
     46 H9          0.9930    5.7580    6.2940 h1        1 4TH      0.046367
     47 H10         2.2160    5.0440    7.4620 h1        1 4TH      0.046367
     48 H11         2.5190    6.6960    6.7110 h1        1 4TH      0.046367
     49 H12         3.9500    3.6410    1.8340 h1        1 4TH      0.053700
     50 H13         5.6680    6.0550    2.7550 hc        1 4TH      0.051700
     51 H14         5.3210    5.6760    1.0150 hc        1 4TH      0.051700
     52 H15         3.6490   -2.3400    4.9140 ha        1 4TH      0.143500
     53 H16         4.0130   -4.7420    4.6980 ha        1 4TH      0.137500
     54 H17        -0.2710   -5.3530    4.2270 ha        1 4TH      0.137500
     55 H18        -0.6290   -2.9320    4.4090 ha        1 4TH      0.143500
     56 H19         3.2470   -0.8610    1.4420 ha        1 4TH      0.137500
     57 H20        -0.5520    0.4680    3.0330 ha        1 4TH      0.137500
     58 H21        -1.5070    0.4990    0.7360 ha        1 4TH      0.149000
     59 H22         3.0550   -0.6650    3.6840 h1        1 4TH      0.073700
     60 H23         6.3320    3.4530    1.0020 hc        1 4TH      0.044700
     61 H24         6.9400    3.7990    2.6800 hc        1 4TH      0.044700
     62 H25         6.0030    2.2850    2.3560 hc        1 4TH      0.044700
     63 H26         4.1860   -6.9770    4.1820 h1        1 4TH      0.039033
     64 H27         3.2210   -8.2800    5.0120 h1        1 4TH      0.039033
     65 H28         3.5440   -6.7030    5.8720 h1        1 4TH      0.039033
     66 H29         0.5270   -6.9390    2.9930 h1        1 4TH      0.064700
     67 H30         1.4990   -8.4190    3.4320 h1        1 4TH      0.064700
     68 H31         1.1220   -5.6180    1.0640 ha        1 4TH      0.145000
     69 H32         2.5220   -5.4610   -1.0300 h4        1 4TH      0.022600
     70 H33         5.1500   -8.3830    0.3240 h4        1 4TH      0.022600
     71 H34         3.8580   -8.6750    2.4770 ha        1 4TH      0.145000
     72 O18         2.8180    5.1660    5.4520 os        1 4TH     -0.304900
     73 C41         3.5990    6.2900    2.1790 c3        1 4TH     -0.099100
     74 C19         2.0760    5.6790    6.5550 c3        1 4TH      0.108700
@<TRIPOS>BOND
     1    1    2 ar  
     2    1   18 1   
     3    1   22 ar  
     4    2   19 ar  
     5    2   38 1   
     6    3    4 1   
     7    3   25 1   
     8    3   42 1   
     9    3   43 1   
    10    4    5 ar  
    11    4    9 ar  
    12    5    6 ar  
    13    5   23 1   
    14    6    7 ar  
    15    6   44 1   
    16    7    8 ar  
    17    7   26 1   
    18    8    9 ar  
    19    8   72 1   
    20    9   45 1   
    21   10   11 1   
    22   10   26 1   
    23   10   28 1   
    24   10   49 1   
    25   11   50 1   
    26   11   51 1   
    27   11   73 1   
    28   12   13 ar  
    29   12   17 ar  
    30   12   24 1   
    31   13   14 ar  
    32   13   52 1   
    33   14   15 ar  
    34   14   53 1   
    35   15   16 ar  
    36   15   29 1   
    37   16   17 ar  
    38   16   54 1   
    39   17   55 1   
    40   19   20 ar  
    41   19   56 1   
    42   20   21 ar  
    43   20   23 1   
    44   21   22 ar  
    45   21   57 1   
    46   22   58 1   
    47   23   24 1   
    48   23   59 1   
    49   24   25 1   
    50   25   27 2   
    51   28   60 1   
    52   28   61 1   
    53   28   62 1   
    54   29   30 1   
    55   29   31 1   
    56   30   63 1   
    57   30   64 1   
    58   30   65 1   
    59   31   37 1   
    60   31   66 1   
    61   31   67 1   
    62   32   34 ar  
    63   32   35 ar  
    64   33   34 ar  
    65   33   37 ar  
    66   33   68 1   
    67   34   69 1   
    68   35   36 ar  
    69   35   70 1   
    70   36   37 ar  
    71   36   71 1   
    72   39   73 1   
    73   40   73 1   
    74   41   73 1   
    75   46   74 1   
    76   47   74 1   
    77   48   74 1   
    78   72   74 1   
@<TRIPOS>SUBSTRUCTURE
     1 4TH         1 TEMP              0 ****  ****    0 ROOT
