@<TRIPOS>MOLECULE
4TN
   58    56     1     0     0
SMALL
bcc


@<TRIPOS>ATOM
      1 CAA        -4.8080   -0.5820   -0.9550 c3        1 4TN     -0.221000
      2 CAP        -3.5000    0.2470   -0.8740 c3        1 4TN     -0.019000
      3 OAS        -2.4010   -0.6210   -0.8120 os        1 4TN     -0.206000
      4 CAW        -1.1800    0.0230   -0.5730 c2        1 4TN      0.074000
      5 CAN        -1.0000    1.4850   -0.9550 c1        1 4TN     -0.199000
      6 CAZ         0.3690    2.1610   -0.7740 c1        1 4TN     -0.042000
      7 CBB         0.9150    3.3510   -1.7010 c3        1 4TN     -0.009000
      8 CAB        -0.2720    4.1630   -2.1970 c3        1 4TN     -0.200500
      9 CAC         1.6440    2.7330   -2.9320 c3        1 4TN     -0.200500
     10 CAQ         1.8370    4.2470   -1.0130 c3        1 4TN     -0.146000
     11 CAR         3.0080    3.4690   -0.2890 c3        1 4TN     -0.147000
     12 CBC         2.5100    2.4280    0.6100 c3        1 4TN     -0.005000
     13 CAD         1.8290    3.1080    1.8320 c3        1 4TN     -0.202000
     14 CAE         3.7150    1.5980    1.1180 c3        1 4TN     -0.202000
     15 CBA         1.4610    1.4390   -0.0780 c2        1 4TN     -0.086000
     16 CAO         1.3060   -0.0580    0.2530 c2        1 4TN     -0.092000
     17 CAY        -0.0220   -0.7480    0.0250 c2        1 4TN     -0.008000
     18 CAX        -0.1670   -2.2860    0.3160 c2        1 4TN     -0.082000
     19 CAM        -0.7170   -2.7590    1.6580 c2        1 4TN     -0.087000
     20 CAV         0.3670   -3.2980   -0.6830 c1        1 4TN      0.056000
     21 OAH         0.8680   -2.8540   -1.9550 o         1 4TN     -0.274000
     22 CAL         0.3890   -4.7820   -0.3300 c2        1 4TN     -0.220000
     23 CAK        -0.2040   -5.2590    0.9830 c1        1 4TN     -0.071000
     24 CAU        -0.6940   -4.2430    2.0090 c1        1 4TN     -0.028000
     25 CAJ        -1.0740   -4.6950    3.3920 c2        1 4TN     -0.191000
     26 CAI        -2.1580   -5.4500    3.5720 c1        1 4TN     -0.130000
     27 CAT        -3.0080   -5.8530    2.3840 c1        1 4TN      0.346000
     28 OAG        -2.8320   -6.9700    1.8390 o         1 4TN     -0.569000
     29 OAF        -3.8210   -5.0330    1.8880 o         1 4TN     -0.569000
     30 HAI        -2.4050   -5.7450    4.4730 ha        1 4TN      0.097000
     31 HAJ        -0.5260   -4.4360    4.1580 ha        1 4TN      0.086000
     32 HAM        -1.0380   -2.0950    2.3240 ha        1 4TN      0.138000
     33 HAH         1.4610   -3.4630   -2.2770 ho        1 4TN      0.206000
     34 HAL         0.7830   -5.4350   -0.9620 ha        1 4TN      0.123000
     35 HAK        -0.1880   -6.2140    1.2070 ha        1 4TN      0.210000
     36 HAO         2.0640   -0.5630    0.5660 ha        1 4TN      0.150000
     37 HAN        -1.7570    1.9940   -1.3250 ha        1 4TN      0.128000
     38 HAP1       -3.4240    0.8150   -1.6700 h1        1 4TN      0.066500
     39 HAP2       -3.5190    0.8090   -0.0710 h1        1 4TN      0.066500
     40 HAA1       -5.5170   -0.0380   -1.3750 hc        1 4TN      0.089667
     41 HAA2       -4.6510   -1.3890   -1.4950 hc        1 4TN      0.089667
     42 HAA3       -5.0880   -0.8430   -0.0510 hc        1 4TN      0.089667
     43 HAB1       -0.8760    4.3530   -1.4460 hc        1 4TN      0.072500
     44 HAB2       -0.7550    3.6510   -2.8850 hc        1 4TN      0.072500
     45 HAB3        0.0530    5.0180   -2.5860 hc        1 4TN      0.072500
     46 HAC1        2.3060    2.0730   -2.6240 hc        1 4TN      0.072500
     47 HAC2        2.1020    3.4490   -3.4370 hc        1 4TN      0.072500
     48 HAC3        0.9840    2.2880   -3.5170 hc        1 4TN      0.072500
     49 HAQ1        2.2270    4.8680   -1.6710 hc        1 4TN      0.077000
     50 HAQ2        1.3340    4.7690   -0.3370 hc        1 4TN      0.077000
     51 HAR1        3.5640    3.0430   -0.9750 hc        1 4TN      0.076500
     52 HAR2        3.5250    4.1150    0.2430 hc        1 4TN      0.076500
     53 HAD1        1.7160    2.4340    2.5710 hc        1 4TN      0.074167
     54 HAD2        2.3970    3.8570    2.1520 hc        1 4TN      0.074167
     55 HAD3        0.9540    3.4520    1.5680 hc        1 4TN      0.074167
     56 HAE1        4.4060    2.2060    1.4750 hc        1 4TN      0.074167
     57 HAE2        4.0880    1.0790    0.3800 hc        1 4TN      0.074167
     58 HAE3        3.4200    0.9930    1.8240 hc        1 4TN      0.074167
@<TRIPOS>BOND
     1    1    2 1   
     2    1   40 1   
     3    1   41 1   
     4    1   42 1   
     5    2    3 1   
     6    2   38 1   
     7    2   39 1   
     8    3    4 1   
     9    4    5 1   
    10    4   17 1   
    11    5   37 1   
    12    6    7 1   
    13    6   15 1   
    14    7    8 1   
    15    7    9 1   
    16    7   10 1   
    17    8   43 1   
    18    8   44 1   
    19    8   45 1   
    20    9   46 1   
    21    9   47 1   
    22    9   48 1   
    23   10   11 1   
    24   10   49 1   
    25   10   50 1   
    26   11   12 1   
    27   11   51 1   
    28   11   52 1   
    29   12   13 1   
    30   12   14 1   
    31   12   15 1   
    32   13   53 1   
    33   13   54 1   
    34   13   55 1   
    35   14   56 1   
    36   14   57 1   
    37   14   58 1   
    38   15   16 1   
    39   16   17 1   
    40   16   36 1   
    41   17   18 1   
    42   18   19 1   
    43   18   20 1   
    44   19   24 1   
    45   19   32 1   
    46   20   22 1   
    47   21   33 1   
    48   22   23 1   
    49   22   34 1   
    50   23   35 1   
    51   24   25 1   
    52   25   26 1   
    53   25   31 1   
    54   26   30 1   
    55   27   28 1   
    56   27   29 1   
@<TRIPOS>SUBSTRUCTURE
     1 4TN         1 TEMP              0 ****  ****    0 ROOT
