@<TRIPOS>MOLECULE
4TN
   58    60     1     0     0
SMALL
bcc


@<TRIPOS>ATOM
      1 CAA         0.2450   -0.7580    0.4490 c3        1 4TN     -0.101100
      2 CAP         1.7460   -0.5820    0.4050 c3        1 4TN      0.130400
      3 OAS         2.1190   -0.0160    1.6670 os        1 4TN     -0.321900
      4 CAW         3.3620    0.5920    1.7000 ca        1 4TN      0.119100
      5 CAN         4.4210    0.1650    0.8960 ca        1 4TN     -0.202000
      6 CAZ         5.6870    0.7590    0.9890 ca        1 4TN     -0.047300
      7 CBB         6.7720    0.2600    0.0720 c3        1 4TN     -0.001700
      8 CAB         6.2550    0.1620   -1.3630 c3        1 4TN     -0.082600
      9 CAC         7.2160   -1.1280    0.5260 c3        1 4TN     -0.082600
     10 CAQ         7.9690    1.2120    0.0620 c3        1 4TN     -0.066400
     11 CAR         8.3500    1.6670    1.4480 c3        1 4TN     -0.068400
     12 CBC         7.2270    2.4460    2.1340 c3        1 4TN      0.002300
     13 CAD         7.1670    3.8660    1.5810 c3        1 4TN     -0.085100
     14 CAE         7.5640    2.5160    3.6240 c3        1 4TN     -0.085100
     15 CBA         5.8940    1.7770    1.9310 ca        1 4TN     -0.092300
     16 CAO         4.8160    2.2080    2.7180 ca        1 4TN     -0.089000
     17 CAY         3.5410    1.6450    2.6280 cp        1 4TN     -0.008000
     18 CAX         2.4620    2.1310    3.4840 cp        1 4TN     -0.083000
     19 CAM         1.6090    1.2260    4.1310 ca        1 4TN     -0.087000
     20 CAV         2.2490    3.5060    3.7060 ca        1 4TN      0.102100
     21 OAH         3.0930    4.4080    3.0810 oh        1 4TN     -0.519100
     22 CAL         1.2090    3.9470    4.5350 ca        1 4TN     -0.221000
     23 CAK         0.3780    3.0290    5.1650 ca        1 4TN     -0.070000
     24 CAU         0.5720    1.6510    4.9750 ca        1 4TN     -0.038800
     25 CAJ        -0.2790    0.6520    5.5970 ce        1 4TN     -0.179200
     26 CAI        -1.0360    0.7650    6.6930 cf        1 4TN     -0.148200
     27 CAT        -1.2160    1.9350    7.6300 c         1 4TN      0.894800
     28 OAG        -0.6810    1.8540    8.7720 o         1 4TN     -0.833800
     29 OAF        -1.9310    2.9120    7.2560 o         1 4TN     -0.833800
     30 HAI        -1.6190   -0.1140    7.0210 ha        1 4TN      0.097000
     31 HAJ        -0.2580   -0.3220    5.0690 ha        1 4TN      0.086000
     32 HAM         1.7620    0.1470    3.9630 ha        1 4TN      0.137000
     33 HAH         2.7520    5.2940    3.2670 ho        1 4TN      0.407000
     34 HAL         1.0540    5.0240    4.6920 ha        1 4TN      0.123000
     35 HAK        -0.4440    3.3770    5.8250 ha        1 4TN      0.210000
     36 HAO         4.9600    3.0400    3.4290 ha        1 4TN      0.151000
     37 HAN         4.2620   -0.6550    0.1810 ha        1 4TN      0.127000
     38 HAP1        2.2640   -1.5720    0.2880 h1        1 4TN      0.028700
     39 HAP2        2.0510    0.0970   -0.4340 h1        1 4TN      0.028700
     40 HAA1       -0.2590    0.2300    0.5700 hc        1 4TN      0.047367
     41 HAA2       -0.0450   -1.4030    1.3130 hc        1 4TN      0.047367
     42 HAA3       -0.0980   -1.2350   -0.4980 hc        1 4TN      0.047367
     43 HAB1        7.1100   -0.0080   -2.0620 hc        1 4TN      0.033200
     44 HAB2        5.7360    1.1060   -1.6530 hc        1 4TN      0.033200
     45 HAB3        5.5410   -0.6880   -1.4730 hc        1 4TN      0.033200
     46 HAC1        7.6470   -1.0840    1.5540 hc        1 4TN      0.033200
     47 HAC2        7.9890   -1.5300   -0.1720 hc        1 4TN      0.033200
     48 HAC3        6.3440   -1.8250    0.5370 hc        1 4TN      0.033200
     49 HAQ1        8.8420    0.6950   -0.4160 hc        1 4TN      0.037200
     50 HAQ2        7.7210    2.1050   -0.5700 hc        1 4TN      0.037200
     51 HAR1        8.6150    0.7750    2.0760 hc        1 4TN      0.037700
     52 HAR2        9.2620    2.3180    1.3900 hc        1 4TN      0.037700
     53 HAD1        6.9920    3.8520    0.4790 hc        1 4TN      0.035533
     54 HAD2        8.1270    4.3990    1.7860 hc        1 4TN      0.035533
     55 HAD3        6.3320    4.4290    2.0640 hc        1 4TN      0.035533
     56 HAE1        8.6260    2.8340    3.7570 hc        1 4TN      0.035533
     57 HAE2        6.9100    3.2550    4.1450 hc        1 4TN      0.035533
     58 HAE3        7.4230    1.5180    4.1010 hc        1 4TN      0.035533
@<TRIPOS>BOND
     1    1    2 1   
     2    1   40 1   
     3    1   41 1   
     4    1   42 1   
     5    2    3 1   
     6    2   38 1   
     7    2   39 1   
     8    3    4 1   
     9    4    5 ar  
    10    4   17 ar  
    11    5    6 ar  
    12    5   37 1   
    13    6    7 1   
    14    6   15 ar  
    15    7    8 1   
    16    7    9 1   
    17    7   10 1   
    18    8   43 1   
    19    8   44 1   
    20    8   45 1   
    21    9   46 1   
    22    9   47 1   
    23    9   48 1   
    24   10   11 1   
    25   10   49 1   
    26   10   50 1   
    27   11   12 1   
    28   11   51 1   
    29   11   52 1   
    30   12   13 1   
    31   12   14 1   
    32   12   15 1   
    33   13   53 1   
    34   13   54 1   
    35   13   55 1   
    36   14   56 1   
    37   14   57 1   
    38   14   58 1   
    39   15   16 ar  
    40   16   17 ar  
    41   16   36 1   
    42   17   18 1   
    43   18   19 ar  
    44   18   20 ar  
    45   19   24 ar  
    46   19   32 1   
    47   20   21 1   
    48   20   22 ar  
    49   21   33 1   
    50   22   23 ar  
    51   22   34 1   
    52   23   24 ar  
    53   23   35 1   
    54   24   25 1   
    55   25   26 2   
    56   25   31 1   
    57   26   27 1   
    58   26   30 1   
    59   27   28 1   
    60   27   29 1   
@<TRIPOS>SUBSTRUCTURE
     1 4TN         1 TEMP              0 ****  ****    0 ROOT
