@<TRIPOS>MOLECULE
4TN
   58    60     1     0     0
SMALL
bcc


@<TRIPOS>ATOM
      1 CAA        -1.5560    1.7780    0.9230 c3        1 4TN     -0.099100
      2 CAP        -0.2540    1.0250    1.0540 c3        1 4TN      0.129400
      3 OAS        -0.0660    0.3250   -0.1870 os        1 4TN     -0.344900
      4 CAW         0.9620   -0.6080   -0.1470 ca        1 4TN      0.114100
      5 CAN         2.1290   -0.2900   -0.8510 ca        1 4TN     -0.149000
      6 CAZ         3.1760   -1.2120   -0.9720 ca        1 4TN     -0.056300
      7 CBB         4.4030   -0.7920   -1.7360 c3        1 4TN     -0.002700
      8 CAB         4.8670    0.5910   -1.2810 c3        1 4TN     -0.084600
      9 CAC         4.0710   -0.7300   -3.2240 c3        1 4TN     -0.084600
     10 CAQ         5.5610   -1.7640   -1.5020 c3        1 4TN     -0.067400
     11 CAR         5.1220   -3.2040   -1.5730 c3        1 4TN     -0.068400
     12 CBC         4.0890   -3.5520   -0.5000 c3        1 4TN     -0.001700
     13 CAD         4.7790   -3.7210    0.8500 c3        1 4TN     -0.085100
     14 CAE         3.4530   -4.8850   -0.8940 c3        1 4TN     -0.085100
     15 CBA         3.0350   -2.4820   -0.3890 ca        1 4TN     -0.075300
     16 CAO         1.8710   -2.7780    0.3330 ca        1 4TN     -0.101000
     17 CAY         0.8210   -1.8640    0.4690 cp        1 4TN     -0.023000
     18 CAX        -0.3760   -2.2660    1.2130 cp        1 4TN     -0.068000
     19 CAM        -1.4560   -2.8420    0.5350 ca        1 4TN     -0.089000
     20 CAV        -0.4590   -2.1260    2.6120 ca        1 4TN      0.089100
     21 OAH         0.6060   -1.5320    3.2660 oh        1 4TN     -0.510100
     22 CAL        -1.5950   -2.5600    3.3080 ca        1 4TN     -0.214000
     23 CAK        -2.6510   -3.1360    2.6120 ca        1 4TN     -0.105000
     24 CAU        -2.5990   -3.2890    1.2160 ca        1 4TN     -0.026800
     25 CAJ        -3.7200   -3.9050    0.5330 ce        1 4TN     -0.188200
     26 CAI        -3.7410   -4.3280   -0.7370 cf        1 4TN     -0.154200
     27 CAT        -4.9600   -4.9810   -1.3580 c         1 4TN      0.889800
     28 OAG        -4.8600   -5.3450   -2.5650 o         1 4TN     -0.831800
     29 OAF        -5.9990   -5.1330   -0.6540 o         1 4TN     -0.831800
     30 HAI        -2.8760   -4.2390   -1.4120 ha        1 4TN      0.101000
     31 HAJ        -4.6340   -4.0430    1.1430 ha        1 4TN      0.144000
     32 HAM        -1.4050   -2.9430   -0.5610 ha        1 4TN      0.152000
     33 HAH         0.4270   -1.5890    4.2150 ho        1 4TN      0.405000
     34 HAL        -1.6450   -2.4460    4.3990 ha        1 4TN      0.117000
     35 HAK        -3.5420   -3.4810    3.1590 ha        1 4TN      0.135000
     36 HAO         1.7670   -3.7640    0.8120 ha        1 4TN      0.140000
     37 HAN         2.1990    0.7000   -1.3270 ha        1 4TN      0.138000
     38 HAP1       -0.2850    0.2920    1.9050 h1        1 4TN      0.038200
     39 HAP2        0.6110    1.7250    1.2000 h1        1 4TN      0.038200
     40 HAA1       -1.7440    2.3530    1.8600 hc        1 4TN      0.044367
     41 HAA2       -1.5140    2.4850    0.0600 hc        1 4TN      0.044367
     42 HAA3       -2.4000    1.0670    0.7520 hc        1 4TN      0.044367
     43 HAB1        4.1590    1.3820   -1.6260 hc        1 4TN      0.035033
     44 HAB2        4.9320    0.6310   -0.1680 hc        1 4TN      0.035033
     45 HAB3        5.8740    0.8120   -1.7100 hc        1 4TN      0.035033
     46 HAC1        4.9580   -0.3740   -3.8000 hc        1 4TN      0.035033
     47 HAC2        3.7760   -1.7370   -3.6030 hc        1 4TN      0.035033
     48 HAC3        3.2220   -0.0250   -3.3980 hc        1 4TN      0.035033
     49 HAQ1        6.0130   -1.5580   -0.4950 hc        1 4TN      0.037700
     50 HAQ2        6.3560   -1.5760   -2.2710 hc        1 4TN      0.037700
     51 HAR1        4.6840   -3.4130   -2.5840 hc        1 4TN      0.040700
     52 HAR2        6.0140   -3.8730   -1.4500 hc        1 4TN      0.040700
     53 HAD1        5.3050   -2.7810    1.1430 hc        1 4TN      0.036033
     54 HAD2        4.0260   -3.9650    1.6370 hc        1 4TN      0.036033
     55 HAD3        5.5260   -4.5490    0.7970 hc        1 4TN      0.036033
     56 HAE1        4.2490   -5.6160   -1.1740 hc        1 4TN      0.036033
     57 HAE2        2.8680   -5.3150   -0.0460 hc        1 4TN      0.036033
     58 HAE3        2.7680   -4.7470   -1.7640 hc        1 4TN      0.036033
@<TRIPOS>BOND
     1    1    2 1   
     2    1   40 1   
     3    1   41 1   
     4    1   42 1   
     5    2    3 1   
     6    2   38 1   
     7    2   39 1   
     8    3    4 1   
     9    4    5 ar  
    10    4   17 ar  
    11    5    6 ar  
    12    5   37 1   
    13    6    7 1   
    14    6   15 ar  
    15    7    8 1   
    16    7    9 1   
    17    7   10 1   
    18    8   43 1   
    19    8   44 1   
    20    8   45 1   
    21    9   46 1   
    22    9   47 1   
    23    9   48 1   
    24   10   11 1   
    25   10   49 1   
    26   10   50 1   
    27   11   12 1   
    28   11   51 1   
    29   11   52 1   
    30   12   13 1   
    31   12   14 1   
    32   12   15 1   
    33   13   53 1   
    34   13   54 1   
    35   13   55 1   
    36   14   56 1   
    37   14   57 1   
    38   14   58 1   
    39   15   16 ar  
    40   16   17 ar  
    41   16   36 1   
    42   17   18 1   
    43   18   19 ar  
    44   18   20 ar  
    45   19   24 ar  
    46   19   32 1   
    47   20   21 1   
    48   20   22 ar  
    49   21   33 1   
    50   22   23 ar  
    51   22   34 1   
    52   23   24 ar  
    53   23   35 1   
    54   24   25 1   
    55   25   26 2   
    56   25   31 1   
    57   26   27 1   
    58   26   30 1   
    59   27   28 1   
    60   27   29 1   
@<TRIPOS>SUBSTRUCTURE
     1 4TN         1 TEMP              0 ****  ****    0 ROOT
