@<TRIPOS>MOLECULE
4TN
   58    60     1     0     0
SMALL
bcc


@<TRIPOS>ATOM
      1 CAA         0.2200   -0.7080    0.4520 c3        1 4TN     -0.101100
      2 CAP         1.7220   -0.5440    0.4010 c3        1 4TN      0.130400
      3 OAS         2.1070    0.0070    1.6660 os        1 4TN     -0.321900
      4 CAW         3.3560    0.6050    1.6980 ca        1 4TN      0.119100
      5 CAN         4.4060    0.1760    0.8830 ca        1 4TN     -0.202000
      6 CAZ         5.6780    0.7590    0.9750 ca        1 4TN     -0.047300
      7 CBB         6.7530    0.2590    0.0470 c3        1 4TN     -0.001700
      8 CAB         6.2280    0.1790   -1.3860 c3        1 4TN     -0.082600
      9 CAC         7.1880   -1.1370    0.4850 c3        1 4TN     -0.082600
     10 CAQ         7.9580    1.2000    0.0400 c3        1 4TN     -0.066400
     11 CAR         8.3510    1.6390    1.4270 c3        1 4TN     -0.068400
     12 CBC         7.2380    2.4210    2.1270 c3        1 4TN      0.002300
     13 CAD         7.1870    3.8470    1.5880 c3        1 4TN     -0.085100
     14 CAE         7.5840    2.4750    3.6150 c3        1 4TN     -0.085100
     15 CBA         5.8980    1.7650    1.9250 ca        1 4TN     -0.092300
     16 CAO         4.8290    2.1980    2.7220 ca        1 4TN     -0.089000
     17 CAY         3.5480    1.6470    2.6350 cp        1 4TN     -0.008000
     18 CAX         2.4780    2.1340    3.5010 cp        1 4TN     -0.083000
     19 CAM         1.6210    1.2300    4.1450 ca        1 4TN     -0.087000
     20 CAV         2.2790    3.5090    3.7360 ca        1 4TN      0.102100
     21 OAH         3.1270    4.4100    3.1160 oh        1 4TN     -0.519100
     22 CAL         1.2470    3.9510    4.5760 ca        1 4TN     -0.221000
     23 CAK         0.4110    3.0340    5.2020 ca        1 4TN     -0.070000
     24 CAU         0.5930    1.6570    4.9980 ca        1 4TN     -0.038800
     25 CAJ        -0.2630    0.6590    5.6160 ce        1 4TN     -0.179200
     26 CAI        -1.0130    0.7690    6.7170 cf        1 4TN     -0.148200
     27 CAT        -1.1780    1.9310    7.6660 c         1 4TN      0.894800
     28 OAG        -0.6380    1.8350    8.8040 o         1 4TN     -0.833800
     29 OAF        -1.8870    2.9170    7.3040 o         1 4TN     -0.833800
     30 HAI        -1.6020   -0.1090    7.0400 ha        1 4TN      0.097000
     31 HAJ        -0.2530   -0.3100    5.0790 ha        1 4TN      0.086000
     32 HAM         1.7640    0.1520    3.9660 ha        1 4TN      0.137000
     33 HAH         2.7940    5.2960    3.3120 ho        1 4TN      0.407000
     34 HAL         1.1010    5.0280    4.7430 ha        1 4TN      0.123000
     35 HAK        -0.4040    3.3830    5.8700 ha        1 4TN      0.210000
     36 HAO         4.9840    3.0220    3.4400 ha        1 4TN      0.151000
     37 HAN         4.2360   -0.6360    0.1620 ha        1 4TN      0.127000
     38 HAP1        2.0280    0.1400   -0.4330 h1        1 4TN      0.028700
     39 HAP2        2.2300   -1.5370    0.2720 h1        1 4TN      0.028700
     40 HAA1       -0.2750    0.2840    0.5850 hc        1 4TN      0.047367
     41 HAA2       -0.0710   -1.3580    1.3120 hc        1 4TN      0.047367
     42 HAA3       -0.1330   -1.1730   -0.4980 hc        1 4TN      0.047367
     43 HAB1        5.7150    1.1300   -1.6640 hc        1 4TN      0.033200
     44 HAB2        7.0760    0.0070   -2.0910 hc        1 4TN      0.033200
     45 HAB3        5.5050   -0.6640   -1.5000 hc        1 4TN      0.033200
     46 HAC1        7.6250   -1.1070    1.5120 hc        1 4TN      0.033200
     47 HAC2        7.9530   -1.5400   -0.2200 hc        1 4TN      0.033200
     48 HAC3        6.3100   -1.8270    0.4950 hc        1 4TN      0.033200
     49 HAQ1        7.7140    2.1010   -0.5830 hc        1 4TN      0.037200
     50 HAQ2        8.8240    0.6800   -0.4480 hc        1 4TN      0.037200
     51 HAR1        9.2680    2.2830    1.3710 hc        1 4TN      0.037700
     52 HAR2        8.6110    0.7400    2.0460 hc        1 4TN      0.037700
     53 HAD1        7.0060    3.8440    0.4870 hc        1 4TN      0.035533
     54 HAD2        6.3600    4.4130    2.0810 hc        1 4TN      0.035533
     55 HAD3        8.1530    4.3690    1.7920 hc        1 4TN      0.035533
     56 HAE1        6.9390    3.2140    4.1470 hc        1 4TN      0.035533
     57 HAE2        8.6490    2.7820    3.7460 hc        1 4TN      0.035533
     58 HAE3        7.4370    1.4730    4.0840 hc        1 4TN      0.035533
@<TRIPOS>BOND
     1    1    2 1   
     2    1   40 1   
     3    1   41 1   
     4    1   42 1   
     5    2    3 1   
     6    2   38 1   
     7    2   39 1   
     8    3    4 1   
     9    4    5 ar  
    10    4   17 ar  
    11    5    6 ar  
    12    5   37 1   
    13    6    7 1   
    14    6   15 ar  
    15    7    8 1   
    16    7    9 1   
    17    7   10 1   
    18    8   43 1   
    19    8   44 1   
    20    8   45 1   
    21    9   46 1   
    22    9   47 1   
    23    9   48 1   
    24   10   11 1   
    25   10   49 1   
    26   10   50 1   
    27   11   12 1   
    28   11   51 1   
    29   11   52 1   
    30   12   13 1   
    31   12   14 1   
    32   12   15 1   
    33   13   53 1   
    34   13   54 1   
    35   13   55 1   
    36   14   56 1   
    37   14   57 1   
    38   14   58 1   
    39   15   16 ar  
    40   16   17 ar  
    41   16   36 1   
    42   17   18 1   
    43   18   19 ar  
    44   18   20 ar  
    45   19   24 ar  
    46   19   32 1   
    47   20   21 1   
    48   20   22 ar  
    49   21   33 1   
    50   22   23 ar  
    51   22   34 1   
    52   23   24 ar  
    53   23   35 1   
    54   24   25 1   
    55   25   26 2   
    56   25   31 1   
    57   26   27 1   
    58   26   30 1   
    59   27   28 1   
    60   27   29 1   
@<TRIPOS>SUBSTRUCTURE
     1 4TN         1 TEMP              0 ****  ****    0 ROOT
