@<TRIPOS>MOLECULE
4TP
   20    19     1     0     0
SMALL
bcc


@<TRIPOS>ATOM
      1 N           1.4350    1.2680    2.2430 n3        1 4TP     -0.903800
      2 CA          0.0890    0.7140    2.1820 c3        1 4TP      0.047500
      3 CB         -0.1250   -0.3350    1.0600 c3        1 4TP      0.113100
      4 OG1         0.9620   -1.2580    1.0690 oh        1 4TP     -0.657800
      5 CG2        -0.2650    0.3250   -0.3340 c3        1 4TP      0.165400
      6 C          -0.3960    0.1670    3.5570 c         1 4TP      0.913600
      7 O           0.4450   -0.1900    4.4400 o         1 4TP     -0.882800
      8 OXT        -1.6440    0.1360    3.7800 o         1 4TP     -0.882800
      9 OP4        -0.0880   -0.6320   -1.3150 os        1 4TP     -0.585200
     10 P          -0.0310    0.0460   -2.9060 p5        1 4TP      1.320900
     11 OP1         1.1780    0.9460   -2.8460 o         1 4TP     -0.944500
     12 OP2         0.1250   -1.1880   -3.7590 o         1 4TP     -0.944500
     13 OP3        -1.3540    0.7600   -3.0310 o         1 4TP     -0.944500
     14 H           1.9480    0.7610    2.9460 hn        1 4TP      0.333300
     15 HN2         1.8890    1.0970    1.3620 hn        1 4TP      0.333300
     16 HA         -0.5990    1.5750    1.9270 h1        1 4TP      0.040700
     17 HB         -1.0600   -0.9140    1.2960 h1        1 4TP      0.030700
     18 HG1         1.1020   -1.5170    0.1450 ho        1 4TP      0.427000
     19 HG21       -1.2870    0.7860   -0.4210 h1        1 4TP      0.009700
     20 HG22        0.5050    1.1360   -0.4630 h1        1 4TP      0.009700
@<TRIPOS>BOND
     1    1    2 1   
     2    1   14 1   
     3    1   15 1   
     4    2    3 1   
     5    2    6 1   
     6    2   16 1   
     7    3    4 1   
     8    3    5 1   
     9    3   17 1   
    10    4   18 1   
    11    5    9 1   
    12    5   19 1   
    13    5   20 1   
    14    6    7 1   
    15    6    8 1   
    16    9   10 1   
    17   10   11 1   
    18   10   12 1   
    19   10   13 1   
@<TRIPOS>SUBSTRUCTURE
     1 4TP         1 TEMP              0 ****  ****    0 ROOT
