@<TRIPOS>MOLECULE
4TP
   20    19     1     0     0
SMALL
bcc


@<TRIPOS>ATOM
      1 N           1.0000    0.3550   -2.3480 n3        1 4TP     -0.903800
      2 CA         -0.1270    0.5120   -1.5430 c3        1 4TP      0.047500
      3 CB          0.3000    0.5920   -0.0870 c3        1 4TP      0.113100
      4 OG1         1.6830    0.5890   -0.0110 oh        1 4TP     -0.657800
      5 CG2        -0.2590   -0.6220    0.6790 c3        1 4TP      0.165400
      6 C          -0.8590    1.7910   -1.9310 c         1 4TP      0.913600
      7 O          -2.1040    1.7520   -2.2260 o         1 4TP     -0.882800
      8 OXT        -0.2330    2.9080   -1.9470 o         1 4TP     -0.882800
      9 OP4         0.1880   -0.5780    2.0400 os        1 4TP     -0.585200
     10 P          -0.2880   -1.6930    3.0050 p5        1 4TP      1.320900
     11 OP1         0.1050   -1.3380    4.4220 o         1 4TP     -0.944500
     12 OP2        -1.7850   -1.8240    2.9170 o         1 4TP     -0.944500
     13 OP3         0.3620   -3.0150    2.6130 o         1 4TP     -0.944500
     14 H           0.8590    0.7700   -3.1540 hn        1 4TP      0.333300
     15 HN2         1.1530   -0.5320   -2.4860 hn        1 4TP      0.333300
     16 HA         -0.7230   -0.2520   -1.6660 h1        1 4TP      0.040700
     17 HB         -0.0470    1.4180    0.3110 h1        1 4TP      0.030700
     18 HG1         1.9450    1.2280    0.5080 ho        1 4TP      0.427000
     19 HG21        0.0640   -1.4610    0.2500 h1        1 4TP      0.009700
     20 HG22       -1.2330   -0.6000    0.6560 h1        1 4TP      0.009700
@<TRIPOS>BOND
     1    1    2 1   
     2    1   14 1   
     3    1   15 1   
     4    2    3 1   
     5    2    6 1   
     6    2   16 1   
     7    3    4 1   
     8    3    5 1   
     9    3   17 1   
    10    4   18 1   
    11    5    9 1   
    12    5   19 1   
    13    5   20 1   
    14    6    7 1   
    15    6    8 1   
    16    9   10 1   
    17   10   11 1   
    18   10   12 1   
    19   10   13 1   
@<TRIPOS>SUBSTRUCTURE
     1 4TP         1 TEMP              0 ****  ****    0 ROOT
