@<TRIPOS>MOLECULE
4TQ
   58    62     1     0     0
SMALL
bcc


@<TRIPOS>ATOM
      1 FBH         2.1710   -0.9220    0.2600 f         1 4TQ     -0.237300
      2 CBG         3.1690   -0.1570   -0.2940 c3        1 4TQ      0.687200
      3 FBI         4.0940   -0.0290    0.7140 f         1 4TQ     -0.237300
      4 FBJ         3.7740   -1.0020   -1.1940 f         1 4TQ     -0.237300
      5 CBE         2.6910    1.1590   -0.8940 ca        1 4TQ     -0.171300
      6 CBF         2.8170    2.3450   -0.1690 ca        1 4TQ     -0.052000
      7 CBD         2.1200    1.1580   -2.1690 ca        1 4TQ     -0.077000
      8 CBC         1.6750    2.3570   -2.7230 ca        1 4TQ     -0.136000
      9 CBB         1.8050    3.5490   -2.0120 ca        1 4TQ     -0.089000
     10 CBA         2.3820    3.5490   -0.7350 cp        1 4TQ     -0.136500
     11 CAX         2.5430    4.8250   -0.0130 cp        1 4TQ      0.447800
     12 CAY         3.0780    5.9280   -0.7030 ca        1 4TQ     -0.227300
     13 CAZ         3.2350    7.1350   -0.0310 ca        1 4TQ     -0.133000
     14 NAW         2.1710    4.8900    1.2870 nb        1 4TQ     -0.696000
     15 CAP         2.3140    6.0630    1.9580 ca        1 4TQ      0.493200
     16 CAQ         2.8440    7.2560    1.3160 ca        1 4TQ      0.023300
     17 NAR         2.8750    8.4910    1.9870 nh        1 4TQ     -0.633000
     18 CAV         2.8310    8.4220    3.4330 c3        1 4TQ      0.182800
     19 CAS         3.7480    9.5100    1.4580 c3        1 4TQ      0.178100
     20 CAT         1.8940    7.3720    5.4710 c3        1 4TQ     -0.106100
     21 CAU         1.7830    7.4090    3.9460 c3        1 4TQ      0.092700
     22 NAO         1.9820    6.0900    3.3410 n         1 4TQ     -0.447300
     23 CAM         1.0550    5.0810    3.8360 c         1 4TQ      0.786100
     24 OAN        -0.0820    5.4270    4.2210 o         1 4TQ     -0.608100
     25 NAL         1.5520    3.7870    3.9570 ns        1 4TQ     -0.429100
     26 CAH         0.8130    2.6580    4.3570 ca        1 4TQ      0.074600
     27 CAG         1.4600    1.4000    4.2960 ca        1 4TQ     -0.155000
     28 CAI        -0.5090    2.7160    4.8440 ca        1 4TQ     -0.147000
     29 CAJ        -1.1510    1.5510    5.2580 ca        1 4TQ     -0.107000
     30 CAK        -0.5120    0.3170    5.2050 ca        1 4TQ     -0.137000
     31 CAF         0.8030    0.2420    4.7210 ca        1 4TQ     -0.096500
     32 CAD         1.4630   -1.0360    4.6670 cc        1 4TQ      0.213900
     33 OAE         2.7820   -1.0900    4.1810 os        1 4TQ     -0.380800
     34 CAA         3.1370   -2.4420    4.2490 cc        1 4TQ      0.485300
     35 NAB         2.1620   -3.2060    4.7300 nd        1 4TQ     -0.669000
     36 CAC         1.0950   -2.3400    5.0000 cd        1 4TQ      0.241900
     37 H1          3.2620    2.3300    0.8390 ha        1 4TQ      0.158000
     38 H2          2.0290    0.2130   -2.7280 ha        1 4TQ      0.152000
     39 H3          1.2180    2.3610   -3.7240 ha        1 4TQ      0.144000
     40 H4          1.4490    4.4940   -2.4500 ha        1 4TQ      0.144000
     41 H5          3.3750    5.8320   -1.7560 ha        1 4TQ      0.148000
     42 H6          3.6590    7.9950   -0.5720 ha        1 4TQ      0.145000
     43 H7          2.5330    9.4390    3.8160 h1        1 4TQ      0.052700
     44 H8          3.8410    8.1660    3.8650 h1        1 4TQ      0.052700
     45 H9          4.8010    9.1470    1.3110 h1        1 4TQ      0.043367
     46 H10         3.3420    9.8540    0.4690 h1        1 4TQ      0.043367
     47 H11         3.7630   10.3870    2.1580 h1        1 4TQ      0.043367
     48 H12         1.7610    8.4090    5.8620 hc        1 4TQ      0.053700
     49 H13         2.8890    6.9870    5.7970 hc        1 4TQ      0.053700
     50 H14         1.0940    6.7230    5.9050 hc        1 4TQ      0.053700
     51 H15         0.7480    7.7860    3.6780 h1        1 4TQ      0.074700
     52 H16         2.4400    3.5870    3.5460 hn        1 4TQ      0.336500
     53 H17         2.4900    1.3120    3.9140 ha        1 4TQ      0.148000
     54 H18        -1.0530    3.6740    4.9030 ha        1 4TQ      0.176000
     55 H19        -2.1840    1.6150    5.6340 ha        1 4TQ      0.138000
     56 H20        -1.0300   -0.5940    5.5370 ha        1 4TQ      0.138000
     57 H21         4.1410   -2.6880    3.9010 h5        1 4TQ      0.089100
     58 H22         0.1550   -2.7110    5.4070 h4        1 4TQ      0.053100
@<TRIPOS>BOND
     1    1    2 1   
     2    2    3 1   
     3    2    4 1   
     4    2    5 1   
     5    5    6 ar  
     6    5    7 ar  
     7    6   10 ar  
     8    6   37 1   
     9    7    8 ar  
    10    7   38 1   
    11    8    9 ar  
    12    8   39 1   
    13    9   10 ar  
    14    9   40 1   
    15   10   11 1   
    16   11   12 ar  
    17   11   14 ar  
    18   12   13 ar  
    19   12   41 1   
    20   13   16 ar  
    21   13   42 1   
    22   14   15 ar  
    23   15   16 ar  
    24   15   22 1   
    25   16   17 1   
    26   17   18 1   
    27   17   19 1   
    28   18   21 1   
    29   18   43 1   
    30   18   44 1   
    31   19   45 1   
    32   19   46 1   
    33   19   47 1   
    34   20   21 1   
    35   20   48 1   
    36   20   49 1   
    37   20   50 1   
    38   21   22 1   
    39   21   51 1   
    40   22   23 1   
    41   23   24 2   
    42   23   25 1   
    43   25   26 1   
    44   25   52 1   
    45   26   27 ar  
    46   26   28 ar  
    47   27   31 ar  
    48   27   53 1   
    49   28   29 ar  
    50   28   54 1   
    51   29   30 ar  
    52   29   55 1   
    53   30   31 ar  
    54   30   56 1   
    55   31   32 1   
    56   32   33 1   
    57   32   36 2   
    58   33   34 1   
    59   34   35 2   
    60   34   57 1   
    61   35   36 1   
    62   36   58 1   
@<TRIPOS>SUBSTRUCTURE
     1 4TQ         1 TEMP              0 ****  ****    0 ROOT
