@<TRIPOS>MOLECULE
4TR
   42    44     1     0     0
SMALL
bcc


@<TRIPOS>ATOM
      1 S1         -0.3750    0.7810    0.3530 s6        1 4TR      1.621400
      2 O1         -1.4680    1.5790    0.4240 o         1 4TR     -0.527800
      3 O2          0.9400    1.0890    0.4940 o         1 4TR     -0.527800
      4 O3         -0.5620   -0.1770   -0.9890 os        1 4TR     -0.483800
      5 N1         -0.7000   -0.5350    1.5990 n4        1 4TR     -0.814500
      6 C1          0.3340   -0.3690   -2.0180 ca        1 4TR      0.184100
      7 C2          0.2260    0.4670   -3.1400 ca        1 4TR     -0.119000
      8 C3          1.0210    0.2150   -4.2550 ca        1 4TR     -0.063000
      9 C4          1.9200   -0.8600   -4.2540 ca        1 4TR     -0.136300
     10 C5          2.0090   -1.6910   -3.1300 ca        1 4TR     -0.047000
     11 C6          1.2270   -1.4570   -1.9940 ca        1 4TR     -0.038900
     12 C7          2.6780   -1.1990   -5.4920 c3        1 4TR      0.176100
     13 N2          5.4260    4.8490   -9.0840 n1        1 4TR     -0.226800
     14 C9          4.9640    2.7010   -7.7230 ca        1 4TR      0.088000
     15 C10         4.0280    2.7250   -6.6760 ca        1 4TR     -0.073000
     16 C11         3.7730    1.5740   -5.9380 ca        1 4TR     -0.104000
     17 C12         4.4520    0.3870   -6.2600 ca        1 4TR     -0.053400
     18 C13         5.4060    0.3560   -7.2920 ca        1 4TR     -0.104000
     19 C14         5.6500    1.5160   -8.0260 ca        1 4TR     -0.073000
     20 N3          4.1850   -0.8730   -5.5070 n4        1 4TR     -0.391100
     21 N4          5.6690   -0.3690   -2.2730 nc        1 4TR     -0.271000
     22 N5          5.7330   -1.7030   -2.3820 nc        1 4TR     -0.271000
     23 C17         5.2380   -2.1000   -3.5610 cd        1 4TR      0.405400
     24 N6          4.8190   -0.9180   -4.2730 na        1 4TR     -0.335500
     25 C15         5.1280    0.1620   -3.3790 cd        1 4TR      0.405400
     26 BR          1.3910   -2.6110   -0.5320 br        1 4TR     -0.018100
     27 HN11       -1.5380   -0.3320    2.1560 hn        1 4TR      0.486800
     28 HN12       -0.8560   -1.4480    1.1560 hn        1 4TR      0.486800
     29 H2         -0.5080    1.2910   -3.1520 ha        1 4TR      0.186000
     30 H3          0.9090    0.8550   -5.1480 ha        1 4TR      0.171000
     31 H5          2.6990   -2.5550   -3.1390 ha        1 4TR      0.171000
     32 H71         2.2440   -0.6570   -6.3840 hx        1 4TR      0.124200
     33 H72         2.6100   -2.3140   -5.6670 hx        1 4TR      0.124200
     34 H10         3.4950    3.6620   -6.4360 ha        1 4TR      0.191500
     35 H11         3.0400    1.6070   -5.1150 ha        1 4TR      0.162000
     36 H13         5.9700   -0.5590   -7.5420 ha        1 4TR      0.162000
     37 H14         6.3930    1.4970   -8.8450 ha        1 4TR      0.191500
     38 H17         5.1840   -3.1180   -3.9660 h5        1 4TR      0.104600
     39 H15         4.9700    1.2210   -3.6210 h5        1 4TR      0.104600
     40 H131        0.0800   -0.6510    2.2540 hn        1 4TR      0.486800
     41 H31         4.6240   -1.6350   -6.0730 hn        1 4TR      0.472800
     42 C8          5.2180    3.8820   -8.4710 cg        1 4TR      0.168800
@<TRIPOS>BOND
     1    1    2 2   
     2    1    3 2   
     3    1    4 1   
     4    1    5 1   
     5    4    6 1   
     6    5   27 1   
     7    5   28 1   
     8    5   40 1   
     9    6    7 ar  
    10    6   11 ar  
    11    7    8 ar  
    12    7   29 1   
    13    8    9 ar  
    14    8   30 1   
    15    9   10 ar  
    16    9   12 1   
    17   10   11 ar  
    18   10   31 1   
    19   11   26 1   
    20   12   20 1   
    21   12   32 1   
    22   12   33 1   
    23   13   42 3   
    24   14   15 ar  
    25   14   19 ar  
    26   14   42 1   
    27   15   16 ar  
    28   15   34 1   
    29   16   17 ar  
    30   16   35 1   
    31   17   18 ar  
    32   17   20 1   
    33   18   19 ar  
    34   18   36 1   
    35   19   37 1   
    36   20   24 1   
    37   20   41 1   
    38   21   22 1   
    39   21   25 2   
    40   22   23 2   
    41   23   24 1   
    42   23   38 1   
    43   24   25 1   
    44   25   39 1   
@<TRIPOS>SUBSTRUCTURE
     1 4TR         1 TEMP              0 ****  ****    0 ROOT
