@<TRIPOS>MOLECULE
4TR
   41    43     1     0     0
SMALL
bcc


@<TRIPOS>ATOM
      1 S1          0.1920   -0.2710    0.7300 s6        1 4TR      1.584400
      2 O1          1.2220    0.6120    0.6300 o         1 4TR     -0.536800
      3 O2         -0.0800   -1.1740    1.7110 o         1 4TR     -0.536800
      4 O3         -0.2420   -0.8700   -0.7460 os        1 4TR     -0.451800
      5 N1         -1.3040    0.8690    0.8640 n4        1 4TR     -0.797500
      6 C1          0.6130   -0.9450   -1.8310 ca        1 4TR      0.111100
      7 C2          0.3040   -0.1470   -2.9410 ca        1 4TR     -0.111000
      8 C3          1.0630   -0.2820   -4.1020 ca        1 4TR     -0.090000
      9 C4          2.1240   -1.1920   -4.1520 ca        1 4TR     -0.076300
     10 C5          2.4130   -1.9880   -3.0360 ca        1 4TR     -0.053000
     11 C6          1.6710   -1.8730   -1.8570 ca        1 4TR     -0.048900
     12 C7          2.9260   -1.3660   -5.4090 c3        1 4TR      0.180100
     13 N2          4.6130    5.0770   -8.9390 n1        1 4TR     -0.317800
     14 C9          4.4940    2.8680   -7.6020 ca        1 4TR      0.016000
     15 C10         3.5850    2.7440   -6.5410 ca        1 4TR     -0.086500
     16 C11         3.5160    1.5580   -5.8200 ca        1 4TR     -0.120000
     17 C12         4.3490    0.4740   -6.1540 ca        1 4TR      0.055600
     18 C13         5.2690    0.6060   -7.2100 ca        1 4TR     -0.120000
     19 C14         5.3340    1.7970   -7.9310 ca        1 4TR     -0.086500
     20 N3          4.3000   -0.8120   -5.4690 nh        1 4TR     -0.426300
     21 N4          5.9480   -0.3520   -2.3120 nc        1 4TR     -0.337500
     22 N5          6.4060   -1.5390   -2.6880 nc        1 4TR     -0.337500
     23 C17         5.8790   -1.8770   -3.8890 cd        1 4TR      0.364400
     24 N6          5.0050   -0.8330   -4.2980 na        1 4TR     -0.209500
     25 C15         5.0980    0.1240   -3.2500 cd        1 4TR      0.364400
     26 BR          2.1140   -2.9240   -0.3790 br        1 4TR     -0.014100
     27 HN11       -1.9230    0.7660    0.0590 hn        1 4TR      0.470133
     28 HN12       -1.0260    1.8490    0.9180 hn        1 4TR      0.470133
     29 H2         -0.5430    0.5520   -2.9050 ha        1 4TR      0.152000
     30 H3          0.8110    0.3280   -4.9860 ha        1 4TR      0.166000
     31 H5          3.2430   -2.7170   -3.0900 ha        1 4TR      0.185000
     32 H71         3.0590   -2.4750   -5.5860 h1        1 4TR      0.091700
     33 H72         2.3560   -0.9420   -6.2840 h1        1 4TR      0.091700
     34 H10         2.9310    3.5900   -6.2770 ha        1 4TR      0.159500
     35 H11         2.8040    1.4730   -4.9850 ha        1 4TR      0.147500
     36 H13         5.9420   -0.2270   -7.4760 ha        1 4TR      0.147500
     37 H14         6.0540    1.8940   -8.7600 ha        1 4TR      0.159500
     38 H17         6.0770   -2.7740   -4.4830 h5        1 4TR      0.080600
     39 H15         4.5870    1.0900   -3.2590 h5        1 4TR      0.080600
     40 H131       -1.8530    0.6530    1.6980 hn        1 4TR      0.470133
     41 C8          4.5600    4.0830   -8.3380 cg        1 4TR      0.211800
@<TRIPOS>BOND
     1    1    2 2   
     2    1    3 2   
     3    1    4 1   
     4    1    5 1   
     5    4    6 1   
     6    5   27 1   
     7    5   28 1   
     8    5   40 1   
     9    6    7 ar  
    10    6   11 ar  
    11    7    8 ar  
    12    7   29 1   
    13    8    9 ar  
    14    8   30 1   
    15    9   10 ar  
    16    9   12 1   
    17   10   11 ar  
    18   10   31 1   
    19   11   26 1   
    20   12   20 1   
    21   12   32 1   
    22   12   33 1   
    23   13   41 3   
    24   14   15 ar  
    25   14   19 ar  
    26   14   41 1   
    27   15   16 ar  
    28   15   34 1   
    29   16   17 ar  
    30   16   35 1   
    31   17   18 ar  
    32   17   20 1   
    33   18   19 ar  
    34   18   36 1   
    35   19   37 1   
    36   20   24 1   
    37   21   22 1   
    38   21   25 2   
    39   22   23 2   
    40   23   24 1   
    41   23   38 1   
    42   24   25 1   
    43   25   39 1   
@<TRIPOS>SUBSTRUCTURE
     1 4TR         1 TEMP              0 ****  ****    0 ROOT
