@<TRIPOS>MOLECULE
4TR
   40    33     1     0     0
SMALL
bcc


@<TRIPOS>ATOM
      1 S1          5.3260   -0.3150    0.8130 ss        1 4TR      2.836000
      2 O1          4.7000   -0.3940    2.2040 o         1 4TR     -0.923500
      3 O2          4.7870   -1.5740    0.1750 o         1 4TR     -0.923500
      4 O3          4.8500    0.9460    0.0550 o         1 4TR     -0.668000
      5 N1          6.9880   -0.3430    0.8990 n2        1 4TR     -0.945000
      6 C1          3.4280    1.0580   -0.1660 c2        1 4TR      0.173000
      7 C2          2.8930    0.7550   -1.4180 c2        1 4TR     -0.183000
      8 C3          1.5200    0.8380   -1.6260 c1        1 4TR     -0.072000
      9 C4          0.6900    1.2190   -0.5940 c1        1 4TR     -0.118000
     10 C5          1.2270    1.5220    0.6570 c1        1 4TR     -0.064000
     11 C6          2.5990    1.4390    0.8640 c1        1 4TR     -0.192000
     12 C7         -0.8210    1.3970   -0.8410 c3        1 4TR     -0.037000
     13 C8         -6.3120   -0.4800    2.3380 c1        1 4TR     -0.102000
     14 N2         -7.2660   -0.6300    2.9110 n1        1 4TR     -0.023000
     15 C9         -5.0340   -0.2790    1.5700 c1        1 4TR     -0.006000
     16 C10        -3.8390   -0.7570    2.0790 c2        1 4TR     -0.085000
     17 C11        -2.6640   -0.5860    1.3650 c1        1 4TR     -0.105000
     18 C12        -2.6840    0.0670    0.1370 c1        1 4TR      0.001000
     19 C13        -3.8790    0.5450   -0.3720 c1        1 4TR     -0.155000
     20 C14        -5.0550    0.3730    0.3420 c1        1 4TR     -0.083000
     21 N3         -1.4940    0.1330   -0.6590 n3        1 4TR     -0.081000
     22 N4         -0.4170   -3.0100   -1.9010 n2        1 4TR     -0.084500
     23 N5         -0.7150   -2.3700   -3.0520 n2        1 4TR     -0.084500
     24 C17        -1.1220   -1.1330   -2.7450 c1        1 4TR     -0.117000
     25 N6         -1.0780   -1.0010   -1.3990 n3        1 4TR     -0.142000
     26 C15        -0.6430   -2.1610   -0.8850 c1        1 4TR     -0.117000
     27 BR          3.3520    1.9840    2.5470 br        1 4TR      0.071000
     28 HN11        7.4660   -0.9390    0.3880 hn        1 4TR      0.260500
     29 HN12        7.4250    0.2470    1.4390 hn        1 4TR      0.260500
     30 H2          3.4720    0.4900   -2.1340 ha        1 4TR      0.171000
     31 H3          1.1420    0.6250   -2.5060 ha        1 4TR      0.143000
     32 H5          0.6440    1.7900    1.3800 ha        1 4TR      0.154000
     33 H71        -1.1820    2.0550   -0.2030 h1        1 4TR      0.102000
     34 H72        -0.9660    1.7130   -1.7540 h1        1 4TR      0.102000
     35 H10        -3.8230   -1.2200    2.9550 ha        1 4TR      0.154000
     36 H11        -1.8140   -0.9270    1.7280 ha        1 4TR      0.159000
     37 H13        -3.8950    1.0080   -1.2430 ha        1 4TR      0.143000
     38 H14        -5.8920    0.7070   -0.0150 ha        1 4TR      0.151000
     39 H17        -1.4050   -0.4400   -3.3870 DU        1 4TR      0.214500
     40 H15        -0.5130   -2.3520    0.0540 DU        1 4TR      0.214500
@<TRIPOS>BOND
     1    1    2 1   
     2    1    3 1   
     3    4    6 1   
     4    5   28 1   
     5    5   29 1   
     6    6    7 1   
     7    6   11 1   
     8    7    8 1   
     9    7   30 1   
    10    8   31 1   
    11    9   10 1   
    12    9   12 1   
    13   10   32 1   
    14   11   27 1   
    15   12   21 1   
    16   12   33 1   
    17   12   34 1   
    18   13   14 1   
    19   15   16 1   
    20   15   20 1   
    21   16   17 1   
    22   16   35 1   
    23   17   36 1   
    24   18   19 1   
    25   18   21 1   
    26   19   37 1   
    27   20   38 1   
    28   21   25 1   
    29   22   23 1   
    30   22   26 1   
    31   23   24 1   
    32   24   25 1   
    33   25   26 1   
@<TRIPOS>SUBSTRUCTURE
     1 4TR         1 TEMP              0 ****  ****    0 ROOT
