@<TRIPOS>MOLECULE
4TR
   41    43     1     0     0
SMALL
bcc


@<TRIPOS>ATOM
      1 S1          0.1650   -0.3580    0.6580 s6        1 4TR      1.584400
      2 O1          1.1760    0.5480    0.5670 o         1 4TR     -0.536800
      3 O2         -0.0980   -1.2650    1.6380 o         1 4TR     -0.536800
      4 O3         -0.2410   -0.9690   -0.8210 os        1 4TR     -0.451800
      5 N1         -1.3580    0.7490    0.7740 nz        1 4TR     -0.797500
      6 C1          0.6260   -1.0270   -1.8970 ca        1 4TR      0.111100
      7 C2          0.3120   -0.2380   -3.0120 ca        1 4TR     -0.111000
      8 C3          1.0850   -0.3590   -4.1650 ca        1 4TR     -0.090000
      9 C4          2.1670   -1.2450   -4.2020 ca        1 4TR     -0.076300
     10 C5          2.4620   -2.0330   -3.0820 ca        1 4TR     -0.053000
     11 C6          1.7050   -1.9320   -1.9110 ca        1 4TR     -0.048900
     12 C7          2.9850   -1.4040   -5.4500 c3        1 4TR      0.180100
     13 N2          4.5690    5.0610   -8.9870 n1        1 4TR     -0.317800
     14 C9          4.4840    2.8560   -7.6420 ca        1 4TR      0.016000
     15 C10         3.5650    2.7150   -6.5920 ca        1 4TR     -0.086500
     16 C11         3.5150    1.5300   -5.8670 ca        1 4TR     -0.120000
     17 C12         4.3760    0.4650   -6.1870 ca        1 4TR      0.055600
     18 C13         5.3060    0.6130   -7.2320 ca        1 4TR     -0.120000
     19 C14         5.3530    1.8030   -7.9560 ca        1 4TR     -0.086500
     20 N3          4.3470   -0.8200   -5.4970 nh        1 4TR     -0.426300
     21 N4          5.9480   -0.3120   -2.3230 nc        1 4TR     -0.337500
     22 N5          6.4370   -1.4890   -2.6890 nc        1 4TR     -0.337500
     23 C17         5.9320   -1.8430   -3.8940 cd        1 4TR      0.364400
     24 N6          5.0400   -0.8200   -4.3170 na        1 4TR     -0.209500
     25 C15         5.0990    0.1430   -3.2730 cd        1 4TR      0.364400
     26 Br          2.1560   -2.9700   -0.4260 br        1 4TR     -0.014100
     27 HN11       -1.1020    1.7350    0.8290 hn        1 4TR      0.470133
     28 HN12       -1.9110    0.5220    1.6020 hn        1 4TR      0.470133
     29 H2         -0.5510    0.4420   -2.9860 ha        1 4TR      0.152000
     30 H3          0.8290    0.2430   -5.0530 ha        1 4TR      0.166000
     31 H5          3.3080   -2.7440   -3.1250 ha        1 4TR      0.185000
     32 H71         3.1450   -2.5100   -5.6230 h1        1 4TR      0.091700
     33 H72         2.4150   -0.9940   -6.3320 h1        1 4TR      0.091700
     34 H10         2.8890    3.5470   -6.3400 ha        1 4TR      0.159500
     35 H11         2.7940    1.4320   -5.0410 ha        1 4TR      0.147500
     36 H13         6.0000   -0.2050   -7.4860 ha        1 4TR      0.147500
     37 H14         6.0810    1.9130   -8.7770 ha        1 4TR      0.159500
     38 H17         6.1560   -2.7380   -4.4830 h5        1 4TR      0.080600
     39 H15         4.5660    1.0970   -3.2910 h5        1 4TR      0.080600
     40 H131       -1.9660    0.6310   -0.0370 hn        1 4TR      0.470133
     41 C8          4.5320    4.0690   -8.3820 cg        1 4TR      0.211800
@<TRIPOS>BOND
     1    1    2 2   
     2    1    3 2   
     3    1    4 1   
     4    1    5 1   
     5    4    6 1   
     6    5   27 1   
     7    5   28 1   
     8    5   40 1   
     9    6    7 ar  
    10    6   11 ar  
    11    7    8 ar  
    12    7   29 1   
    13    8    9 ar  
    14    8   30 1   
    15    9   10 ar  
    16    9   12 1   
    17   10   11 ar  
    18   10   31 1   
    19   11   26 1   
    20   12   20 1   
    21   12   32 1   
    22   12   33 1   
    23   13   41 3   
    24   14   15 ar  
    25   14   19 ar  
    26   14   41 1   
    27   15   16 ar  
    28   15   34 1   
    29   16   17 ar  
    30   16   35 1   
    31   17   18 ar  
    32   17   20 1   
    33   18   19 ar  
    34   18   36 1   
    35   19   37 1   
    36   20   24 1   
    37   21   22 1   
    38   21   25 2   
    39   22   23 2   
    40   23   24 1   
    41   23   38 1   
    42   24   25 1   
    43   25   39 1   
@<TRIPOS>SUBSTRUCTURE
     1 4TR         1 TEMP              0 ****  ****    0 ROOT
