@<TRIPOS>MOLECULE
4TR
   40    42     1     0     0
SMALL
bcc


@<TRIPOS>ATOM
      1 S1         -2.7990    1.0190    3.0840 s6        1 4TR      1.725400
      2 O1         -2.1600    1.9530    2.2860 o         1 4TR     -0.629800
      3 O2         -2.8710    1.1330    4.4590 o         1 4TR     -0.629800
      4 O3         -1.8300   -0.3890    2.9200 os        1 4TR     -0.489800
      5 N1         -4.1810    0.5790    2.4540 n3        1 4TR     -1.037700
      6 C1         -1.0240   -0.6830    1.8670 ca        1 4TR      0.223100
      7 C2         -1.6010   -1.2060    0.6950 ca        1 4TR     -0.184000
      8 C3         -0.7910   -1.5860   -0.3670 ca        1 4TR     -0.074000
      9 C4          0.5990   -1.4500   -0.2790 ca        1 4TR     -0.159300
     10 C5          1.1700   -0.9430    0.8900 ca        1 4TR     -0.073000
     11 C6          0.3760   -0.5520    1.9730 ca        1 4TR     -0.052900
     12 C7          1.4710   -1.9000   -1.4080 c3        1 4TR      0.212100
     13 N2         -3.6390    0.6340   -6.3500 n1        1 4TR     -0.353800
     14 C9         -1.6000    0.0760   -4.8640 ca        1 4TR     -0.023000
     15 C10        -1.0670    1.0440   -4.0050 ca        1 4TR     -0.080500
     16 C11         0.0250    0.7410   -3.1960 ca        1 4TR     -0.139500
     17 C12         0.6080   -0.5380   -3.2370 ca        1 4TR      0.093600
     18 C13         0.0710   -1.5070   -4.1140 ca        1 4TR     -0.139500
     19 C14        -1.0220   -1.2000   -4.9150 ca        1 4TR     -0.080500
     20 N3          1.7870   -0.9260   -2.4790 nh        1 4TR     -0.442300
     21 N4          3.6330    1.8870   -1.2200 nc        1 4TR     -0.346000
     22 N5          4.4360    1.4290   -2.1730 nc        1 4TR     -0.346000
     23 C17         3.8790    0.3440   -2.7590 cd        1 4TR      0.369400
     24 N6          2.6310    0.0880   -2.1270 na        1 4TR     -0.202500
     25 C15         2.5220    1.1180   -1.1520 cd        1 4TR      0.369400
     26 BR          1.2160    0.1140    3.5060 br        1 4TR     -0.043100
     27 HN11       -4.4330    0.7270    1.5060 hn        1 4TR      0.461300
     28 HN12       -4.8890    0.0980    2.9560 hn        1 4TR      0.461300
     29 H2         -2.6930   -1.3250    0.6350 ha        1 4TR      0.141000
     30 H3         -1.2460   -1.9990   -1.2810 ha        1 4TR      0.142000
     31 H5          2.2680   -0.8520    0.9590 ha        1 4TR      0.159000
     32 H71         0.9720   -2.7570   -1.9480 h1        1 4TR      0.082200
     33 H72         2.4530   -2.2740   -0.9960 h1        1 4TR      0.082200
     34 H10        -1.5110    2.0520   -3.9650 ha        1 4TR      0.152500
     35 H11         0.4190    1.5270   -2.5320 ha        1 4TR      0.153500
     36 H13         0.5210   -2.5110   -4.1810 ha        1 4TR      0.153500
     37 H14        -1.4300   -1.9620   -5.5970 ha        1 4TR      0.152500
     38 H17         4.2810   -0.2640   -3.5740 h5        1 4TR      0.082100
     39 H15         1.6790    1.2230   -0.4620 h5        1 4TR      0.082100
     40 C8         -2.7200    0.3830   -5.6820 cg        1 4TR      0.229800
@<TRIPOS>BOND
     1    1    2 2   
     2    1    3 2   
     3    1    4 1   
     4    1    5 1   
     5    4    6 1   
     6    5   27 1   
     7    5   28 1   
     8    6    7 ar  
     9    6   11 ar  
    10    7    8 ar  
    11    7   29 1   
    12    8    9 ar  
    13    8   30 1   
    14    9   10 ar  
    15    9   12 1   
    16   10   11 ar  
    17   10   31 1   
    18   11   26 1   
    19   12   20 1   
    20   12   32 1   
    21   12   33 1   
    22   13   40 3   
    23   14   15 ar  
    24   14   19 ar  
    25   14   40 1   
    26   15   16 ar  
    27   15   34 1   
    28   16   17 ar  
    29   16   35 1   
    30   17   18 ar  
    31   17   20 1   
    32   18   19 ar  
    33   18   36 1   
    34   19   37 1   
    35   20   24 1   
    36   21   22 1   
    37   21   25 2   
    38   22   23 2   
    39   23   24 1   
    40   23   38 1   
    41   24   25 1   
    42   25   39 1   
@<TRIPOS>SUBSTRUCTURE
     1 4TR         1 TEMP              0 ****  ****    0 ROOT
