@<TRIPOS>MOLECULE
4TT
   30    33     1     0     0
SMALL
bcc


@<TRIPOS>ATOM
      1 C5          0.0090    0.0350   -0.0250 ca        1 4TT     -0.092800
      2 C6         -0.6590    0.1430   -2.5290 c3        1 4TT     -0.014200
      3 C7         -3.7920   -0.0430   -2.5420 cc        1 4TT     -0.214600
      4 C10         1.4030    0.0520    0.0090 ca        1 4TT     -0.081000
      5 C13        -5.2390    0.0220   -2.6150 cc        1 4TT      0.291200
      6 C15        -0.0730   -0.0890    2.4470 ca        1 4TT     -0.144000
      7 C17         1.3150   -0.0780    2.4390 ca        1 4TT     -0.108000
      8 N4         -2.1050    0.0390    0.9190 na        1 4TT     -0.182400
      9 C9         -0.7330   -0.0300    1.2110 ca        1 4TT     -0.042200
     10 C16         2.0430   -0.0060    1.2400 ca        1 4TT     -0.155000
     11 C1         -2.2330    0.0320   -0.4940 cd        1 4TT     -0.002300
     12 C3         -3.5060    0.0510   -1.1630 cd        1 4TT     -0.049100
     13 N8         -4.7540    0.1450   -0.5130 na        1 4TT     -0.025600
     14 N14        -5.7690    0.1550   -1.3740 nd        1 4TT     -0.502800
     15 C2         -0.9710    0.0700   -1.0950 cc        1 4TT     -0.083400
     16 C11        -1.5360   -0.7520   -3.3850 c3        1 4TT     -0.075400
     17 C12        -2.8930   -0.1520   -3.6930 c3        1 4TT     -0.002100
     18 H6         -0.7560    1.2090   -2.8750 hc        1 4TT      0.053200
     19 H6A         0.4160   -0.1550   -2.6790 hc        1 4TT      0.053200
     20 H10         1.9790    0.1120   -0.9250 ha        1 4TT      0.135000
     21 H13        -5.8570   -0.0270   -3.5110 h4        1 4TT      0.044100
     22 H15        -0.6350   -0.1400    3.3890 ha        1 4TT      0.135000
     23 H17         1.8600   -0.1260    3.3930 ha        1 4TT      0.131000
     24 HN4        -2.7840   -0.3670    1.5100 hn        1 4TT      0.281700
     25 H16         3.1430    0.0040    1.2830 ha        1 4TT      0.132000
     26 HN8        -4.9050    0.3730    0.4410 hn        1 4TT      0.317700
     27 H11        -1.0080   -0.9360   -4.3590 hc        1 4TT      0.048200
     28 H11A       -1.6670   -1.7460   -2.8820 hc        1 4TT      0.048200
     29 H12        -2.7530    0.8730   -4.1390 hc        1 4TT      0.051200
     30 H12A       -3.3920   -0.7840   -4.4800 hc        1 4TT      0.051200
@<TRIPOS>BOND
     1    1    4 ar  
     2    1    9 ar  
     3    1   15 1   
     4    2   15 1   
     5    2   16 1   
     6    2   18 1   
     7    2   19 1   
     8    3    5 1   
     9    3   12 2   
    10    3   17 1   
    11    4   10 ar  
    12    4   20 1   
    13    5   14 2   
    14    5   21 1   
    15    6    7 ar  
    16    6    9 ar  
    17    6   22 1   
    18    7   10 ar  
    19    7   23 1   
    20    8    9 1   
    21    8   11 1   
    22    8   24 1   
    23   10   25 1   
    24   11   12 1   
    25   11   15 2   
    26   12   13 1   
    27   13   14 1   
    28   13   26 1   
    29   16   17 1   
    30   16   27 1   
    31   16   28 1   
    32   17   29 1   
    33   17   30 1   
@<TRIPOS>SUBSTRUCTURE
     1 4TT         1 TEMP              0 ****  ****    0 ROOT
