@<TRIPOS>MOLECULE
4TT
   30    24     1     0     0
SMALL
bcc


@<TRIPOS>ATOM
      1 C5          1.2230    0.2980    0.7880 c1        1 4TT     -0.081000
      2 C6          0.3670    1.2890   -1.4140 c3        1 4TT     -0.097000
      3 C7         -1.2350   -1.1140   -1.4930 c1        1 4TT     -0.142000
      4 C10         2.6270    0.2980    0.7880 c1        1 4TT     -0.122000
      5 C13        -1.6900   -2.4230   -1.5980 c1        1 4TT     -0.093500
      6 C15         1.2390    0.2980    3.1960 c1        1 4TT     -0.122000
      7 C17         2.6270    0.2980    3.1950 c1        1 4TT     -0.122000
      8 N4         -0.8220    0.2980    1.6920 n2        1 4TT     -0.205000
      9 C9          0.5360    0.2980    1.9800 c1        1 4TT      0.003000
     10 C16         3.3220    0.2980    1.9900 c1        1 4TT     -0.122000
     11 C1         -0.9690    0.2980    0.3150 c1        1 4TT      0.013000
     12 C3         -1.8680   -0.5440   -0.4310 c1        1 4TT     -0.093500
     13 N8         -2.7140   -1.4720    0.1130 n2        1 4TT     -0.120000
     14 N14        -2.5980   -2.6330   -0.6150 n2        1 4TT     -0.120000
     15 C2          0.2880    0.2980   -0.2480 c1        1 4TT     -0.091000
     16 C11        -0.8920    1.2490   -2.2380 c3        1 4TT     -0.154000
     17 C12        -1.1940   -0.1550   -2.6880 c2        1 4TT     -0.088000
     18 H6          0.4920    2.1900   -1.0610 hc        1 4TT      0.092500
     19 H6A         1.1280    1.0580   -1.9800 hc        1 4TT      0.092500
     20 H10         3.1150    0.2980   -0.0570 ha        1 4TT      0.133250
     21 H13        -1.4080   -3.0760   -2.2670 DU        1 4TT      0.227000
     22 H15         0.7510    0.2980    4.0410 ha        1 4TT      0.133250
     23 H17         3.1160    0.2980    4.0400 ha        1 4TT      0.133250
     24 HN4        -1.4980    0.3170    2.3030 DU        1 4TT      0.227000
     25 H16         4.2980    0.2980    1.9900 ha        1 4TT      0.133250
     26 HN8        -3.2600   -1.3430    0.8330 DU        1 4TT      0.227000
     27 H11        -0.7810    1.8210   -3.0210 hc        1 4TT      0.087500
     28 H11A       -1.6370    1.5810   -1.7010 hc        1 4TT      0.087500
     29 H12        -0.5020   -0.4480   -3.3110 ha        1 4TT      0.090500
     30 H12A       -2.0590   -0.1680   -3.1400 ha        1 4TT      0.090500
@<TRIPOS>BOND
     1    1    9 1   
     2    2   15 1   
     3    2   16 1   
     4    2   18 1   
     5    2   19 1   
     6    3    5 1   
     7    3   12 1   
     8    4   10 1   
     9    4   20 1   
    10    5   14 1   
    11    6    7 1   
    12    6   22 1   
    13    7   23 1   
    14    8    9 1   
    15    8   11 1   
    16   10   25 1   
    17   11   15 1   
    18   12   13 1   
    19   13   14 1   
    20   16   17 1   
    21   16   27 1   
    22   16   28 1   
    23   17   29 1   
    24   17   30 1   
@<TRIPOS>SUBSTRUCTURE
     1 4TT         1 TEMP              0 ****  ****    0 ROOT
