@<TRIPOS>MOLECULE
4TT
   30    33     1     0     0
SMALL
bcc


@<TRIPOS>ATOM
      1 C5         -1.8400   -0.4760    0.0850 ca        1 4TT     -0.092800
      2 C6          0.1400   -2.1380    0.2960 c3        1 4TT     -0.014200
      3 C7          2.7180   -0.3640    0.0510 cc        1 4TT     -0.214600
      4 C10        -3.0020   -1.2440    0.1280 ca        1 4TT     -0.081000
      5 C13         3.9450    0.4070    0.0920 cc        1 4TT      0.291200
      6 C15        -3.1870    1.5890   -0.1550 ca        1 4TT     -0.144000
      7 C17        -4.3200    0.7880   -0.1170 ca        1 4TT     -0.108000
      8 N4         -0.6470    1.5070    0.0050 na        1 4TT     -0.182400
      9 C9         -1.9390    0.9580   -0.0520 ca        1 4TT     -0.042200
     10 C16        -4.2310   -0.6070    0.0240 ca        1 4TT     -0.155000
     11 C1          0.2670    0.4230    0.0610 cd        1 4TT     -0.002300
     12 C3          1.6930    0.6050    0.0860 cd        1 4TT     -0.049100
     13 N8          2.3430    1.8560    0.1260 na        1 4TT     -0.025600
     14 N14         3.6680    1.7330    0.1560 nd        1 4TT     -0.502800
     15 C2         -0.4250   -0.7890    0.1500 cc        1 4TT     -0.083400
     16 C11         1.3590   -2.3800   -0.5750 c3        1 4TT     -0.075400
     17 C12         2.6410   -1.8270    0.0130 c3        1 4TT     -0.002100
     18 H6          0.4060   -2.3130    1.3750 hc        1 4TT      0.053200
     19 H6A        -0.6520   -2.8900    0.0260 hc        1 4TT      0.053200
     20 H10        -2.9400   -2.3360    0.2420 ha        1 4TT      0.135000
     21 H13         4.9650    0.0250    0.0730 h4        1 4TT      0.044100
     22 H15        -3.2650    2.6790   -0.2600 ha        1 4TT      0.135000
     23 H17        -5.3130    1.2560   -0.1990 ha        1 4TT      0.131000
     24 HN4        -0.4250    2.3600   -0.4420 hn        1 4TT      0.281700
     25 H16        -5.1570   -1.2000    0.0530 ha        1 4TT      0.132000
     26 HN8         1.9180    2.7350    0.3070 hn        1 4TT      0.317700
     27 H11         1.4860   -3.4890   -0.7030 hc        1 4TT      0.048200
     28 H11A        1.1890   -1.9420   -1.5930 hc        1 4TT      0.048200
     29 H12         3.5070   -2.2160   -0.5920 hc        1 4TT      0.051200
     30 H12A        2.7700   -2.2210    1.0600 hc        1 4TT      0.051200
@<TRIPOS>BOND
     1    1    4 ar  
     2    1    9 ar  
     3    1   15 1   
     4    2   15 1   
     5    2   16 1   
     6    2   18 1   
     7    2   19 1   
     8    3    5 1   
     9    3   12 2   
    10    3   17 1   
    11    4   10 ar  
    12    4   20 1   
    13    5   14 2   
    14    5   21 1   
    15    6    7 ar  
    16    6    9 ar  
    17    6   22 1   
    18    7   10 ar  
    19    7   23 1   
    20    8    9 1   
    21    8   11 1   
    22    8   24 1   
    23   10   25 1   
    24   11   12 1   
    25   11   15 2   
    26   12   13 1   
    27   13   14 1   
    28   13   26 1   
    29   16   17 1   
    30   16   27 1   
    31   16   28 1   
    32   17   29 1   
    33   17   30 1   
@<TRIPOS>SUBSTRUCTURE
     1 4TT         1 TEMP              0 ****  ****    0 ROOT
