@<TRIPOS>MOLECULE
4TV
   54    58     1     0     0
SMALL
bcc


@<TRIPOS>ATOM
      1 C1         -0.0020    0.0240   -0.0550 c3        1 4TV      0.040600
      2 C3          2.3940    0.0360    0.7050 cc        1 4TV     -0.128300
      3 C4          3.6400   -0.1360    0.0710 cd        1 4TV     -0.215300
      4 C5          3.3020   -0.3540   -1.3250 cd        1 4TV      0.316200
      5 C7          4.9500   -0.1050    0.6590 ca        1 4TV      0.025000
      6 C8          5.1140   -0.1970    2.0510 ca        1 4TV     -0.133000
      7 C11         7.3640    0.0510    0.4230 ca        1 4TV     -0.099000
      8 C12         6.0940    0.0200   -0.1450 ca        1 4TV     -0.133000
      9 C16        11.2080    0.2890    3.8280 ca        1 4TV      0.401200
     10 C17        11.1200   -0.6900    2.8180 ca        1 4TV     -0.131900
     11 C19         9.9180   -0.8420    2.0830 ca        1 4TV      0.163600
     12 C21         9.6260   -3.1710    1.4750 c3        1 4TV      0.187800
     13 C23        10.1060   -3.9610   -0.8770 c3        1 4TV     -0.118000
     14 C24        11.5060   -4.5680   -0.6620 c3        1 4TV     -0.092400
     15 C27         9.5090   -4.7880   -2.0370 c         1 4TV      0.698500
     16 O28         8.3890   -4.6320   -2.5470 o         1 4TV     -0.626500
     17 C30        10.5650   -1.5900   -0.1370 c3        1 4TV      0.187800
     18 N2          1.4170   -0.0760   -0.2890 na        1 4TV      0.086400
     19 N6          1.9600   -0.3130   -1.4980 nc        1 4TV     -0.508800
     20 C9          6.3820   -0.1640    2.6190 ca        1 4TV     -0.099000
     21 C10         7.5230   -0.0440    1.8110 cp        1 4TV     -0.044000
     22 C13         8.8410    0.0110    2.4410 cp        1 4TV     -0.115300
     23 C14         9.0410    0.9520    3.4780 ca        1 4TV      0.397200
     24 N15        10.1900    1.1000    4.1570 nb        1 4TV     -0.653000
     25 N20         9.7260   -1.7870    1.0350 nh        1 4TV     -0.650000
     26 C22         9.2120   -4.1120    0.3450 c3        1 4TV     -0.067900
     27 C25        11.6460   -5.7160   -1.6870 c3        1 4TV      0.094000
     28 N26        10.4180   -5.7500   -2.4410 n         1 4TV     -0.588900
     29 C29        10.1630   -2.4990   -1.2970 c3        1 4TV     -0.067900
     30 H1         -0.1710    0.3040    1.0180 h1        1 4TV      0.058033
     31 H2         -0.4990   -0.9600   -0.2690 h1        1 4TV      0.058033
     32 H3         -0.4490    0.8090   -0.7220 h1        1 4TV      0.058033
     33 H4          2.1460    0.2300    1.7470 h4        1 4TV      0.175000
     34 H5          3.9870   -0.5390   -2.1530 h4        1 4TV      0.048100
     35 H6          4.2300   -0.3020    2.6980 ha        1 4TV      0.132000
     36 H7          8.2480    0.1450   -0.2260 ha        1 4TV      0.135500
     37 H8          5.9850    0.0960   -1.2380 ha        1 4TV      0.132000
     38 H9         12.1430    0.4230    4.4030 h4        1 4TV      0.036100
     39 H10         8.8450   -3.2160    2.2850 h1        1 4TV      0.040450
     40 H11        10.6010   -3.5390    1.9130 h1        1 4TV      0.040450
     41 H12        11.6160   -4.9630    0.3770 hc        1 4TV      0.059200
     42 H13        12.3040   -3.8040   -0.8280 hc        1 4TV      0.059200
     43 H14        10.4520   -0.5170   -0.4620 h1        1 4TV      0.040450
     44 H15        11.6580   -1.7670    0.0900 h1        1 4TV      0.040450
     45 H16         6.4940   -0.2400    3.7120 ha        1 4TV      0.135500
     46 H17         8.2160    1.6280    3.7710 h4        1 4TV      0.033100
     47 H18         8.1520   -3.9000    0.0390 hc        1 4TV      0.065700
     48 H19         9.2580   -5.1630    0.7310 hc        1 4TV      0.065700
     49 H20        11.8120   -6.6980   -1.1650 h1        1 4TV      0.040700
     50 H21        12.5200   -5.5350   -2.3710 h1        1 4TV      0.040700
     51 H22        10.2560   -6.4010   -3.1640 hn        1 4TV      0.333500
     52 H23         9.1510   -2.2020   -1.6850 hc        1 4TV      0.065700
     53 H24        10.9060   -2.3610   -2.1240 hc        1 4TV      0.065700
     54 CL1        12.4840   -1.6630    2.5430 cl        1 4TV     -0.083400
@<TRIPOS>BOND
     1    1   18 1   
     2    1   30 1   
     3    1   31 1   
     4    1   32 1   
     5    2    3 2   
     6    2   18 1   
     7    2   33 1   
     8    3    4 1   
     9    3    5 1   
    10    4   19 2   
    11    4   34 1   
    12    5    6 ar  
    13    5    8 ar  
    14    6   20 ar  
    15    6   35 1   
    16    7    8 ar  
    17    7   21 ar  
    18    7   36 1   
    19    8   37 1   
    20    9   10 ar  
    21    9   24 ar  
    22    9   38 1   
    23   10   11 ar  
    24   10   54 1   
    25   11   22 ar  
    26   11   25 1   
    27   12   25 1   
    28   12   26 1   
    29   12   39 1   
    30   12   40 1   
    31   13   14 1   
    32   13   15 1   
    33   13   26 1   
    34   13   29 1   
    35   14   27 1   
    36   14   41 1   
    37   14   42 1   
    38   15   16 2   
    39   15   28 1   
    40   17   25 1   
    41   17   29 1   
    42   17   43 1   
    43   17   44 1   
    44   18   19 1   
    45   20   21 ar  
    46   20   45 1   
    47   21   22 1   
    48   22   23 ar  
    49   23   24 ar  
    50   23   46 1   
    51   26   47 1   
    52   26   48 1   
    53   27   28 1   
    54   27   49 1   
    55   27   50 1   
    56   28   51 1   
    57   29   52 1   
    58   29   53 1   
@<TRIPOS>SUBSTRUCTURE
     1 4TV         1 TEMP              0 ****  ****    0 ROOT
