@<TRIPOS>MOLECULE
4TV
   54    53     1     0     0
SMALL
bcc


@<TRIPOS>ATOM
      1 C1         -1.7830    1.8960    0.8060 c3        1 4TV     -0.174000
      2 C3          1.1770    0.2200    1.4340 c1        1 4TV      0.204500
      3 C4          1.9790   -0.4350    0.6200 c2        1 4TV     -0.419000
      4 C5          0.1270    0.8380   -1.8460 c1        1 4TV      0.081000
      5 C7          3.1740   -1.1870    0.9490 c2        1 4TV     -0.240000
      6 C8          3.4680   -1.4320    2.3560 c2        1 4TV     -0.419000
      7 C11         7.3820   -1.1660    0.1730 c2        1 4TV     -0.187000
      8 C12         3.9800   -1.6610   -0.0040 c1        1 4TV      0.240000
      9 C16        10.9380    0.8840    3.3380 c1        1 4TV      0.054000
     10 C17        11.2870   -0.2170    2.3680 c3        1 4TV     -0.170000
     11 C19        10.1250   -0.9440    1.7320 c2        1 4TV      0.114000
     12 C21         9.8900   -3.2770    0.9700 c3        1 4TV     -0.096000
     13 C23        11.4130   -4.0670   -0.8920 c3        1 4TV     -0.091000
     14 C24        12.5090   -4.7210   -0.0290 c3        1 4TV     -0.171000
     15 C27        11.4220   -4.8840   -2.2020 c2        1 4TV      0.307000
     16 O28        10.6900   -4.6870   -3.1840 o         1 4TV     -0.353000
     17 C30        11.3180   -1.6250   -0.1820 c1        1 4TV     -0.091000
     18 N2         -1.4240    2.3340   -0.5490 n7        1 4TV     -0.100000
     19 N6         -0.5450    1.5600   -1.1890 n2        1 4TV     -0.277000
     20 C9          4.6000   -1.2000    2.9870 c1        1 4TV      0.204500
     21 C10         7.6170   -1.0840    1.4830 c2        1 4TV     -0.159000
     22 C13         8.8460   -0.5890    2.0810 c2        1 4TV     -0.175000
     23 C14         8.6840    0.3490    3.1930 c2        1 4TV      0.106000
     24 N15         9.6630    1.0110    3.7650 n2        1 4TV     -0.237000
     25 N20        10.4540   -1.9420    0.7740 n3        1 4TV     -0.139000
     26 C22        10.0340   -4.1720   -0.2570 c3        1 4TV     -0.155000
     27 C25        13.1120   -5.8580   -0.8840 c3        1 4TV     -0.024000
     28 N26        12.3680   -5.8900   -2.1190 ns        1 4TV     -0.391000
     29 C29        11.7260   -2.6090   -1.2120 c3        1 4TV     -0.196000
     30 H1         -0.9050    1.6930    1.4800 h1        1 4TV      0.101333
     31 H2         -2.4010    0.9630    0.7340 h1        1 4TV      0.101333
     32 H3         -2.4100    2.7140    1.2460 h1        1 4TV      0.101333
     33 H4         -1.0170    3.2690   -0.4840 hn        1 4TV      0.167000
     34 H5          1.7040   -0.4010   -0.4660 ha        1 4TV      0.215000
     35 H6          2.6220   -1.8590    2.9410 ha        1 4TV      0.215000
     36 H7          6.4140   -1.5150   -0.2220 ha        1 4TV      0.131000
     37 H8          8.1210   -0.8860   -0.5900 ha        1 4TV      0.131000
     38 H9         11.8970    0.2640    1.5420 h1        1 4TV      0.207000
     39 H10        10.4170   -3.7510    1.8470 h1        1 4TV      0.103500
     40 H11         8.7960   -3.1870    1.2250 h1        1 4TV      0.103500
     41 H12        13.3000   -3.9810    0.2470 hc        1 4TV      0.102500
     42 H13        12.0800   -5.1370    0.9150 hc        1 4TV      0.102500
     43 H14        14.3730   -1.8080    0.4830 ha        1 4TV      0.001000
     44 H15        13.7580   -1.5350    0.5610 ha        1 4TV      0.001000
     45 H16         6.8330   -1.3560    2.2180 ha        1 4TV      0.140000
     46 H17         7.6510    0.5150    3.5660 h4        1 4TV      0.170000
     47 H18         9.2670   -3.8920   -1.0290 hc        1 4TV      0.108500
     48 H19         9.8320   -5.2290    0.0570 hc        1 4TV      0.108500
     49 H20        12.6190   -6.4760   -2.8720 hn        1 4TV      0.248000
     50 H21        14.2030   -5.6700   -1.0830 h1        1 4TV      0.083000
     51 H22        13.0200   -6.8470   -0.3550 h1        1 4TV      0.083000
     52 H23        11.2020   -2.3130   -2.1660 hc        1 4TV      0.138500
     53 H24        12.8290   -2.4720   -1.3820 hc        1 4TV      0.138500
     54 Cl1        12.3620   -1.3470    3.1820 cl        1 4TV     -0.045000
@<TRIPOS>BOND
     1    1   18 1   
     2    1   30 1   
     3    1   31 1   
     4    1   32 1   
     5    2    3 1   
     6    3    5 1   
     7    3   34 1   
     8    4   19 1   
     9    5    6 1   
    10    5    8 1   
    11    6   20 1   
    12    6   35 1   
    13    7   21 1   
    14    7   36 1   
    15    7   37 1   
    16    9   10 1   
    17    9   24 1   
    18   10   11 1   
    19   10   38 1   
    20   10   54 1   
    21   11   22 1   
    22   11   25 1   
    23   12   25 1   
    24   12   26 1   
    25   12   39 1   
    26   12   40 1   
    27   13   14 1   
    28   13   15 1   
    29   13   26 1   
    30   13   29 1   
    31   14   27 1   
    32   14   41 1   
    33   14   42 1   
    34   15   16 1   
    35   15   28 1   
    36   17   25 1   
    37   17   29 1   
    38   18   19 1   
    39   18   33 1   
    40   21   22 1   
    41   21   45 1   
    42   22   23 1   
    43   23   24 1   
    44   23   46 1   
    45   26   47 1   
    46   26   48 1   
    47   27   28 1   
    48   27   50 1   
    49   27   51 1   
    50   28   49 1   
    51   29   52 1   
    52   29   53 1   
    53   43   44 1   
@<TRIPOS>SUBSTRUCTURE
     1 4TV         1 TEMP              0 ****  ****    0 ROOT
