@<TRIPOS>MOLECULE
4TW
   43    45     1     0     0
SMALL
bcc


@<TRIPOS>ATOM
      1 C1          2.0400    0.5190    1.4970 c3        1 4TW     -0.373300
      2 S2          3.3490    1.5350    1.1270 s6        1 4TW      1.470900
      3 O3          3.6620    2.2730    2.2810 o         1 4TW     -0.645800
      4 O4          4.3760    0.7540    0.5630 o         1 4TW     -0.645800
      5 N5          2.7580    2.4850   -0.0620 nu        1 4TW     -0.780500
      6 C6          1.8150    3.5190    0.0340 ca        1 4TW      0.171600
      7 C7          1.6040    4.2180    1.2440 ca        1 4TW     -0.176000
      8 C8          0.6520    5.2310    1.3030 ca        1 4TW     -0.094000
      9 C9         -0.0920    5.5830    0.1800 ca        1 4TW     -0.161000
     10 C10         0.1150    4.9100   -1.0290 ca        1 4TW     -0.073300
     11 C11         1.0580    3.8840   -1.1030 ca        1 4TW     -0.158000
     12 C12        -0.6830    5.2690   -2.2320 c3        1 4TW     -0.108100
     13 C13        -0.0140    6.2950   -3.1310 c         1 4TW      0.657100
     14 O14        -0.1000    6.2120   -4.3710 o         1 4TW     -0.592100
     15 N15         0.6440    7.3500   -2.5190 ns        1 4TW     -0.434100
     16 C16         1.3210    8.3540   -3.2000 cc        1 4TW      0.015500
     17 C17         2.0770    9.3500   -2.5810 cd        1 4TW     -0.202000
     18 C18         2.6410   10.2530   -3.5350 cd        1 4TW     -0.062000
     19 C19         2.2890    9.9010   -4.8290 cc        1 4TW     -0.210100
     20 S20         1.3280    8.5580   -4.8880 ss        1 4TW      0.149200
     21 C21         3.4710   11.3820   -3.1710 ca        1 4TW      0.060000
     22 C22         3.3360   12.0110   -1.9230 ca        1 4TW     -0.259300
     23 C23         4.1630   13.1050   -1.6230 ca        1 4TW      0.420200
     24 N24         5.0930   13.6070   -2.4530 nb        1 4TW     -0.689000
     25 C25         5.2150   12.9870   -3.6640 ca        1 4TW      0.609500
     26 C26         4.4310   11.8780   -4.0650 ca        1 4TW     -0.268300
     27 F27         6.1480   13.4760   -4.5200 f         1 4TW     -0.224200
     28 H1          1.1050    1.0630    1.7750 h1        1 4TW      0.119700
     29 H2          2.2890   -0.1320    2.3740 h1        1 4TW      0.119700
     30 H3          1.7700   -0.1760    0.6640 h1        1 4TW      0.119700
     31 H4          3.0640    2.3260   -0.9990 hn        1 4TW      0.459800
     32 H5          2.1960    3.9820    2.1460 ha        1 4TW      0.175000
     33 H6          0.4930    5.7630    2.2550 ha        1 4TW      0.144000
     34 H7         -0.8460    6.3810    0.2460 ha        1 4TW      0.138000
     35 H8          1.2100    3.3640   -2.0620 ha        1 4TW      0.143000
     36 H9         -1.6820    5.6860   -1.9280 hc        1 4TW      0.089700
     37 H10        -0.8730    4.3560   -2.8600 hc        1 4TW      0.089700
     38 H11         0.7520    7.3350   -1.5280 hn        1 4TW      0.332500
     39 H12         2.2400    9.4390   -1.5050 ha        1 4TW      0.155000
     40 H13         2.5950   10.4430   -5.7230 h4        1 4TW      0.178000
     41 H14         2.5920   11.6630   -1.1950 ha        1 4TW      0.149000
     42 H15         4.0810   13.6230   -0.6490 h4        1 4TW      0.028100
     43 H16         4.5870   11.4230   -5.0510 ha        1 4TW      0.160000
@<TRIPOS>BOND
     1    1    2 1   
     2    1   28 1   
     3    1   29 1   
     4    1   30 1   
     5    2    3 2   
     6    2    4 2   
     7    2    5 1   
     8    5    6 1   
     9    5   31 1   
    10    6    7 ar  
    11    6   11 ar  
    12    7    8 ar  
    13    7   32 1   
    14    8    9 ar  
    15    8   33 1   
    16    9   10 ar  
    17    9   34 1   
    18   10   11 ar  
    19   10   12 1   
    20   11   35 1   
    21   12   13 1   
    22   12   36 1   
    23   12   37 1   
    24   13   14 2   
    25   13   15 1   
    26   15   16 1   
    27   15   38 1   
    28   16   17 2   
    29   16   20 1   
    30   17   18 1   
    31   17   39 1   
    32   18   19 2   
    33   18   21 1   
    34   19   20 1   
    35   19   40 1   
    36   21   22 ar  
    37   21   26 ar  
    38   22   23 ar  
    39   22   41 1   
    40   23   24 ar  
    41   23   42 1   
    42   24   25 ar  
    43   25   26 ar  
    44   25   27 1   
    45   26   43 1   
@<TRIPOS>SUBSTRUCTURE
     1 4TW         1 TEMP              0 ****  ****    0 ROOT
