@<TRIPOS>MOLECULE
4TW
   43    45     1     0     0
SMALL
bcc


@<TRIPOS>ATOM
      1 C1          2.1240    0.5010    1.4500 c3        1 4TW     -0.373300
      2 S2          3.4220    1.5070    1.0180 s6        1 4TW      1.470900
      3 O3          3.8030    2.2340    2.1580 o         1 4TW     -0.645800
      4 O4          4.4090    0.7200    0.3940 o         1 4TW     -0.645800
      5 N5          2.7780    2.4710   -0.1320 nh        1 4TW     -0.780500
      6 C6          1.8520    3.5140    0.0220 ca        1 4TW      0.171600
      7 C7          1.7120    4.2060    1.2460 ca        1 4TW     -0.176000
      8 C8          0.7760    5.2280    1.3630 ca        1 4TW     -0.094000
      9 C9         -0.0230    5.5960    0.2840 ca        1 4TW     -0.161000
     10 C10         0.1130    4.9310   -0.9390 ca        1 4TW     -0.073300
     11 C11         1.0400    3.8960   -1.0710 ca        1 4TW     -0.158000
     12 C12        -0.7430    5.3070   -2.0950 c3        1 4TW     -0.108100
     13 C13        -0.1120    6.3330   -3.0210 c         1 4TW      0.657100
     14 O14        -0.2670    6.2620   -4.2560 o         1 4TW     -0.592100
     15 N15         0.5910    7.3750   -2.4380 n         1 4TW     -0.434100
     16 C16         1.2420    8.3760   -3.1480 cc        1 4TW      0.015500
     17 C17         2.0460    9.3560   -2.5630 cd        1 4TW     -0.202000
     18 C18         2.5680   10.2600   -3.5390 cd        1 4TW     -0.062000
     19 C19         2.1390    9.9250   -4.8140 cc        1 4TW     -0.210100
     20 S20         1.1580    8.5960   -4.8310 ss        1 4TW      0.149200
     21 C21         3.4320   11.3750   -3.2120 ca        1 4TW      0.060000
     22 C22         3.3760   11.9930   -1.9530 ca        1 4TW     -0.259300
     23 C23         4.2340   13.0730   -1.6890 ca        1 4TW      0.420200
     24 N24         5.1220   13.5710   -2.5660 nb        1 4TW     -0.689000
     25 C25         5.1680   12.9620   -3.7870 ca        1 4TW      0.609500
     26 C26         4.3470   11.8670   -4.1540 ca        1 4TW     -0.268300
     27 F27         6.0580   13.4470   -4.6900 f         1 4TW     -0.224200
     28 H1          1.8030   -0.1850    0.6290 h1        1 4TW      0.119700
     29 H2          2.4130   -0.1580    2.3090 h1        1 4TW      0.119700
     30 H3          1.2110    1.0530    1.7820 h1        1 4TW      0.119700
     31 H4          3.0320    2.3170   -1.0840 hn        1 4TW      0.459800
     32 H5          2.3480    3.9570    2.1140 ha        1 4TW      0.175000
     33 H6          0.6730    5.7540    2.3260 ha        1 4TW      0.144000
     34 H7         -0.7640    6.4010    0.3950 ha        1 4TW      0.138000
     35 H8          1.1360    3.3810   -2.0400 ha        1 4TW      0.143000
     36 H9         -0.9760    4.4010   -2.7200 hc        1 4TW      0.089700
     37 H10        -1.7200    5.7320   -1.7370 hc        1 4TW      0.089700
     38 H11         0.7530    7.3500   -1.4550 hn        1 4TW      0.332500
     39 H12         2.2700    9.4320   -1.4970 ha        1 4TW      0.155000
     40 H13         2.4030   10.4720   -5.7200 h4        1 4TW      0.178000
     41 H14         2.6700   11.6480   -1.1870 ha        1 4TW      0.149000
     42 H15         4.2140   13.5820   -0.7080 h4        1 4TW      0.028100
     43 H16         4.4410   11.4200   -5.1520 ha        1 4TW      0.160000
@<TRIPOS>BOND
     1    1    2 1   
     2    1   28 1   
     3    1   29 1   
     4    1   30 1   
     5    2    3 2   
     6    2    4 2   
     7    2    5 1   
     8    5    6 1   
     9    5   31 1   
    10    6    7 ar  
    11    6   11 ar  
    12    7    8 ar  
    13    7   32 1   
    14    8    9 ar  
    15    8   33 1   
    16    9   10 ar  
    17    9   34 1   
    18   10   11 ar  
    19   10   12 1   
    20   11   35 1   
    21   12   13 1   
    22   12   36 1   
    23   12   37 1   
    24   13   14 2   
    25   13   15 1   
    26   15   16 1   
    27   15   38 1   
    28   16   17 2   
    29   16   20 1   
    30   17   18 1   
    31   17   39 1   
    32   18   19 2   
    33   18   21 1   
    34   19   20 1   
    35   19   40 1   
    36   21   22 ar  
    37   21   26 ar  
    38   22   23 ar  
    39   22   41 1   
    40   23   24 ar  
    41   23   42 1   
    42   24   25 ar  
    43   25   26 ar  
    44   25   27 1   
    45   26   43 1   
@<TRIPOS>SUBSTRUCTURE
     1 4TW         1 TEMP              0 ****  ****    0 ROOT
