@<TRIPOS>MOLECULE
4TX
   39    39     1     0     0
SMALL
bcc


@<TRIPOS>ATOM
      1 C8          0.0420   -0.0040   -0.0120 c2        1 4TX     -0.235000
      2 C6         -2.7610    0.0600   -0.0890 c3        1 4TX     -0.030000
      3 C5         -4.2490    0.1030    0.2040 c3        1 4TX     -0.165000
      4 C1         -6.5240    0.1260   -0.9440 c3        1 4TX     -0.134000
      5 C9          1.3950   -0.0350    0.0400 c2        1 4TX     -0.040000
      6 C10         2.1010   -0.0180    1.3490 c3        1 4TX     -0.181000
      7 C11         1.2780    0.0340    2.5540 c1        1 4TX     -0.153000
      8 O          -6.4150    0.0660   -3.3780 o         1 4TX     -0.574000
      9 C          -7.1760    0.1070   -2.3720 c2        1 4TX      0.341000
     10 O1         -8.4370    0.1340   -2.4330 o         1 4TX     -0.574000
     11 C2         -6.9720    1.3950   -0.2450 c3        1 4TX     -0.183000
     12 C3         -7.0290   -1.0860   -0.1860 c3        1 4TX     -0.183000
     13 C4         -5.0130    0.0880   -1.1050 c3        1 4TX     -0.133000
     14 C7         -0.7400    0.0460    1.2060 c2        1 4TX      0.204000
     15 C12        -0.1130    0.0650    2.4580 c2        1 4TX     -0.230000
     16 C13        -0.9330    0.1170    3.6910 c3        1 4TX     -0.138000
     17 C14         2.2290   -0.0870   -1.1810 c3        1 4TX     -0.197000
     18 H13        -0.4830   -0.0180   -0.9800 ha        1 4TX      0.146000
     19 H12        -2.4830   -0.8800   -0.6310 h1        1 4TX      0.084000
     20 H11        -2.4400    0.9570   -0.6800 h1        1 4TX      0.084000
     21 H10        -4.5320   -0.7780    0.8350 hc        1 4TX      0.090000
     22 H9         -4.4890    1.0280    0.7890 hc        1 4TX      0.090000
     23 H14         2.7530   -0.9360    1.4310 hc        1 4TX      0.141000
     24 H15         2.7960    0.8720    1.3830 hc        1 4TX      0.141000
     25 H2         -6.5070    2.2880   -0.7270 hc        1 4TX      0.058333
     26 H3         -8.0830    1.4850   -0.3250 hc        1 4TX      0.058333
     27 H1         -6.6870    1.3850    0.8360 hc        1 4TX      0.058333
     28 H4         -6.7420   -1.0380    0.8930 hc        1 4TX      0.058333
     29 H5         -6.6060   -2.0220   -0.6240 hc        1 4TX      0.058333
     30 H6         -8.1430   -1.1280   -0.2630 hc        1 4TX      0.058333
     31 H7         -4.7470   -0.8340   -1.6870 hc        1 4TX      0.088500
     32 H8         -4.7060    0.9670   -1.7320 hc        1 4TX      0.088500
     33 H16        -1.6130   -0.7690    3.7430 hc        1 4TX      0.075000
     34 H18        -0.2770    0.1250    4.5950 hc        1 4TX      0.075000
     35 H17        -1.5700    1.0360    3.6950 hc        1 4TX      0.075000
     36 H19         1.6060   -0.0970   -2.1090 hc        1 4TX      0.088000
     37 H21         2.8630   -1.0090   -1.1710 hc        1 4TX      0.088000
     38 H20         2.9060    0.8020   -1.2190 hc        1 4TX      0.088000
     39 O2         -2.0950    0.0780    1.1930 os        1 4TX     -0.189000
@<TRIPOS>BOND
     1    1    5 1   
     2    1   14 1   
     3    1   18 1   
     4    2    3 1   
     5    2   19 1   
     6    2   20 1   
     7    2   39 1   
     8    3   13 1   
     9    3   21 1   
    10    3   22 1   
    11    4    9 1   
    12    4   11 1   
    13    4   12 1   
    14    4   13 1   
    15    5    6 1   
    16    5   17 1   
    17    6    7 1   
    18    6   23 1   
    19    6   24 1   
    20    7   15 1   
    21    8    9 1   
    22    9   10 1   
    23   11   25 1   
    24   11   26 1   
    25   11   27 1   
    26   12   28 1   
    27   12   29 1   
    28   12   30 1   
    29   13   31 1   
    30   13   32 1   
    31   14   15 1   
    32   14   39 1   
    33   15   16 1   
    34   16   33 1   
    35   16   34 1   
    36   16   35 1   
    37   17   36 1   
    38   17   37 1   
    39   17   38 1   
@<TRIPOS>SUBSTRUCTURE
     1 4TX         1 TEMP              0 ****  ****    0 ROOT
