@<TRIPOS>MOLECULE
4TZ
   41    43     1     0     0
SMALL
bcc


@<TRIPOS>ATOM
      1 S2         -0.3510    0.6430   -0.4420 s6        1 4TZ      1.572400
      2 O1          0.1020    1.7420   -1.1090 o         1 4TZ     -0.551800
      3 O2         -0.1760    0.3370    0.8730 o         1 4TZ     -0.551800
      4 O3         -0.2640   -0.7130   -1.3790 os        1 4TZ     -0.446800
      5 N1         -2.2060    0.7890   -0.5960 n4        1 4TZ     -0.796500
      6 N2          4.3300   -3.7190   -4.8240 nh        1 4TZ     -0.425300
      7 N3          3.3550   -3.3650   -5.7150 na        1 4TZ     -0.207500
      8 N4          2.3560   -2.3780   -7.4700 nc        1 4TZ     -0.341500
      9 N5          1.4320   -3.1040   -6.8550 nc        1 4TZ     -0.341500
     10 N6          4.5720  -10.3840   -3.2940 n1        1 4TZ     -0.318800
     11 C1          3.5430   -2.5040   -6.8300 cd        1 4TZ      0.365900
     12 C2          1.9810   -3.7250   -5.7850 cd        1 4TZ      0.365900
     13 C3          4.3180   -5.1370   -4.4830 ca        1 4TZ      0.054600
     14 C4          5.2370   -5.9660   -5.1510 ca        1 4TZ     -0.120000
     15 C5          5.3020   -7.3230   -4.8400 ca        1 4TZ     -0.087500
     16 C6          4.4490   -7.8670   -3.8720 ca        1 4TZ      0.016000
     17 C7          3.5220   -7.0450   -3.2140 ca        1 4TZ     -0.087500
     18 C8          3.4540   -5.6910   -3.5210 ca        1 4TZ     -0.120000
     19 C9          4.5170   -9.2520   -3.5550 cg        1 4TZ      0.211800
     20 C11         3.2210   -2.2710   -3.0130 ca        1 4TZ     -0.068300
     21 C12         2.7400   -2.7550   -1.7900 ca        1 4TZ     -0.099500
     22 C13         1.6030   -2.2030   -1.2040 ca        1 4TZ     -0.105500
     23 C14         0.9510   -1.1570   -1.8740 ca        1 4TZ      0.052100
     24 C15         1.4230   -0.6390   -3.0900 ca        1 4TZ     -0.105500
     25 C16         2.5670   -1.2040   -3.6470 ca        1 4TZ     -0.099500
     26 HN11       -2.5880    0.0390   -1.1770 hn        1 4TZ      0.475467
     27 HN12       -2.6640    0.7310    0.3150 hn        1 4TZ      0.475467
     28 H1          4.5060   -2.0600   -7.1020 h5        1 4TZ      0.081100
     29 H2          1.4980   -4.4240   -5.0980 h5        1 4TZ      0.081100
     30 H4          5.9100   -5.5530   -5.9200 ha        1 4TZ      0.149000
     31 H5          6.0270   -7.9680   -5.3630 ha        1 4TZ      0.159500
     32 H7          2.8440   -7.4750   -2.4600 ha        1 4TZ      0.159500
     33 H8          2.7190   -5.0560   -3.0020 ha        1 4TZ      0.149000
     34 H101        5.1160   -1.9950   -3.9650 h1        1 4TZ      0.090200
     35 H102        5.0300   -3.4420   -2.8550 h1        1 4TZ      0.090200
     36 H12         3.2640   -3.5800   -1.2770 ha        1 4TZ      0.170500
     37 H13         1.2130   -2.5910   -0.2510 ha        1 4TZ      0.165500
     38 H15         0.9000    0.1850   -3.5970 ha        1 4TZ      0.165500
     39 H16         2.9540   -0.8070   -4.6020 ha        1 4TZ      0.170500
     40 H131       -2.4780    1.6750   -1.0270 hn        1 4TZ      0.475467
     41 C10         4.4590   -2.8520   -3.6280 c3        1 4TZ      0.179100
@<TRIPOS>BOND
     1    1    2 2   
     2    1    3 2   
     3    1    4 1   
     4    1    5 1   
     5    4   23 1   
     6    5   26 1   
     7    5   27 1   
     8    5   40 1   
     9    6    7 1   
    10    6   13 1   
    11    6   41 1   
    12    7   11 1   
    13    7   12 1   
    14    8    9 1   
    15    8   11 2   
    16    9   12 2   
    17   10   19 3   
    18   11   28 1   
    19   12   29 1   
    20   13   14 ar  
    21   13   18 ar  
    22   14   15 ar  
    23   14   30 1   
    24   15   16 ar  
    25   15   31 1   
    26   16   17 ar  
    27   16   19 1   
    28   17   18 ar  
    29   17   32 1   
    30   18   33 1   
    31   20   21 ar  
    32   20   25 ar  
    33   20   41 1   
    34   21   22 ar  
    35   21   36 1   
    36   22   23 ar  
    37   22   37 1   
    38   23   24 ar  
    39   24   25 ar  
    40   24   38 1   
    41   25   39 1   
    42   34   41 1   
    43   35   41 1   
@<TRIPOS>SUBSTRUCTURE
     1 4TZ         1 TEMP              0 ****  ****    0 ROOT
