@<TRIPOS>MOLECULE
4TZ
   42    44     1     0     0
SMALL
bcc


@<TRIPOS>ATOM
      1 S2         -0.1140    0.9350   -0.5030 s6        1 4TZ      1.620400
      2 O1          0.2090    1.9040   -1.3980 o         1 4TZ     -0.537300
      3 O2          0.2920    0.7670    0.7800 o         1 4TZ     -0.537300
      4 O3         -0.0610   -0.5300   -1.2820 os        1 4TZ     -0.486800
      5 N1         -1.9520    1.0020   -0.3920 n4        1 4TZ     -0.808500
      6 N2          4.2180   -3.8130   -4.9570 n4        1 4TZ     -0.391100
      7 N3          3.1170   -3.5100   -5.7470 na        1 4TZ     -0.333500
      8 N4          1.7590   -2.4350   -7.1720 nc        1 4TZ     -0.272500
      9 N5          1.0420   -3.4030   -6.5850 nc        1 4TZ     -0.272500
     10 N6          4.6280  -10.4230   -3.1620 n1        1 4TZ     -0.229800
     11 C1          3.0160   -2.4420   -6.7100 cd        1 4TZ      0.405900
     12 C2          1.8000   -4.0830   -5.7150 cd        1 4TZ      0.405900
     13 C3          4.2780   -5.2510   -4.5620 ca        1 4TZ     -0.052400
     14 C4          5.1590   -6.0970   -5.2580 ca        1 4TZ     -0.104000
     15 C5          5.2500   -7.4370   -4.8870 ca        1 4TZ     -0.073000
     16 C6          4.4580   -7.9360   -3.8430 ca        1 4TZ      0.087000
     17 C7          3.5670   -7.0860   -3.1670 ca        1 4TZ     -0.073000
     18 C8          3.4680   -5.7460   -3.5260 ca        1 4TZ     -0.104000
     19 C9          4.5520   -9.3040   -3.4690 cg        1 4TZ      0.169800
     20 C11         3.2250   -2.2940   -3.1150 ca        1 4TZ     -0.134300
     21 C12         2.7710   -2.7620   -1.8750 ca        1 4TZ     -0.076500
     22 C13         1.6970   -2.1470   -1.2340 ca        1 4TZ     -0.114500
     23 C14         1.0790   -1.0550   -1.8610 ca        1 4TZ      0.133100
     24 C15         1.5220   -0.5620   -3.0980 ca        1 4TZ     -0.114500
     25 C16         2.6030   -1.1880   -3.7130 ca        1 4TZ     -0.076500
     26 HN11       -2.3370    1.8180   -0.8810 hn        1 4TZ      0.487467
     27 HN12       -2.3900    0.1730   -0.8080 hn        1 4TZ      0.487467
     28 H1          3.8540   -1.8040   -7.0160 h5        1 4TZ      0.104100
     29 H2          1.5260   -4.9520   -5.1030 h5        1 4TZ      0.104100
     30 H4          5.7830   -5.7330   -6.0930 ha        1 4TZ      0.163000
     31 H5          5.9460   -8.1060   -5.4260 ha        1 4TZ      0.191500
     32 H7          2.9380   -7.4840   -2.3510 ha        1 4TZ      0.191500
     33 H8          2.7600   -5.0910   -2.9930 ha        1 4TZ      0.163000
     34 H101        5.1100   -2.0630   -4.1070 hx        1 4TZ      0.121700
     35 H102        5.0030   -3.5240   -2.9880 hx        1 4TZ      0.121700
     36 H12         3.2730   -3.6100   -1.3770 ha        1 4TZ      0.165000
     37 H13         1.3330   -2.5170   -0.2610 ha        1 4TZ      0.184000
     38 H15         1.0310    0.3030   -3.5740 ha        1 4TZ      0.184000
     39 H16         2.9650   -0.7960   -4.6800 ha        1 4TZ      0.165000
     40 H131       -2.2740    1.0500    0.5810 hn        1 4TZ      0.487467
     41 H21         5.0500   -3.6570   -5.5710 hn        1 4TZ      0.471800
     42 C10         4.4380   -2.8950   -3.7380 c3        1 4TZ      0.176100
@<TRIPOS>BOND
     1    1    2 2   
     2    1    3 2   
     3    1    4 1   
     4    1    5 1   
     5    4   23 1   
     6    5   26 1   
     7    5   27 1   
     8    5   40 1   
     9    6    7 1   
    10    6   13 1   
    11    6   41 1   
    12    6   42 1   
    13    7   11 1   
    14    7   12 1   
    15    8    9 1   
    16    8   11 2   
    17    9   12 2   
    18   10   19 3   
    19   11   28 1   
    20   12   29 1   
    21   13   14 ar  
    22   13   18 ar  
    23   14   15 ar  
    24   14   30 1   
    25   15   16 ar  
    26   15   31 1   
    27   16   17 ar  
    28   16   19 1   
    29   17   18 ar  
    30   17   32 1   
    31   18   33 1   
    32   20   21 ar  
    33   20   25 ar  
    34   20   42 1   
    35   21   22 ar  
    36   21   36 1   
    37   22   23 ar  
    38   22   37 1   
    39   23   24 ar  
    40   24   25 ar  
    41   24   38 1   
    42   25   39 1   
    43   34   42 1   
    44   35   42 1   
@<TRIPOS>SUBSTRUCTURE
     1 4TZ         1 TEMP              0 ****  ****    0 ROOT
