@<TRIPOS>MOLECULE
4TZ
   40    42     1     0     0
SMALL
bcc


@<TRIPOS>ATOM
      1 S2         -1.4200    0.7040    4.9430 s6        1 4TZ      1.723400
      2 O1         -2.5310    0.1890    4.2910 o         1 4TZ     -0.636800
      3 O2         -1.4870    1.8550    5.7070 o         1 4TZ     -0.636800
      4 O3         -0.4100    1.2280    3.6700 os        1 4TZ     -0.485800
      5 N1         -0.5880   -0.4380    5.6520 n3        1 4TZ     -1.041700
      6 N2          1.4550   -0.9820   -2.1430 nh        1 4TZ     -0.443300
      7 N3          2.4260   -0.0240   -2.1910 na        1 4TZ     -0.198500
      8 N4          4.2760    1.0610   -2.8690 nc        1 4TZ     -0.349500
      9 N5          3.7360    1.7830   -1.8950 nc        1 4TZ     -0.349500
     10 N6         -4.5540    0.4280   -5.1040 n1        1 4TZ     -0.352800
     11 C1          3.5230   -0.0420   -3.0940 cd        1 4TZ      0.368900
     12 C2          2.6100    1.1770   -1.4510 cd        1 4TZ      0.368900
     13 C3          0.1680   -0.6120   -2.7110 ca        1 4TZ      0.092600
     14 C4         -0.6100   -1.6610   -3.2510 ca        1 4TZ     -0.139000
     15 C5         -1.8260   -1.3880   -3.8640 ca        1 4TZ     -0.079000
     16 C6         -2.2910   -0.0690   -3.9580 ca        1 4TZ     -0.020000
     17 C7         -1.5230    0.9760   -3.4300 ca        1 4TZ     -0.079000
     18 C8         -0.3060    0.7080   -2.8100 ca        1 4TZ     -0.139000
     19 C9         -3.5350    0.2050   -4.5880 cg        1 4TZ      0.229800
     20 C11         0.8460   -0.9070    0.3390 ca        1 4TZ     -0.162300
     21 C12        -0.5200   -0.8220    0.6320 ca        1 4TZ     -0.093000
     22 C13        -0.9650   -0.1320    1.7560 ca        1 4TZ     -0.169000
     23 C14        -0.0210    0.4770    2.6010 ca        1 4TZ      0.170100
     24 C15         1.3530    0.3960    2.3200 ca        1 4TZ     -0.169000
     25 C16         1.7750   -0.2950    1.1890 ca        1 4TZ     -0.093000
     26 HN11       -0.6700   -1.4030    5.4380 hn        1 4TZ      0.461300
     27 HN12        0.0910   -0.2710    6.3550 hn        1 4TZ      0.461300
     28 H1          3.6910   -0.8350   -3.8280 h5        1 4TZ      0.081600
     29 H2          1.9450    1.5070   -0.6470 h5        1 4TZ      0.081600
     30 H4         -0.2550   -2.7030   -3.2020 ha        1 4TZ      0.151500
     31 H5         -2.4230   -2.2130   -4.2840 ha        1 4TZ      0.152500
     32 H7         -1.8810    2.0150   -3.5020 ha        1 4TZ      0.152500
     33 H8          0.2740    1.5540   -2.4050 ha        1 4TZ      0.151500
     34 H101        2.3180   -2.1490   -0.6160 h1        1 4TZ      0.078700
     35 H102        0.5870   -2.5260   -1.0580 h1        1 4TZ      0.078700
     36 H12        -1.2550   -1.3020   -0.0330 ha        1 4TZ      0.144000
     37 H13        -2.0410   -0.0600    1.9850 ha        1 4TZ      0.165000
     38 H15         2.0760    0.8950    2.9820 ha        1 4TZ      0.165000
     39 H16         2.8510   -0.3600    0.9620 ha        1 4TZ      0.144000
     40 C10         1.3140   -1.6890   -0.8470 c3        1 4TZ      0.213100
@<TRIPOS>BOND
     1    1    2 2   
     2    1    3 2   
     3    1    4 1   
     4    1    5 1   
     5    4   23 1   
     6    5   26 1   
     7    5   27 1   
     8    6    7 1   
     9    6   13 1   
    10    6   40 1   
    11    7   11 1   
    12    7   12 1   
    13    8    9 1   
    14    8   11 2   
    15    9   12 2   
    16   10   19 3   
    17   11   28 1   
    18   12   29 1   
    19   13   14 ar  
    20   13   18 ar  
    21   14   15 ar  
    22   14   30 1   
    23   15   16 ar  
    24   15   31 1   
    25   16   17 ar  
    26   16   19 1   
    27   17   18 ar  
    28   17   32 1   
    29   18   33 1   
    30   20   21 ar  
    31   20   25 ar  
    32   20   40 1   
    33   21   22 ar  
    34   21   36 1   
    35   22   23 ar  
    36   22   37 1   
    37   23   24 ar  
    38   24   25 ar  
    39   24   38 1   
    40   25   39 1   
    41   34   40 1   
    42   35   40 1   
@<TRIPOS>SUBSTRUCTURE
     1 4TZ         1 TEMP              0 ****  ****    0 ROOT
