@<TRIPOS>MOLECULE
4TZ
   40    34     1     0     0
SMALL
bcc


@<TRIPOS>ATOM
      1 S2         -1.2510    3.9290    3.9410 ss        1 4TZ      2.834000
      2 O1         -1.3060    5.0240    2.9000 o         1 4TZ     -0.929500
      3 O2          0.2230    3.9110    4.2700 o         1 4TZ     -0.929500
      4 O3         -1.7040    2.5920    3.3620 o         1 4TZ     -0.673000
      5 N1         -2.1580    4.3180    5.2710 n2        1 4TZ     -0.946000
      6 N2          0.4850   -0.5410   -1.8130 n3        1 4TZ     -0.084000
      7 N3         -0.4580   -0.3860   -2.8360 n3        1 4TZ     -0.139000
      8 N4         -1.3640    0.0650   -4.7610 n2        1 4TZ     -0.088000
      9 N5         -2.2970   -0.5240   -3.9900 n2        1 4TZ     -0.088000
     10 N6          2.3630   -6.9280   -0.0600 n1        1 4TZ     -0.029000
     11 C1         -0.2290    0.1500   -4.0480 c1        1 4TZ     -0.119000
     12 C2         -1.7370   -0.8030   -2.8010 c1        1 4TZ     -0.119000
     13 C3          0.9040   -1.8620   -1.4140 c2        1 4TZ      0.012000
     14 C4          2.0220   -2.4440   -2.0020 c2        1 4TZ     -0.132000
     15 C5          2.3800   -3.7440   -1.6760 c1        1 4TZ     -0.083000
     16 C6          1.6210   -4.4650   -0.7610 c1        1 4TZ     -0.018000
     17 C7          0.5060   -3.8850   -0.1750 c1        1 4TZ     -0.075000
     18 C8          0.1480   -2.5810   -0.5020 c1        1 4TZ     -0.147000
     19 C9          2.0440   -5.8700   -0.3620 c1        1 4TZ     -0.099000
     20 C10         1.1300    0.6260   -1.2390 c3        1 4TZ     -0.031000
     21 C11         0.3380    1.0970   -0.0060 c2        1 4TZ     -0.156000
     22 C12         0.8620    0.9070    1.2690 c2        1 4TZ     -0.086000
     23 C13         0.2000    1.4230    2.3790 c1        1 4TZ     -0.181000
     24 C14        -0.9840    2.1290    2.2150 c1        1 4TZ      0.138000
     25 C15        -1.5100    2.3190    0.9400 c1        1 4TZ     -0.146000
     26 C16        -0.8470    1.8030   -0.1700 c1        1 4TZ     -0.098000
     27 HN11       -2.8820    4.8790    5.1840 hn        1 4TZ      0.260000
     28 HN12       -1.9020    4.0260    6.1010 hn        1 4TZ      0.260000
     29 H1          0.6150    0.5330   -4.3560 DU        1 4TZ      0.218500
     30 H2         -2.1780   -1.2310   -2.0470 DU        1 4TZ      0.218500
     31 H4          2.5570   -1.9360   -2.6460 ha        1 4TZ      0.150000
     32 H5          3.1640   -4.1530   -2.0880 ha        1 4TZ      0.151000
     33 H7         -0.0290   -4.3930    0.4690 ha        1 4TZ      0.152000
     34 H8         -0.6340   -2.1740   -0.0910 ha        1 4TZ      0.154000
     35 H101        1.1560    1.3410   -1.9000 h1        1 4TZ      0.119500
     36 H102        2.0420    0.3960   -0.9720 h1        1 4TZ      0.119500
     37 H12         1.6970    0.4100    1.3850 ha        1 4TZ      0.140000
     38 H13         0.5690    1.2890    3.2740 ha        1 4TZ      0.170000
     39 H15        -2.3400    2.8150    0.8240 ha        1 4TZ      0.155000
     40 H16        -1.2160    1.9370   -1.0650 ha        1 4TZ      0.145000
@<TRIPOS>BOND
     1    1    2 1   
     2    1    3 1   
     3    4   24 1   
     4    5   27 1   
     5    5   28 1   
     6    6    7 1   
     7    6   13 1   
     8    6   20 1   
     9    7   11 1   
    10    7   12 1   
    11    8    9 1   
    12    8   11 1   
    13    9   12 1   
    14   10   19 1   
    15   13   14 1   
    16   13   18 1   
    17   14   15 1   
    18   14   31 1   
    19   15   32 1   
    20   16   17 1   
    21   16   19 1   
    22   17   33 1   
    23   18   34 1   
    24   20   21 1   
    25   20   35 1   
    26   20   36 1   
    27   21   22 1   
    28   21   26 1   
    29   22   23 1   
    30   22   37 1   
    31   23   38 1   
    32   24   25 1   
    33   25   39 1   
    34   26   40 1   
@<TRIPOS>SUBSTRUCTURE
     1 4TZ         1 TEMP              0 ****  ****    0 ROOT
