@<TRIPOS>MOLECULE
4TZ
   41    43     1     0     0
SMALL
bcc


@<TRIPOS>ATOM
      1 S2         -0.2410    0.7460   -0.4800 s6        1 4TZ      1.572400
      2 O1          0.1800    1.8290   -1.1900 o         1 4TZ     -0.551800
      3 O2         -0.0160    0.4740    0.8350 o         1 4TZ     -0.551800
      4 O3         -0.1800   -0.6330   -1.3850 os        1 4TZ     -0.446800
      5 N1         -2.1020    0.8780   -0.5690 nz        1 4TZ     -0.796500
      6 N2          4.3040   -3.7000   -4.9200 nh        1 4TZ     -0.425300
      7 N3          3.2960   -3.3720   -5.7850 na        1 4TZ     -0.207500
      8 N4          2.2320   -2.4320   -7.5270 nc        1 4TZ     -0.341500
      9 N5          1.3340   -3.1470   -6.8620 nc        1 4TZ     -0.341500
     10 N6          4.6310  -10.3250   -3.2380 n1        1 4TZ     -0.318800
     11 C1          3.4410   -2.5380   -6.9260 cd        1 4TZ      0.365900
     12 C2          1.9230   -3.7400   -5.7980 cd        1 4TZ      0.365900
     13 C3          4.3110   -5.1090   -4.5450 ca        1 4TZ      0.054600
     14 C4          5.2110   -5.9510   -5.2230 ca        1 4TZ     -0.120000
     15 C5          5.2930   -7.3000   -4.8810 ca        1 4TZ     -0.087500
     16 C6          4.4760   -7.8240   -3.8720 ca        1 4TZ      0.016000
     17 C7          3.5680   -6.9900   -3.2030 ca        1 4TZ     -0.087500
     18 C8          3.4830   -5.6440   -3.5400 ca        1 4TZ     -0.120000
     19 C9          4.5620   -9.1990   -3.5240 cg        1 4TZ      0.211800
     20 C11         3.2520   -2.2140   -3.1060 ca        1 4TZ     -0.068300
     21 C12         2.8180   -2.6700   -1.8550 ca        1 4TZ     -0.099500
     22 C13         1.7000   -2.1090   -1.2420 ca        1 4TZ     -0.105500
     23 C14         1.0180   -1.0830   -1.9130 ca        1 4TZ      0.052100
     24 C15         1.4430   -0.5930   -3.1570 ca        1 4TZ     -0.105500
     25 C16         2.5700   -1.1650   -3.7410 ca        1 4TZ     -0.099500
     26 HN11       -2.5000    0.1110   -1.1160 hn        1 4TZ      0.475467
     27 HN12       -2.3950    1.7510   -1.0110 hn        1 4TZ      0.475467
     28 H1          4.3920   -2.0960   -7.2420 h5        1 4TZ      0.081100
     29 H2          1.4680   -4.4230   -5.0770 h5        1 4TZ      0.081100
     30 H4          5.8550   -5.5530   -6.0250 ha        1 4TZ      0.149000
     31 H5          6.0030   -7.9540   -5.4130 ha        1 4TZ      0.159500
     32 H7          2.9190   -7.4040   -2.4160 ha        1 4TZ      0.159500
     33 H8          2.7630   -4.9990   -3.0120 ha        1 4TZ      0.149000
     34 H101        5.1100   -1.9520   -4.1320 h1        1 4TZ      0.090200
     35 H102        5.0720   -3.3720   -2.9840 h1        1 4TZ      0.090200
     36 H12         3.3640   -3.4800   -1.3420 ha        1 4TZ      0.170500
     37 H13         1.3470   -2.4760   -0.2660 ha        1 4TZ      0.165500
     38 H15         0.8980    0.2170   -3.6650 ha        1 4TZ      0.165500
     39 H16         2.9200   -0.7900   -4.7190 ha        1 4TZ      0.170500
     40 H131       -2.5250    0.8400    0.3610 hn        1 4TZ      0.475467
     41 C10         4.4710   -2.8040   -3.7510 c3        1 4TZ      0.179100
@<TRIPOS>BOND
     1    1    2 2   
     2    1    3 2   
     3    1    4 1   
     4    1    5 1   
     5    4   23 1   
     6    5   26 1   
     7    5   27 1   
     8    5   40 1   
     9    6    7 1   
    10    6   13 1   
    11    6   41 1   
    12    7   11 1   
    13    7   12 1   
    14    8    9 1   
    15    8   11 2   
    16    9   12 2   
    17   10   19 3   
    18   11   28 1   
    19   12   29 1   
    20   13   14 ar  
    21   13   18 ar  
    22   14   15 ar  
    23   14   30 1   
    24   15   16 ar  
    25   15   31 1   
    26   16   17 ar  
    27   16   19 1   
    28   17   18 ar  
    29   17   32 1   
    30   18   33 1   
    31   20   21 ar  
    32   20   25 ar  
    33   20   41 1   
    34   21   22 ar  
    35   21   36 1   
    36   22   23 ar  
    37   22   37 1   
    38   23   24 ar  
    39   24   25 ar  
    40   24   38 1   
    41   25   39 1   
    42   34   41 1   
    43   35   41 1   
@<TRIPOS>SUBSTRUCTURE
     1 4TZ         1 TEMP              0 ****  ****    0 ROOT
