@<TRIPOS>MOLECULE
4U8
   60    74     1     0     0
SMALL
bcc


@<TRIPOS>ATOM
      1 O1          0.0000    0.0000    0.0000 os        1 4U8     -0.174000
      2 C7         11.8450    4.0280   -1.9830 ca        1 4U8     -0.243500
      3 O2          4.5350   -2.5120    1.1720 o         1 4U8     -0.567500
      4 C6         11.5420    5.2460   -2.5660 ca        1 4U8     -0.164000
      5 C1          7.0730    3.0550   -1.4740 c2        1 4U8     -0.204000
      6 N1          5.5300    0.0000    0.0000 n3        1 4U8      0.505000
      7 C5         10.2250    5.6280   -2.7380 ca        1 4U8     -0.243500
      8 C4          9.2040    4.7960   -2.3290 ca        1 4U8     -0.040500
      9 C3          9.5020    3.5680   -1.7410 ca        1 4U8     -0.160000
     10 C2          8.4070    2.6680   -1.3000 c3        1 4U8     -0.392000
     11 O3          6.6560   -3.1070    1.4520 o         1 4U8     -0.567500
     12 C16         6.3350   -1.0190    0.4770 c2        1 4U8     -0.266000
     13 C15         7.6390   -0.6680    0.3130 c2        1 4U8     -0.150000
     14 C19         4.1280    0.0000    0.0000 c3        1 4U8     -0.313000
     15 C24         3.4340    0.0000    1.2030 c2        1 4U8      0.219000
     16 C23         2.0530   -0.0010    1.2020 c2        1 4U8     -0.188000
     17 C22         1.3600    0.0000    0.0000 c3        1 4U8     -0.139000
     18 C25        -0.6490    0.1220    1.2670 DU        1 4U8      0.162000
     19 C27        -2.0460    0.7130    1.0710 c3        1 4U8     -0.128500
     20 C26        -0.7650   -1.2600    1.9150 c3        1 4U8     -0.128500
     21 C21         2.0530    0.0010   -1.2020 c3        1 4U8     -0.165000
     22 C20         3.4340    0.0050   -1.2020 c2        1 4U8      0.012000
     23 C17         6.3300    1.0070   -0.4890 c2        1 4U8     -0.394000
     24 C18         6.0540    2.2400   -1.0740 c2        1 4U8     -0.039000
     25 C14         7.6700    0.6070   -0.3020 c3        1 4U8     -0.101000
     26 C13         8.7090    1.4480   -0.7160 c2        1 4U8     -0.184000
     27 C8         10.8300    3.1870   -1.5710 ca        1 4U8     -0.040500
     28 C12        13.5080    5.4470   -4.0650 c3        1 4U8     -0.747000
     29 C11        12.0570    7.4310   -3.6190 c3        1 4U8     -0.292000
     30 C10        13.5270    6.5280   -1.8130 c3        1 4U8     -0.369000
     31 H1         11.1420    3.2960   -1.6030 ha        1 4U8      0.061500
     32 H3          7.9870    3.5830   -1.7180 DU        1 4U8      0.339000
     33 H4         11.0760    5.0210   -2.4540 ha        1 4U8      0.061500
     34 H5          8.1880    4.4630   -2.1540 ha        1 4U8      0.254500
     35 H6          7.9430    0.2680   -0.1400 ha        1 4U8      0.322000
     36 H7          4.0860    0.7020    0.6970 DU        1 4U8      0.253000
     37 H8          3.1100   -0.2130    1.0910 ha        1 4U8     -0.070000
     38 H9          0.4150    0.1050    1.4690 ha        1 4U8      0.306000
     39 H10        -1.0260    0.5150    1.3780 hc        1 4U8     -0.075500
     40 H11        -1.0490    0.7450    1.4940 DU        1 4U8      0.099500
     41 H12        -1.9630    1.6970    0.6250 hc        1 4U8     -0.075500
     42 H13        -1.5030   -0.7340    1.3200 DU        1 4U8      0.099500
     43 H14        -1.4740   -0.4420    1.9630 hc        1 4U8     -0.075500
     44 H15        -0.4590   -1.1990    2.9520 hc        1 4U8     -0.075500
     45 H16         1.2470   -0.3350   -0.5610 DU        1 4U8      0.282000
     46 H17         2.6350   -0.4370   -0.6200 DU        1 4U8      0.124000
     47 H18         5.1030    1.7720   -1.2980 ha        1 4U8      0.148000
     48 H19         7.7130    1.1440   -1.0160 DU        1 4U8      0.250000
     49 H20         9.7520    3.1130   -1.5010 ha        1 4U8      0.254500
     50 H21        12.9040    4.7420   -3.5070 hc        1 4U8      0.273000
     51 H22        13.0550    4.7270   -3.3940 hc        1 4U8      0.273000
     52 H23        14.0720    5.7290   -4.9460 hc        1 4U8      0.273000
     53 H24        12.6480    6.5240   -3.5760 DU        1 4U8      0.122500
     54 H25        12.2460    6.4260   -3.9760 DU        1 4U8      0.122500
     55 H26        11.4750    6.7900   -4.2710 hc        1 4U8      0.046000
     56 H27        13.1210    7.1580   -2.5950 DU        1 4U8      0.086000
     57 H28        12.6410    7.0140   -2.2020 DU        1 4U8      0.086000
     58 H29        13.2190    7.4530   -1.3420 hc        1 4U8      0.139000
     59 C28         5.8580   -2.2770    1.0640 c2        1 4U8      0.451000
     60 C9         12.6550    6.1590   -3.0140 DU        1 4U8      0.148000
@<TRIPOS>BOND
     1    1   17 1   
     2    1   18 1   
     3    2    4 1   
     4    2   27 1   
     5    2   31 1   
     6    3   59 1   
     7    4    7 1   
     8    4   60 1   
     9    5   10 1   
    10    5   24 1   
    11    5   32 1   
    12    6   12 1   
    13    6   14 1   
    14    6   23 1   
    15    7    8 1   
    16    7   33 1   
    17    8    9 1   
    18    8   34 1   
    19    9   10 1   
    20    9   27 1   
    21   10   26 1   
    22   10   32 1   
    23   11   59 1   
    24   12   13 1   
    25   12   59 1   
    26   13   25 1   
    27   13   35 1   
    28   14   15 1   
    29   14   22 1   
    30   14   36 1   
    31   15   16 1   
    32   15   36 1   
    33   16   17 1   
    34   16   37 1   
    35   17   21 1   
    36   17   45 1   
    37   18   19 1   
    38   18   20 1   
    39   18   38 1   
    40   18   40 1   
    41   18   42 1   
    42   19   39 1   
    43   19   40 1   
    44   19   41 1   
    45   20   42 1   
    46   20   43 1   
    47   20   44 1   
    48   21   22 1   
    49   21   45 1   
    50   21   46 1   
    51   22   46 1   
    52   23   24 1   
    53   23   25 1   
    54   24   47 1   
    55   25   26 1   
    56   25   48 1   
    57   26   48 1   
    58   27   49 1   
    59   28   50 1   
    60   28   51 1   
    61   28   52 1   
    62   28   60 1   
    63   29   53 1   
    64   29   54 1   
    65   29   55 1   
    66   29   60 1   
    67   30   56 1   
    68   30   57 1   
    69   30   58 1   
    70   30   60 1   
    71   53   54 1   
    72   53   60 1   
    73   54   60 1   
    74   56   57 1   
@<TRIPOS>SUBSTRUCTURE
     1 4U8         1 TEMP              0 ****  ****    0 ROOT
