@<TRIPOS>MOLECULE
4U9
   43    46     1     0     0
SMALL
bcc


@<TRIPOS>ATOM
      1 C7         -0.3390    0.0140   -1.3970 cg        1 4U9     -0.190000
      2 C6          0.3220   -0.0170   -0.1450 ca        1 4U9      0.528300
      3 C1          2.8480   -0.8570    5.6360 cc        1 4U9      0.459000
      4 N1          2.1080   -1.1720    4.4830 na        1 4U9     -0.284900
      5 C5          0.2810   -0.4510    2.1250 ca        1 4U9      0.407200
      6 C4          1.6370   -0.0680    2.2860 ca        1 4U9     -0.131300
      7 C3          3.1150    0.8200    4.2400 cd        1 4U9      0.351500
      8 C2          2.2630   -0.1130    3.5870 cc        1 4U9     -0.120600
      9 C23         4.1290   -2.0110    7.4460 ca        1 4U9      0.074400
     10 C22         4.1660   -2.8260    8.5850 ca        1 4U9     -0.145000
     11 C21         2.9940   -3.3880    9.0820 ca        1 4U9     -0.084000
     12 C20         1.7760   -3.1530    8.4530 ca        1 4U9     -0.167000
     13 C19         1.7320   -2.3340    7.3110 ca        1 4U9      0.141900
     14 F4          0.5380   -2.1210    6.7060 f         1 4U9     -0.138900
     15 C18         2.9120   -1.7420    6.7980 ca        1 4U9     -0.157500
     16 N2          3.4660    0.3490    5.5010 nd        1 4U9     -0.604000
     17 C17         2.3360    0.3540    1.1480 ca        1 4U9     -0.066000
     18 C16         1.6770    0.3850   -0.0800 ca        1 4U9     -0.219300
     19 N3         -0.3700   -0.4340    0.9560 nb        1 4U9     -0.640000
     20 C8         -0.8960    0.0420   -2.4570 ch        1 4U9     -0.086000
     21 C9         -1.5470    0.0760   -3.7040 ca        1 4U9      0.052000
     22 C15        -0.8510    0.4790   -4.8570 ca        1 4U9     -0.109500
     23 C14        -1.5000    0.5090   -6.0880 ca        1 4U9     -0.085000
     24 C12        -2.8430    0.1390   -6.1750 ca        1 4U9     -0.160300
     25 C13        -3.5450    0.1550   -7.5270 c3        1 4U9      0.687200
     26 F3         -3.4510   -1.0270   -8.2230 f         1 4U9     -0.235967
     27 F2         -4.8960    0.4010   -7.4680 f         1 4U9     -0.235967
     28 F1         -3.0700    1.0980   -8.4060 f         1 4U9     -0.235967
     29 C11        -3.5440   -0.2610   -5.0350 ca        1 4U9     -0.085000
     30 C10        -2.8990   -0.2930   -3.8020 ca        1 4U9     -0.109500
     31 H1          1.5250   -1.9600    4.3600 hn        1 4U9      0.314700
     32 H2         -0.3200   -0.7790    2.9930 h4        1 4U9      0.029100
     33 H3          5.1260   -3.0210    9.0870 ha        1 4U9      0.157000
     34 H4          3.0300   -4.0240    9.9800 ha        1 4U9      0.148000
     35 H5          0.8440   -3.5950    8.8360 ha        1 4U9      0.158000
     36 H7          3.3920    0.6560    1.2200 ha        1 4U9      0.159000
     37 H8          2.1990    0.7140   -0.9890 ha        1 4U9      0.155000
     38 H9          0.2070    0.7710   -4.7850 ha        1 4U9      0.152000
     39 H10        -0.9580    0.8290   -6.9930 ha        1 4U9      0.155500
     40 H11        -4.6060   -0.5450   -5.1140 ha        1 4U9      0.155500
     41 H12        -3.4480   -0.6070   -2.9000 ha        1 4U9      0.152000
     42 Br1         3.6950    2.4510    3.6080 br        1 4U9     -0.102200
     43 Cl1         5.5920   -1.3810    6.8700 cl        1 4U9     -0.043400
@<TRIPOS>BOND
     1    1    2 1   
     2    1   20 3   
     3    2   18 ar  
     4    2   19 ar  
     5    3    4 1   
     6    3   15 1   
     7    3   16 2   
     8    4    8 1   
     9    4   31 1   
    10    5    6 ar  
    11    5   19 ar  
    12    5   32 1   
    13    6    8 1   
    14    6   17 ar  
    15    7    8 2   
    16    7   16 1   
    17    7   42 1   
    18    9   10 ar  
    19    9   15 ar  
    20    9   43 1   
    21   10   11 ar  
    22   10   33 1   
    23   11   12 ar  
    24   11   34 1   
    25   12   13 ar  
    26   12   35 1   
    27   13   14 1   
    28   13   15 ar  
    29   17   18 ar  
    30   17   36 1   
    31   18   37 1   
    32   20   21 1   
    33   21   22 ar  
    34   21   30 ar  
    35   22   23 ar  
    36   22   38 1   
    37   23   24 ar  
    38   23   39 1   
    39   24   25 1   
    40   24   29 ar  
    41   25   26 1   
    42   25   27 1   
    43   25   28 1   
    44   29   30 ar  
    45   29   40 1   
    46   30   41 1   
@<TRIPOS>SUBSTRUCTURE
     1 4U9         1 TEMP              0 ****  ****    0 ROOT
