@<TRIPOS>MOLECULE
4UA
   74    70     1     0     0
SMALL
bcc


@<TRIPOS>ATOM
      1 C35         1.1540   -1.8000    0.8960 c1        1 4UA     -0.016000
      2 C34         2.1050   -0.9120    0.5960 c2        1 4UA     -0.157000
      3 C36         0.3720   -2.0520    1.9300 c2        1 4UA     -0.092000
      4 C33         2.4020   -0.0950    1.7580 c2        1 4UA      0.010000
      5 C37         0.1640   -0.8100    2.7590 c3        1 4UA     -0.096000
      6 C3          3.1080    5.3270    5.5960 c1        1 4UA     -0.235000
      7 C7          6.5990    5.6010    7.3530 c1        1 4UA     -0.156000
      8 C4          1.9840    5.2820    6.0090 c1        1 4UA     -0.235000
      9 C6          6.6550    5.9250    8.7520 c3        1 4UA      0.027000
     10 C26         4.4420   -5.3920    4.8010 c1        1 4UA     -0.024000
     11 C27         5.1960   -4.1980    5.1770 c3        1 4UA     -0.249000
     12 C24         2.3920   -4.2970    5.4980 c2        1 4UA      0.029000
     13 C32         1.4350    0.0220    2.7360 c2        1 4UA     -0.188000
     14 C2          6.6020    5.3930    6.1710 c1        1 4UA     -0.201000
     15 C5          5.8860    5.0500    9.5940 c1        1 4UA     -0.193000
     16 C25         3.0320   -5.3800    4.9650 c2        1 4UA     -0.179000
     17 C28         4.4330   -3.0140    5.6850 c2        1 4UA      0.274000
     18 C23         3.0630   -3.0780    5.8870 c2        1 4UA     -1.017000
     19 C10         4.5180    1.7900    7.1390 c2        1 4UA      0.331000
     20 C14         0.3100    1.6130    4.3340 c2        1 4UA     -0.228000
     21 C16         2.6930    1.4910    4.2150 c1        1 4UA      0.051000
     22 C13        -0.4300    1.0400    5.2820 c2        1 4UA     -0.100000
     23 C17         3.9420    1.9570    4.6990 c3        1 4UA     -0.010000
     24 C15         1.5440    1.0170    3.7750 c2        1 4UA      0.170000
     25 C18         6.3440    0.0130    2.9990 c3        1 4UA     -0.283000
     26 N12         4.5520    1.3170    5.8360 n         1 4UA     -0.297000
     27 N9          4.3730    3.2790    7.4120 n4        1 4UA     -0.156000
     28 N19         1.9330   -2.3080    8.0620 n3        1 4UA     -0.950000
     29 O11         4.7430    1.1280    8.1520 o         1 4UA     -0.201000
     30 S20         2.0950   -1.9120    6.5360 s6        1 4UA      2.923000
     31 H35        -0.0210   -3.0170    2.2690 ha        1 4UA      0.198000
     32 H34         2.5370   -0.6890   -0.3860 ha        1 4UA      0.200000
     33 H36        -0.7030   -0.1790    2.4290 hc        1 4UA      0.151500
     34 H33         3.2990    0.5420    1.7400 ha        1 4UA      0.131000
     35 H37        -0.0350   -1.1660    3.8130 hc        1 4UA      0.151500
     36 H3          4.0860    5.4910    5.2020 ha        1 4UA      0.241500
     37 H4          0.9810    5.2610    6.3720 ha        1 4UA      0.241500
     38 H7          7.7390    5.8970    9.0890 hc        1 4UA      0.161000
     39 H6          6.2970    6.9910    8.8990 hc        1 4UA      0.161000
     40 H26         5.9150   -4.5400    5.9850 hc        1 4UA      0.164500
     41 H27         5.8030   -3.8950    4.2720 hc        1 4UA      0.164500
     42 H24         1.2930   -4.3160    5.6390 ha        1 4UA      0.151000
     43 H11C        6.3350    6.1370    4.2240 hc        1 4UA      0.104000
     44 H12C        6.0450    4.3480    4.4260 hc        1 4UA      0.104000
     45 H13C        7.7410    5.0100    4.4500 hc        1 4UA      0.104000
     46 H81C        4.7720    3.7870   11.1040 ha        1 4UA      0.248000
     47 H82C        5.0680    3.8330    6.8860 hn        1 4UA      0.274667
     48 H311        2.5000   -6.8320    3.4850 hc        1 4UA      0.097667
     49 H312        1.1880   -6.4740    4.6930 hc        1 4UA      0.097667
     50 H313        2.6310   -7.4710    5.1700 hc        1 4UA      0.097667
     51 H9          4.5480    3.4320    8.4260 hn        1 4UA      0.274667
     52 H141        0.0250    2.5540    3.8270 ha        1 4UA      0.180000
     53 H142       -1.3750    1.5010    5.6180 ha        1 4UA      0.170500
     54 H131        4.4890    0.2910    5.8290 hn        1 4UA      0.326000
     55 H132       -0.1710    0.0830    5.7690 ha        1 4UA      0.170500
     56 H161        5.4790    0.1500    2.3130 hc        1 4UA      0.071750
     57 H162        7.1080   -0.6190    2.4930 hc        1 4UA      0.071750
     58 H171        3.8990    3.0910    4.8000 h1        1 4UA      0.203500
     59 H172        4.6700    1.7570    3.8160 h1        1 4UA      0.203500
     60 H181        6.0090   -0.4890    3.9350 hc        1 4UA      0.071750
     61 H182        6.7950    1.0010    3.2410 hc        1 4UA      0.071750
     62 H301        8.0020   -3.3740    6.4950 ha        1 4UA      0.092500
     63 H302        6.1620   -2.0930    5.8430 ho        1 4UA      0.323000
     64 H303        8.0640   -2.9050    4.7070 ha        1 4UA      0.092500
     65 H19         2.6670   -2.3070    8.7270 hn        1 4UA      0.262000
     66 C31         2.2900   -6.5980    4.5590 c3        1 4UA     -0.165000
     67 O21         2.7190   -0.6280    6.4090 o         1 4UA     -1.009000
     68 C8          5.2790    4.3680   10.3700 c1        1 4UA     -0.202000
     69 O22         0.8250   -1.8860    5.8960 o         1 4UA     -1.009000
     70 H92         3.4320    3.6160    7.1790 hn        1 4UA      0.274667
     71 H192        1.0850   -2.6550    8.4460 hn        1 4UA      0.262000
     72 O29         5.1120   -1.8900    5.9300 oh        1 4UA     -0.359000
     73 C1          6.6800    5.2110    4.7580 c3        1 4UA     -0.120000
     74 C30         7.5340   -2.8310    5.6640 c1        1 4UA     -0.053000
@<TRIPOS>BOND
     1    1    2 1   
     2    1    3 1   
     3    2    4 1   
     4    2   32 1   
     5    3    5 1   
     6    3   31 1   
     7    4   13 1   
     8    4   34 1   
     9    5   13 1   
    10    5   33 1   
    11    5   35 1   
    12    6    8 1   
    13    6   36 1   
    14    7    9 1   
    15    7   14 1   
    16    8   37 1   
    17    9   15 1   
    18    9   38 1   
    19    9   39 1   
    20   10   11 1   
    21   10   16 1   
    22   11   17 1   
    23   11   40 1   
    24   11   41 1   
    25   12   16 1   
    26   12   18 1   
    27   12   42 1   
    28   13   24 1   
    29   14   73 1   
    30   15   68 1   
    31   16   66 1   
    32   17   18 1   
    33   17   72 1   
    34   18   30 1   
    35   19   26 1   
    36   19   27 1   
    37   19   29 1   
    38   20   22 1   
    39   20   24 1   
    40   20   52 1   
    41   21   23 1   
    42   21   24 1   
    43   22   53 1   
    44   22   55 1   
    45   23   26 1   
    46   23   58 1   
    47   23   59 1   
    48   25   56 1   
    49   25   57 1   
    50   25   60 1   
    51   25   61 1   
    52   26   54 1   
    53   27   47 1   
    54   27   51 1   
    55   27   70 1   
    56   28   30 1   
    57   28   65 1   
    58   28   71 1   
    59   30   67 1   
    60   30   69 1   
    61   43   73 1   
    62   44   73 1   
    63   45   73 1   
    64   46   68 1   
    65   48   66 1   
    66   49   66 1   
    67   50   66 1   
    68   62   74 1   
    69   63   72 1   
    70   64   74 1   
@<TRIPOS>SUBSTRUCTURE
     1 4UA         1 TEMP              0 ****  ****    0 ROOT
