@<TRIPOS>MOLECULE
4UB
   31    23     1     0     0
SMALL
bcc


@<TRIPOS>ATOM
      1 C1          2.3590    1.1900   -2.3830 c1        1 4UB     -0.122250
      2 C2          3.6870    1.4800   -2.6800 c1        1 4UB     -0.122250
      3 C3          4.7100    0.7830   -2.0440 c1        1 4UB     -0.122250
      4 C4          4.4050   -0.2030   -1.1120 c1        1 4UB     -0.122250
      5 C5          3.0770   -0.4920   -0.8140 c1        1 4UB     -0.128000
      6 C8         -2.5960   -0.2350    3.5760 c1        1 4UB     -0.109500
      7 N9         -3.6750    0.0000    4.3570 n2        1 4UB     -0.123000
      8 N10        -4.5780    0.7360    3.6250 n2        1 4UB     -0.123000
      9 C12        -4.0480    0.9480    2.3980 c1        1 4UB     -0.109500
     10 C13        -2.8190    0.3500    2.3590 c2        1 4UB     -0.151000
     11 C14        -1.9810    0.2680    1.2440 c1        1 4UB      0.030000
     12 C15        -0.7790    0.5310    0.5860 c1        1 4UB     -0.098000
     13 C17        -1.1060   -1.3490   -0.7780 c1        1 4UB     -0.081000
     14 N18        -0.4570   -2.0000   -1.8090 n1        1 4UB     -0.116000
     15 C19         0.6760   -1.3320   -2.0720 c1        1 4UB     -0.118000
     16 C20         0.7480   -0.2640   -1.2130 c2        1 4UB     -0.098000
     17 CAO         2.0540    0.2040   -1.4500 c1        1 4UB     -0.009000
     18 NAT        -0.3600   -0.2870   -0.4190 n2        1 4UB     -0.030000
     19 C22        -2.3170   -1.6130   -0.1140 c1        1 4UB      0.002000
     20 N23        -2.7310   -0.8000    0.8840 n1        1 4UB     -0.133000
     21 H1          1.6380    1.6820   -2.8310 ha        1 4UB      0.136500
     22 H2          3.9030    2.1760   -3.3380 ha        1 4UB      0.136500
     23 H3          5.6470    0.9880   -2.2540 ha        1 4UB      0.136500
     24 H4          5.1270   -0.6940   -0.6630 ha        1 4UB      0.136500
     25 H5          2.8620   -1.1870   -0.1570 ha        1 4UB      0.135000
     26 H8         -1.7950   -0.7360    3.8370 DU        1 4UB      0.209250
     27 H10        -5.3940    1.0300    3.9170 DU        1 4UB      0.209250
     28 H12        -4.4710    1.4450    1.6660 DU        1 4UB      0.209250
     29 H15        -0.2500    1.3210    0.8280 ha        1 4UB      0.178000
     30 H22        -2.8610   -2.3860   -0.3740 ha        1 4UB      0.189000
     31 H19         1.3250   -1.5530   -2.7730 DU        1 4UB      0.209250
@<TRIPOS>BOND
     1    1    2 1   
     2    1   21 1   
     3    2   22 1   
     4    3    4 1   
     5    3   23 1   
     6    4   24 1   
     7    5   17 1   
     8    5   25 1   
     9    6    7 1   
    10    6   10 1   
    11    7    8 1   
    12    8    9 1   
    13    9   10 1   
    14   10   11 1   
    15   11   20 1   
    16   12   18 1   
    17   12   29 1   
    18   13   19 1   
    19   14   15 1   
    20   15   16 1   
    21   16   17 1   
    22   16   18 1   
    23   19   30 1   
@<TRIPOS>SUBSTRUCTURE
     1 4UB         1 TEMP              0 ****  ****    0 ROOT
