@<TRIPOS>MOLECULE
4UB
   31    34     1     0     0
SMALL
bcc


@<TRIPOS>ATOM
      1 C1          0.0060    0.3100    0.0520 ca        1 4UB     -0.120000
      2 C2          1.3980    0.3160    0.0190 ca        1 4UB     -0.126500
      3 C3          2.1290   -0.0260    1.1560 ca        1 4UB     -0.124000
      4 C4          1.4630   -0.3820    2.3290 ca        1 4UB     -0.126500
      5 C5          0.0700   -0.3920    2.3690 ca        1 4UB     -0.120000
      6 C8         -2.3150    2.2180    6.2050 cc        1 4UB      0.310200
      7 N9         -2.5220    2.7470    7.4360 nd        1 4UB     -0.513800
      8 N10        -3.8410    2.7340    7.6460 na        1 4UB     -0.020600
      9 C12        -4.5490    2.2030    6.5720 cd        1 4UB     -0.088300
     10 C13        -3.5840    1.8500    5.6040 cc        1 4UB     -0.323800
     11 C14        -3.8170    1.2590    4.3100 cc        1 4UB      0.465800
     12 C15        -2.7280    0.9270    3.5000 cd        1 4UB     -0.187600
     13 C17        -4.3000    0.1390    1.8230 cc        1 4UB     -0.170600
     14 N18        -4.3150   -0.4000    0.5680 nd        1 4UB     -0.256600
     15 C19        -2.9940   -0.5230    0.2030 cd        1 4UB      0.022600
     16 C20        -2.1160   -0.0650    1.2320 cc        1 4UB     -0.113300
     17 CAO        -0.6690   -0.0420    1.2310 ca        1 4UB     -0.020800
     18 NAT        -2.9510    0.3600    2.2670 na        1 4UB      0.045700
     19 C22        -5.3600    0.5110    2.7350 cd        1 4UB      0.467200
     20 N23        -5.1390    1.0400    3.9160 nc        1 4UB     -0.659000
     21 H1         -0.5710    0.5830   -0.8450 ha        1 4UB      0.137500
     22 H2          1.9210    0.5940   -0.9080 ha        1 4UB      0.135500
     23 H3          3.2290   -0.0180    1.1280 ha        1 4UB      0.135000
     24 H4          2.0370   -0.6590    3.2250 ha        1 4UB      0.135500
     25 H5         -0.4470   -0.6970    3.2920 ha        1 4UB      0.137500
     26 H10        -4.2150    3.0830    8.4970 hn        1 4UB      0.325700
     27 H12        -5.6350    2.1110    6.5570 h4        1 4UB      0.195000
     28 H15        -1.6810    1.1050    3.7950 h4        1 4UB      0.178000
     29 H22        -6.4060    0.3430    2.4210 h4        1 4UB      0.052100
     30 H19        -2.6990   -0.9350   -0.7630 h4        1 4UB      0.186000
     31 H8         -1.3160    2.1140    5.7810 h4        1 4UB      0.043100
@<TRIPOS>BOND
     1    1    2 ar  
     2    1   17 ar  
     3    1   21 1   
     4    2    3 ar  
     5    2   22 1   
     6    3    4 ar  
     7    3   23 1   
     8    4    5 ar  
     9    4   24 1   
    10    5   17 ar  
    11    5   25 1   
    12    6    7 2   
    13    6   10 1   
    14    6   31 1   
    15    7    8 1   
    16    8    9 1   
    17    8   26 1   
    18    9   10 2   
    19    9   27 1   
    20   10   11 1   
    21   11   12 2   
    22   11   20 1   
    23   12   18 1   
    24   12   28 1   
    25   13   14 2   
    26   13   18 1   
    27   13   19 1   
    28   14   15 1   
    29   15   16 2   
    30   15   30 1   
    31   16   17 1   
    32   16   18 1   
    33   19   20 2   
    34   19   29 1   
@<TRIPOS>SUBSTRUCTURE
     1 4UB         1 TEMP              0 ****  ****    0 ROOT
