@<TRIPOS>MOLECULE
4UB
   31    34     1     0     0
SMALL
bcc


@<TRIPOS>ATOM
      1 C1          0.0080    0.2980    0.0550 ca        1 4UB     -0.120000
      2 C2          1.4000    0.3060    0.0220 ca        1 4UB     -0.126500
      3 C3          2.1320   -0.0280    1.1620 ca        1 4UB     -0.124000
      4 C4          1.4660   -0.3780    2.3370 ca        1 4UB     -0.126500
      5 C5          0.0730   -0.3920    2.3760 ca        1 4UB     -0.120000
      6 C8         -2.3190    2.2340    6.1970 cc        1 4UB      0.310200
      7 N9         -2.5270    2.7700    7.4250 nd        1 4UB     -0.513800
      8 N10        -3.8470    2.7570    7.6330 na        1 4UB     -0.020600
      9 C12        -4.5530    2.2190    6.5610 cd        1 4UB     -0.088300
     10 C13        -3.5880    1.8620    5.5970 cc        1 4UB     -0.323800
     11 C14        -3.8190    1.2620    4.3060 cc        1 4UB      0.465800
     12 C15        -2.7280    0.9280    3.4990 cd        1 4UB     -0.187600
     13 C17        -4.2980    0.1270    1.8250 cc        1 4UB     -0.170600
     14 N18        -4.3120   -0.4190    0.5730 nd        1 4UB     -0.256600
     15 C19        -2.9900   -0.5410    0.2100 cd        1 4UB      0.022600
     16 C20        -2.1140   -0.0750    1.2360 cc        1 4UB     -0.113300
     17 CAO        -0.6670   -0.0500    1.2360 ca        1 4UB     -0.020800
     18 NAT        -2.9500    0.3530    2.2690 na        1 4UB      0.045700
     19 C22        -5.3590    0.5020    2.7350 cd        1 4UB      0.467200
     20 N23        -5.1400    1.0380    3.9130 nc        1 4UB     -0.659000
     21 H1         -0.5700    0.5640   -0.8430 ha        1 4UB      0.137500
     22 H2          1.9230    0.5800   -0.9060 ha        1 4UB      0.135500
     23 H3          3.2310   -0.0180    1.1340 ha        1 4UB      0.135000
     24 H4          2.0400   -0.6500    3.2350 ha        1 4UB      0.135500
     25 H5         -0.4440   -0.6920    3.3000 ha        1 4UB      0.137500
     26 H10        -4.2230    3.1110    8.4820 hn        1 4UB      0.325700
     27 H12        -5.6400    2.1270    6.5460 h4        1 4UB      0.195000
     28 H15        -1.6820    1.1100    3.7920 h4        1 4UB      0.178000
     29 H22        -6.4050    0.3300    2.4220 h4        1 4UB      0.052100
     30 H19        -2.6940   -0.9580   -0.7540 h4        1 4UB      0.186000
     31 H8         -1.3200    2.1280    5.7740 h4        1 4UB      0.043100
@<TRIPOS>BOND
     1    1    2 ar  
     2    1   17 ar  
     3    1   21 1   
     4    2    3 ar  
     5    2   22 1   
     6    3    4 ar  
     7    3   23 1   
     8    4    5 ar  
     9    4   24 1   
    10    5   17 ar  
    11    5   25 1   
    12    6    7 2   
    13    6   10 1   
    14    6   31 1   
    15    7    8 1   
    16    8    9 1   
    17    8   26 1   
    18    9   10 2   
    19    9   27 1   
    20   10   11 1   
    21   11   12 2   
    22   11   20 1   
    23   12   18 1   
    24   12   28 1   
    25   13   14 2   
    26   13   18 1   
    27   13   19 1   
    28   14   15 1   
    29   15   16 2   
    30   15   30 1   
    31   16   17 1   
    32   16   18 1   
    33   19   20 2   
    34   19   29 1   
@<TRIPOS>SUBSTRUCTURE
     1 4UB         1 TEMP              0 ****  ****    0 ROOT
