@<TRIPOS>MOLECULE
4UB
   31    34     1     0     0
SMALL
bcc


@<TRIPOS>ATOM
      1 C1         -3.7930   -0.2860   -0.6740 ca        1 4UB     -0.120000
      2 C2         -4.5800   -1.4350   -0.7030 ca        1 4UB     -0.126500
      3 C3         -4.1940   -2.5690    0.0110 ca        1 4UB     -0.124000
      4 C4         -3.0190   -2.5510    0.7620 ca        1 4UB     -0.126500
      5 C5         -2.2270   -1.4040    0.7980 ca        1 4UB     -0.120000
      6 C8          2.8560   -1.8730   -0.2750 cc        1 4UB      0.310200
      7 N9          4.0890   -2.4330   -0.3350 nd        1 4UB     -0.513800
      8 N10         4.9730   -1.4350   -0.2370 na        1 4UB     -0.020600
      9 C12         4.3620   -0.1910   -0.1120 cd        1 4UB     -0.088300
     10 C13         2.9730   -0.4330   -0.1310 cc        1 4UB     -0.323800
     11 C14         1.9130    0.5400   -0.0310 cc        1 4UB      0.465800
     12 C15         0.5840    0.1070   -0.0150 cd        1 4UB     -0.187600
     13 C17        -0.1000    2.4330    0.1470 cc        1 4UB     -0.170600
     14 N18        -1.2340    3.1940    0.2100 nd        1 4UB     -0.256600
     15 C19        -2.2800    2.3000    0.1850 cd        1 4UB      0.022600
     16 C20        -1.8200    0.9500    0.1100 cc        1 4UB     -0.113300
     17 CAO        -2.6070   -0.2640    0.0760 ca        1 4UB     -0.020800
     18 NAT        -0.4270    1.0360    0.0850 na        1 4UB      0.045700
     19 C22         1.3040    2.7800    0.1290 cd        1 4UB      0.467200
     20 N23         2.2640    1.8880    0.0480 nc        1 4UB     -0.659000
     21 H1         -4.0950    0.6080   -1.2400 ha        1 4UB      0.137500
     22 H2         -5.5080   -1.4460   -1.2940 ha        1 4UB      0.135500
     23 H3         -4.8160   -3.4760   -0.0160 ha        1 4UB      0.135000
     24 H4         -2.7160   -3.4410    1.3320 ha        1 4UB      0.135500
     25 H5         -1.3140   -1.3910    1.4120 ha        1 4UB      0.137500
     26 H10         5.9470   -1.6260   -0.2620 hn        1 4UB      0.325700
     27 H12         4.9190    0.7430   -0.0220 h4        1 4UB      0.195000
     28 H15         0.2930   -0.9530   -0.0860 h4        1 4UB      0.178000
     29 H22         1.5820    3.8490    0.1850 h4        1 4UB      0.052100
     30 H19        -3.3190    2.6280    0.2280 h4        1 4UB      0.186000
     31 H8          1.9460   -2.4700   -0.3360 h4        1 4UB      0.043100
@<TRIPOS>BOND
     1    1    2 ar  
     2    1   17 ar  
     3    1   21 1   
     4    2    3 ar  
     5    2   22 1   
     6    3    4 ar  
     7    3   23 1   
     8    4    5 ar  
     9    4   24 1   
    10    5   17 ar  
    11    5   25 1   
    12    6    7 2   
    13    6   10 1   
    14    6   31 1   
    15    7    8 1   
    16    8    9 1   
    17    8   26 1   
    18    9   10 2   
    19    9   27 1   
    20   10   11 1   
    21   11   12 2   
    22   11   20 1   
    23   12   18 1   
    24   12   28 1   
    25   13   14 2   
    26   13   18 1   
    27   13   19 1   
    28   14   15 1   
    29   15   16 2   
    30   15   30 1   
    31   16   17 1   
    32   16   18 1   
    33   19   20 2   
    34   19   29 1   
@<TRIPOS>SUBSTRUCTURE
     1 4UB         1 TEMP              0 ****  ****    0 ROOT
