@<TRIPOS>MOLECULE
4UC
   59    61     1     0     0
SMALL
bcc


@<TRIPOS>ATOM
      1 C6          0.3490   -0.1860   -0.2920 ca        1 4UC     -0.697500
      2 C7          1.7640   -0.3880   -0.2770 ca        1 4UC      0.065000
      3 C8          2.5250   -0.2240    0.8470 ca        1 4UC     -0.219000
      4 C13         5.4140    1.4580    5.1480 ca        1 4UC     -0.118300
      5 C15         6.9180    3.2420    4.4920 ca        1 4UC     -0.098000
      6 C17         6.7630    2.6410    6.8350 ca        1 4UC     -0.154300
      7 C20         4.3940   -0.0920    7.2330 cp        1 4UC      0.492800
      8 C21         3.8430   -0.9480    8.2970 cp        1 4UC     -0.211500
      9 C22         2.4830   -1.2720    8.3040 ca        1 4UC     -0.063500
     10 C24         2.7920   -2.5810   10.3060 ca        1 4UC      0.159100
     11 C26         0.9880   -3.7050   11.3960 c3        1 4UC      0.128400
     12 C28         4.1640   -2.2550   10.3120 ca        1 4UC     -0.187500
     13 C27         0.8090   -4.5690   12.6220 c3        1 4UC     -0.102100
     14 O25         2.3900   -3.3970   11.3350 os        1 4UC     -0.320900
     15 C29         4.6770   -1.4400    9.3150 ca        1 4UC     -0.063500
     16 C23         1.9500   -2.0860    9.3010 ca        1 4UC     -0.187500
     17 C30         3.9350   -0.3210    5.8870 ca        1 4UC     -0.200300
     18 N19         5.2880    0.8490    7.5330 nb        1 4UC     -0.619000
     19 C18         5.8010    1.6250    6.5170 ca        1 4UC      0.404600
     20 C16         7.2980    3.4230    5.8430 ca        1 4UC     -0.113000
     21 C14         5.9970    2.2820    4.1520 ca        1 4UC     -0.130000
     22 C12         4.4480    0.4470    4.8680 ca        1 4UC     -0.121600
     23 C11         4.0240    0.2050    3.4630 c         1 4UC      0.694700
     24 O31         4.7810   -0.0880    2.5350 o         1 4UC     -0.506100
     25 C9          1.9240    0.1650    2.0890 ca        1 4UC      0.246600
     26 C32         0.5010    0.3770    2.0880 ca        1 4UC     -0.219000
     27 C33        -0.2360    0.2060    0.9500 ca        1 4UC      0.065000
     28 S3         -0.4810   -0.3620   -1.5670 s4        1 4UC      1.686300
     29 O4         -1.7900    0.0110   -1.5540 o         1 4UC     -0.446900
     30 O5          0.1670   -0.6510   -2.7280 o         1 4UC     -0.446900
     31 N2         -1.0390   -2.7030   -1.2660 n         1 4UC     -0.725000
     32 C1         -2.2510   -2.8880   -0.5100 c         1 4UC      0.616100
     33 O34        -2.1500   -3.0170    0.7150 o         1 4UC     -0.512100
     34 C35        -3.5510   -2.8250   -1.2510 c3        1 4UC     -0.186100
     35 H1          2.2590   -0.6840   -1.2230 ha        1 4UC      0.170000
     36 H2          3.6180   -0.3940    0.7890 ha        1 4UC      0.190500
     37 H3          7.3740    3.8790    3.7180 ha        1 4UC      0.148000
     38 H4          7.0630    2.7780    7.8870 ha        1 4UC      0.166000
     39 H5          1.8150   -0.8730    7.5260 ha        1 4UC      0.137000
     40 H6          0.4020   -2.7520   11.4780 h1        1 4UC      0.039700
     41 H7          0.6900   -4.2530   10.4630 h1        1 4UC      0.039700
     42 H8          4.8080   -2.6500   11.1130 ha        1 4UC      0.152000
     43 H9          1.1320   -4.0200   13.5390 hc        1 4UC      0.054700
     44 H10         1.4190   -5.5000   12.5380 hc        1 4UC      0.054700
     45 H11        -0.2690   -4.8440   12.7190 hc        1 4UC      0.054700
     46 H12         5.7480   -1.1770    9.3260 ha        1 4UC      0.137000
     47 H13         0.8770   -2.3240    9.2920 ha        1 4UC      0.152000
     48 H14         3.2100   -1.1270    5.7070 ha        1 4UC      0.151000
     49 H15         8.0370    4.2020    6.0890 ha        1 4UC      0.152000
     50 H16         5.7150    2.1260    3.0990 ha        1 4UC      0.139000
     51 H17         2.0870    0.6090    4.0580 hn        1 4UC      0.347500
     52 H18        -0.0080    0.6820    3.0200 ha        1 4UC      0.190500
     53 H19        -1.3310    0.3770    0.9830 ha        1 4UC      0.170000
     54 H20        -0.2450   -3.1080   -0.8000 hn        1 4UC      0.302500
     55 H21        -4.3860   -3.0630   -0.5440 hc        1 4UC      0.095700
     56 H22        -3.7040   -1.7920   -1.6570 hc        1 4UC      0.095700
     57 H23        -3.5710   -3.5580   -2.0940 hc        1 4UC      0.095700
     58 N10         2.6190    0.3380    3.2510 n         1 4UC     -0.444100
     59 H221       -1.1170   -3.0650   -2.2010 hn        1 4UC      0.302500
@<TRIPOS>BOND
     1    1    2 ar  
     2    1   27 ar  
     3    1   28 1   
     4    2    3 ar  
     5    2   35 1   
     6    3   25 ar  
     7    3   36 1   
     8    4   19 ar  
     9    4   21 ar  
    10    4   22 ar  
    11    5   20 ar  
    12    5   21 ar  
    13    5   37 1   
    14    6   19 ar  
    15    6   20 ar  
    16    6   38 1   
    17    7    8 1   
    18    7   17 ar  
    19    7   18 ar  
    20    8    9 ar  
    21    8   15 ar  
    22    9   16 ar  
    23    9   39 1   
    24   10   12 ar  
    25   10   14 1   
    26   10   16 ar  
    27   11   13 1   
    28   11   14 1   
    29   11   40 1   
    30   11   41 1   
    31   12   15 ar  
    32   12   42 1   
    33   13   43 1   
    34   13   44 1   
    35   13   45 1   
    36   15   46 1   
    37   16   47 1   
    38   17   22 ar  
    39   17   48 1   
    40   18   19 ar  
    41   20   49 1   
    42   21   50 1   
    43   22   23 1   
    44   23   24 2   
    45   23   58 1   
    46   25   26 ar  
    47   25   58 1   
    48   26   27 ar  
    49   26   52 1   
    50   27   53 1   
    51   28   29 1   
    52   28   30 1   
    53   31   32 1   
    54   31   54 1   
    55   31   59 1   
    56   32   33 2   
    57   32   34 1   
    58   34   55 1   
    59   34   56 1   
    60   34   57 1   
    61   51   58 1   
@<TRIPOS>SUBSTRUCTURE
     1 4UC         1 TEMP              0 ****  ****    0 ROOT
