@<TRIPOS>MOLECULE
4UC
   59    60     1     0     0
SMALL
bcc


@<TRIPOS>ATOM
      1 C6         -0.1710    1.2080    0.8450 c2        1 4UC     -1.244000
      2 C7          1.0310    0.4810    1.3750 c3        1 4UC      0.012000
      3 C8          1.3490    0.9510    2.7270 c2        1 4UC      0.049000
      4 C13         3.6070   -0.5500    5.9610 c2        1 4UC     -0.189000
      5 C15         5.1550   -0.4760    9.1840 c1        1 4UC      0.110000
      6 C17         5.2850   -1.9460    7.3690 c2        1 4UC     -0.071000
      7 C20         3.9890    1.3730    8.0460 c2        1 4UC      0.291000
      8 C21         4.0230    2.2890    9.2380 c3        1 4UC     -0.045000
      9 C22         2.9550   -6.2860    4.3520 c1        1 4UC     -0.077000
     10 C24         4.6990   -4.6010    5.2970 c1        1 4UC      0.070000
     11 C26         6.6800   -5.9830    5.1030 c3        1 4UC     -0.094000
     12 C28         1.9340    3.8610    9.4640 c1        1 4UC     -0.113000
     13 C27         6.9370   -6.7840    6.3510 c3        1 4UC     -0.235000
     14 O25         5.9650   -4.7610    5.4530 os        1 4UC     -0.112000
     15 C29         2.8760    3.1360    9.3300 c1        1 4UC     -0.233000
     16 C23         3.8220   -5.5670    4.7720 c1        1 4UC     -0.285000
     17 C30         3.2250    1.6990    6.8990 c2        1 4UC     -0.277000
     18 N19         4.7150    0.2190    8.0640 n3        1 4UC     -0.206000
     19 C18         4.8400   -0.6010    6.8150 c3        1 4UC     -0.018000
     20 C16         5.5010   -1.8330    8.7080 c2        1 4UC     -0.264000
     21 C14         3.1150   -1.6470    5.3580 c2        1 4UC     -0.050000
     22 C12         3.0180    0.7810    5.8730 c2        1 4UC      0.246000
     23 C11         2.2040    1.1620    4.7590 c2        1 4UC     -0.090000
     24 O31         2.1760    0.3110    3.6110 os        1 4UC     -0.078000
     25 C9          0.8830    2.1510    3.3290 c2        1 4UC     -0.074000
     26 C32        -0.0280    2.9840    2.5840 c2        1 4UC     -0.124000
     27 C33        -0.4930    2.5100    1.4090 c2        1 4UC     -0.024000
     28 S3         -1.0030    0.6120   -0.2130 s4        1 4UC      2.070800
     29 O4         -2.0730    1.2950   -0.7350 o         1 4UC     -0.482900
     30 O5         -0.6260   -0.5820   -0.7850 o         1 4UC     -0.482900
     31 N2         -2.7700   -0.8960    1.0640 nt        1 4UC     -0.461000
     32 C1         -2.7670   -0.8570    2.4760 c2        1 4UC      0.274000
     33 O34        -1.8910   -1.4870    3.0920 o         1 4UC     -0.329000
     34 C35        -3.7850    0.0070    3.1640 c3        1 4UC     -0.250000
     35 H1          0.8550   -0.6320    1.3790 hc        1 4UC      0.122500
     36 H2          1.9280    0.6770    0.7180 hc        1 4UC      0.122500
     37 H3          2.2250   -1.6190    4.7100 ha        1 4UC      0.172000
     38 H4          5.8650   -2.6020    9.3950 ha        1 4UC      0.194000
     39 H5          4.9630    2.9170    9.1440 hc        1 4UC      0.170500
     40 H6          7.6340   -5.6100    4.6440 h1        1 4UC      0.111000
     41 H7          6.0870   -6.5610    4.3490 h1        1 4UC      0.111000
     42 H8          5.4220   -2.8120    6.7070 ha        1 4UC      0.215000
     43 H9          5.9780   -7.1340    6.8030 hc        1 4UC      0.096000
     44 H10         7.5590   -7.6760    6.0950 hc        1 4UC      0.096000
     45 H11         7.4820   -6.1710    7.1080 hc        1 4UC      0.096000
     46 H12         1.0970    4.5070    9.5840 ha        1 4UC      0.242000
     47 H13         4.1360    1.6850   10.1910 hc        1 4UC      0.170500
     48 H14         2.7540    2.6990    6.8680 ha        1 4UC      0.210000
     49 H15         5.7010   -0.1750    6.2090 h1        1 4UC      0.158000
     50 H16         3.5810   -2.6470    5.4790 ha        1 4UC      0.172000
     51 H17         2.1870   -6.9230    3.9800 ha        1 4UC      0.237000
     52 H18        -0.3040    3.9690    2.9850 ha        1 4UC      0.168000
     53 H19        -1.1910    3.1310    0.8150 ha        1 4UC      0.149000
     54 H20        -2.3880   -1.7400    0.6760 hn        1 4UC      0.217000
     55 H21        -3.8000    1.0370    2.7300 hc        1 4UC      0.120000
     56 H22        -4.8010   -0.4470    3.0540 hc        1 4UC      0.120000
     57 H23        -3.5350    0.0740    4.2510 hc        1 4UC      0.120000
     58 N10         1.4310    2.2660    4.5870 n2        1 4UC     -0.021000
     59 H221       -3.6400   -0.6390    0.6440 hn        1 4UC      0.217000
@<TRIPOS>BOND
     1    1    2 1   
     2    1   27 1   
     3    1   28 1   
     4    2    3 1   
     5    2   35 1   
     6    2   36 1   
     7    3   24 1   
     8    3   25 1   
     9    4   19 1   
    10    4   21 1   
    11    4   22 1   
    12    5   18 1   
    13    5   20 1   
    14    6   19 1   
    15    6   20 1   
    16    6   42 1   
    17    7    8 1   
    18    7   17 1   
    19    7   18 1   
    20    8   15 1   
    21    8   39 1   
    22    8   47 1   
    23    9   16 1   
    24    9   51 1   
    25   10   14 1   
    26   10   16 1   
    27   11   13 1   
    28   11   14 1   
    29   11   40 1   
    30   11   41 1   
    31   12   15 1   
    32   12   46 1   
    33   13   43 1   
    34   13   44 1   
    35   13   45 1   
    36   17   22 1   
    37   17   48 1   
    38   18   19 1   
    39   19   49 1   
    40   20   38 1   
    41   21   37 1   
    42   21   50 1   
    43   22   23 1   
    44   23   24 1   
    45   23   58 1   
    46   25   26 1   
    47   25   58 1   
    48   26   27 1   
    49   26   52 1   
    50   27   53 1   
    51   28   29 1   
    52   28   30 1   
    53   31   32 1   
    54   31   54 1   
    55   31   59 1   
    56   32   33 1   
    57   32   34 1   
    58   34   55 1   
    59   34   56 1   
    60   34   57 1   
@<TRIPOS>SUBSTRUCTURE
     1 4UC         1 TEMP              0 ****  ****    0 ROOT
