@<TRIPOS>MOLECULE
4UE
   35    34     1     0     0
SMALL
bcc


@<TRIPOS>ATOM
      1 C1         -0.4340    0.1510   -0.1530 ca        1 4UE     -0.084800
      2 C2          0.8590    0.8300    0.0610 ca        1 4UE     -0.101000
      3 C3          1.7520    0.0410    0.7560 ca        1 4UE     -0.158000
      4 C5         -0.0790   -0.1520    2.2610 ca        1 4UE     -0.179800
      5 N7          1.9140    0.0790    3.3980 na        1 4UE     -0.065400
      6 C9         -0.3470   -0.3080    3.6430 cc        1 4UE     -0.044200
      7 C14         2.7850   -0.2350   10.0080 c1        1 4UE     -0.171000
      8 C15        -0.2800   -0.0770   -2.5470 ce        1 4UE      0.398700
      9 C16        -1.0970    0.0240   -1.4470 cf        1 4UE      0.150800
     10 C18        -1.0170   -0.2980   -4.9790 c1        1 4UE      0.436800
     11 O11         0.2370   -0.4220    6.6420 o         1 4UE     -0.559000
     12 O12         2.3720   -0.0340    6.1860 oh        1 4UE     -0.627100
     13 C13         1.7340   -0.3720    9.4520 c1        1 4UE     -0.171000
     14 C8          0.8860   -0.1550    4.3300 cd        1 4UE     -0.209300
     15 C6          1.3590    0.0880    2.1560 ca        1 4UE     -0.035200
     16 C4         -0.9150   -0.2430    1.0720 ca        1 4UE     -0.029000
     17 N17        -2.5000   -0.0890   -1.4810 nu        1 4UE     -0.724000
     18 N19        -0.6940   -0.1960   -3.8440 n1        1 4UE     -1.105500
     19 H1          2.1660   -0.9060    0.3850 ha        1 4UE      0.151000
     20 H2          0.7810    1.9130    0.2580 ha        1 4UE      0.134000
     21 H3          2.8640    0.2210    3.6400 hn        1 4UE      0.322700
     22 H4         -1.3040   -0.5070    4.1220 ha        1 4UE      0.175000
     23 H5          4.6300    0.2580    7.3380 ha        1 4UE      0.001500
     24 H6          4.3850    0.1730    7.9650 ha        1 4UE      0.001500
     25 H7          3.7130   -0.1150   10.5070 ha        1 4UE      0.172000
     26 H8          0.8200   -0.0870   -2.4150 h4        1 4UE      0.163000
     27 H9         -2.8500   -0.3230   -2.3900 hn        1 4UE      0.395800
     28 H10        -2.8650    1.1940    0.1500 h1        1 4UE      0.040033
     29 H11        -4.3270    0.5980   -0.7680 h1        1 4UE      0.040033
     30 H12        -3.2740    1.9110   -1.4720 h1        1 4UE      0.040033
     31 H13         2.4040   -0.0960    7.1590 ho        1 4UE      0.462000
     32 H14         0.8030   -0.4920    8.9480 ha        1 4UE      0.172000
     33 H15        -1.9310   -0.6460    1.1970 ha        1 4UE      0.159000
     34 C10         1.0850   -0.2200    5.7640 c         1 4UE      0.681300
     35 C20        -3.2700    0.9620   -0.8690 c3        1 4UE      0.165100
@<TRIPOS>BOND
     1    1    2 ar  
     2    1    9 1   
     3    1   16 ar  
     4    2    3 ar  
     5    2   20 1   
     6    3   15 ar  
     7    3   19 1   
     8    4    6 1   
     9    4   15 ar  
    10    4   16 ar  
    11    5   14 1   
    12    5   15 1   
    13    5   21 1   
    14    6   14 2   
    15    6   22 1   
    16    7   13 3   
    17    7   25 1   
    18    8    9 2   
    19    8   18 1   
    20    8   26 1   
    21    9   17 1   
    22   10   18 3   
    23   11   34 2   
    24   12   31 1   
    25   12   34 1   
    26   13   32 1   
    27   14   34 1   
    28   16   33 1   
    29   17   27 1   
    30   17   35 1   
    31   23   24 1   
    32   28   35 1   
    33   29   35 1   
    34   30   35 1   
@<TRIPOS>SUBSTRUCTURE
     1 4UE         1 TEMP              0 ****  ****    0 ROOT
