@<TRIPOS>MOLECULE
4UF
   55    54     1     0     0
SMALL
bcc


@<TRIPOS>ATOM
      1 C1         -0.0590   -0.4860   -0.4250 ca        1 4UF     -0.074500
      2 C2          1.3120   -0.5580   -0.1580 ca        1 4UF     -0.048000
      3 C3          1.7510   -0.5140    1.1760 ca        1 4UF     -0.074500
      4 C4          0.8460   -0.3870    2.2190 ca        1 4UF     -0.172500
      5 C5         -0.9770   -0.3640    0.6140 ca        1 4UF     -0.172500
      6 C6         -0.5420   -0.2940    1.9520 ca        1 4UF      0.042000
      7 C8         -2.8230   -0.1790    2.7520 c2        1 4UF     -0.366000
      8 C9         -3.3730   -0.2770    1.5250 c1        1 4UF      0.244000
      9 C10        -3.7340   -0.0960    3.9320 c2        1 4UF      0.361000
     10 C13        -5.9270    0.3690    7.2000 c3        1 4UF     -0.315000
     11 C14        -5.0920    1.4630    7.6330 c1        1 4UF     -0.064000
     12 C15         2.2890   -0.7230   -1.2150 c2        1 4UF     -0.047000
     13 C18         4.0280   -1.3400   -2.5190 c2        1 4UF     -0.194000
     14 C19         3.4040   -1.5800   -1.2390 c2        1 4UF     -0.148000
     15 C21         5.2530   -2.0410   -2.9650 c2        1 4UF      0.396000
     16 O23         5.8330   -2.8280   -2.2100 o         1 4UF     -0.260000
     17 O33         4.3370    1.9100   -9.6150 o         1 4UF     -0.229000
     18 O32         3.6070    3.4900  -11.2240 os        1 4UF     -0.246000
     19 C28         4.8180    3.0130  -11.9600 cx        1 4UF      0.081000
     20 C27         5.9080   -0.3170   -7.6110 c1        1 4UF     -0.204000
     21 C26         6.5260   -1.1040   -6.9520 c1        1 4UF     -0.215000
     22 C29         5.8760    3.9410  -12.1090 c1        1 4UF     -0.200000
     23 C30         6.7790    4.7110  -12.2580 c1        1 4UF     -0.113000
     24 C25         7.2670   -2.0460   -6.1660 c3        1 4UF     -0.119000
     25 C24         6.7950   -2.3390   -4.7850 c1        1 4UF     -0.043000
     26 N22         5.7100   -1.7620   -4.2850 ns        1 4UF     -0.241000
     27 N17         3.3250   -0.3920   -3.2130 n2        1 4UF     -0.042000
     28 N16         2.3000   -0.0250   -2.4470 na        1 4UF     -0.092000
     29 N7         -1.4330   -0.0550    3.0210 nu        1 4UF     -0.199000
     30 O12        -4.6990   -0.8220    4.1570 o         1 4UF     -0.278000
     31 O11        -3.5140    0.8580    4.8790 oh        1 4UF     -0.283000
     32 H1         -0.4250   -0.5470   -1.4620 ha        1 4UF      0.148500
     33 H2          2.8290   -0.5840    1.3930 ha        1 4UF      0.148500
     34 H3          1.2170   -0.3510    3.2550 ha        1 4UF      0.156500
     35 H4         -2.0590   -0.3240    0.3300 ha        1 4UF      0.156500
     36 H5         -2.8040    1.4600    4.6110 ho        1 4UF      0.249000
     37 H6         -5.6560   -0.1190    6.2280 hc        1 4UF      0.115667
     38 H7         -6.9800    0.7580    7.1280 hc        1 4UF      0.115667
     39 H8         -5.9270   -0.4110    8.0100 hc        1 4UF      0.115667
     40 H9         -4.2810    1.7520    6.9420 ha        1 4UF      0.032000
     41 H10         3.7390   -2.2820   -0.4810 ha        1 4UF      0.188000
     42 H11         0.9090    1.4460   -1.9160 h1        1 4UF      0.107667
     43 H12         0.5150    0.4970   -3.4370 h1        1 4UF      0.107667
     44 H13         1.8290    1.7690   -3.4700 h1        1 4UF      0.107667
     45 H15         5.3590    0.3820   -8.1950 ha        1 4UF      0.237000
     46 H16         8.3360   -1.6960   -6.0540 hc        1 4UF      0.141500
     47 H17         4.5590    2.4380  -12.8780 h1        1 4UF      0.170000
     48 H18         7.3030   -3.0440   -6.6960 hc        1 4UF      0.141500
     49 H19         7.5820    5.3930  -12.3900 ha        1 4UF      0.235000
     50 H20         9.0400   -1.9980   -3.8100 ha        1 4UF      0.000000
     51 H21         9.6380   -1.6920   -3.7200 ha        1 4UF      0.000000
     52 H22        -1.1640   -0.5140    3.8720 hn        1 4UF      0.211000
     53 C20         1.3370    0.9790   -2.8420 c3        1 4UF     -0.070000
     54 H222        5.1580   -1.1030   -4.8070 hn        1 4UF      0.199000
     55 C31         4.3900    2.5250  -10.6510 cu        1 4UF      0.304000
@<TRIPOS>BOND
     1    1    2 1   
     2    1    5 1   
     3    1   32 1   
     4    2    3 1   
     5    2   12 1   
     6    3    4 1   
     7    3   33 1   
     8    4    6 1   
     9    4   34 1   
    10    5    6 1   
    11    5   35 1   
    12    6   29 1   
    13    7    8 1   
    14    7    9 1   
    15    7   29 1   
    16    9   30 1   
    17    9   31 1   
    18   10   11 1   
    19   10   37 1   
    20   10   38 1   
    21   10   39 1   
    22   11   40 1   
    23   12   14 1   
    24   12   28 1   
    25   13   14 1   
    26   13   15 1   
    27   13   27 1   
    28   14   41 1   
    29   15   16 1   
    30   15   26 1   
    31   17   55 1   
    32   18   19 1   
    33   18   55 1   
    34   19   22 1   
    35   19   47 1   
    36   19   55 1   
    37   20   21 1   
    38   20   45 1   
    39   21   24 1   
    40   22   23 1   
    41   23   49 1   
    42   24   25 1   
    43   24   46 1   
    44   24   48 1   
    45   25   26 1   
    46   26   54 1   
    47   27   28 1   
    48   28   53 1   
    49   29   52 1   
    50   31   36 1   
    51   42   53 1   
    52   43   53 1   
    53   44   53 1   
    54   50   51 1   
@<TRIPOS>SUBSTRUCTURE
     1 4UF         1 TEMP              0 ****  ****    0 ROOT
