@<TRIPOS>MOLECULE
4UF
   55    53     1     0     0
SMALL
bcc


@<TRIPOS>ATOM
      1 C1          0.3270   -0.8510    0.9650 c2        1 4UF     -0.017000
      2 C2          1.6930   -1.2140    0.6320 c2        1 4UF     -0.085000
      3 C3          2.4090   -1.8270    1.6110 c2        1 4UF     -0.032000
      4 C4          1.9580   -2.3160    2.8890 c2        1 4UF     -0.204000
      5 C5         -0.6680   -1.7470    1.1830 c2        1 4UF     -0.266000
      6 C6          0.9750   -1.9860    3.7590 c2        1 4UF     -0.032000
      7 C8         -1.0300   -0.7310    3.3010 c2        1 4UF     -0.047000
      8 C9         -1.6320   -1.5300    2.2170 c1        1 4UF      0.053000
      9 C10        -1.8870    0.4390    3.7110 c2        1 4UF      0.380000
     10 C13        -4.5730    3.0310    4.0710 c3        1 4UF     -0.315000
     11 C14        -3.9620    2.5120    5.2540 c1        1 4UF     -0.067000
     12 C15         2.2910   -0.8620   -0.6340 c2        1 4UF     -0.026000
     13 C18         3.6260   -0.6600   -2.4480 c2        1 4UF     -0.200000
     14 C19         3.5260   -1.2940   -1.1570 c2        1 4UF     -0.149000
     15 C21         4.7730   -0.8470   -3.3550 c2        1 4UF      0.399000
     16 O23         5.7230   -1.5730   -3.0570 o         1 4UF     -0.238000
     17 O33         7.8130    1.9840  -12.0090 o         1 4UF     -0.431000
     18 O32         5.9260    0.6960  -12.0330 o         1 4UF     -0.431000
     19 C28         7.0250    0.8160  -10.0840 c1        1 4UF      0.226000
     20 C27         6.8210    0.3300   -8.9630 c1        1 4UF     -0.393000
     21 C26         6.5660   -0.2080   -7.7660 c2        1 4UF      0.308000
     22 C29         3.3770    0.4010  -10.0830 c1        1 4UF     -0.236000
     23 C30         2.7070    0.3390   -9.0930 c1        1 4UF     -0.236000
     24 C25         5.5180    0.3290   -6.8750 c3        1 4UF     -0.268000
     25 C24         5.5640   -0.4180   -5.5810 c1        1 4UF     -0.070000
     26 N22         4.7320   -0.1320   -4.6000 n         1 4UF     -0.230000
     27 N17         2.5120    0.1060   -2.6810 n2        1 4UF     -0.050000
     28 N16         1.7250   -0.0120   -1.6180 na        1 4UF     -0.084000
     29 N7          0.1030   -0.9150    3.9030 n2        1 4UF     -0.137000
     30 O12        -2.0230    1.4680    3.0300 o         1 4UF     -0.425000
     31 O11        -2.5310    0.3010    4.8640 oh        1 4UF     -0.347000
     32 H1          0.1830    0.2200    1.2230 ha        1 4UF      0.153000
     33 H2          3.4830   -2.0300    1.4170 ha        1 4UF      0.141000
     34 H3          2.6020   -3.1540    3.2390 ha        1 4UF      0.140000
     35 H4         -0.6730   -2.7510    0.7220 ha        1 4UF      0.184000
     36 H5         -3.1290    1.1380    5.0660 ho        1 4UF      0.320000
     37 H6         -3.7440    3.0790    3.2950 hc        1 4UF      0.140333
     38 H7         -5.0750    4.0260    4.1440 hc        1 4UF      0.140333
     39 H8         -5.3060    2.2740    3.6730 hc        1 4UF      0.140333
     40 H9         -3.9600    3.1120    6.1720 ha        1 4UF      0.077000
     41 H10         4.2580   -1.9640   -0.7150 ha        1 4UF      0.189000
     42 H11         0.5220    1.4310   -0.6730 h1        1 4UF      0.113333
     43 H12        -0.3430   -0.0820   -1.2590 h1        1 4UF      0.113333
     44 H13         0.1930    1.1930   -2.4580 h1        1 4UF      0.113333
     45 H15         7.1260   -1.1010   -7.4070 ha        1 4UF      0.191000
     46 H16         4.5180    0.2060   -7.4040 hc        1 4UF      0.164000
     47 H17         3.9870    0.4590  -10.9620 ha        1 4UF      0.236500
     48 H18         5.6590    1.4410   -6.7420 hc        1 4UF      0.164000
     49 H19         2.0810    0.2880   -8.2390 ha        1 4UF      0.236500
     50 H20         2.9660    1.5350   -6.4350 ha        1 4UF      0.001000
     51 H21         2.4690    1.7650   -6.0360 ha        1 4UF      0.001000
     52 H22         0.9100   -2.6180    4.6810 h4        1 4UF      0.157000
     53 C20         0.4550    0.6720   -1.4990 c3        1 4UF     -0.076000
     54 H222        4.0210    0.5770   -4.6670 hn        1 4UF      0.198000
     55 C31         6.9490    1.2360  -11.5410 c2        1 4UF      0.411000
@<TRIPOS>BOND
     1    1    2 1   
     2    1    5 1   
     3    1   32 1   
     4    2    3 1   
     5    2   12 1   
     6    3    4 1   
     7    3   33 1   
     8    4    6 1   
     9    4   34 1   
    10    5    8 1   
    11    5   35 1   
    12    6   29 1   
    13    6   52 1   
    14    7    8 1   
    15    7    9 1   
    16    7   29 1   
    17    9   30 1   
    18    9   31 1   
    19   10   11 1   
    20   10   37 1   
    21   10   38 1   
    22   10   39 1   
    23   11   40 1   
    24   12   14 1   
    25   12   28 1   
    26   13   14 1   
    27   13   15 1   
    28   13   27 1   
    29   14   41 1   
    30   15   16 1   
    31   15   26 1   
    32   17   55 1   
    33   18   55 1   
    34   19   20 1   
    35   19   55 1   
    36   20   21 1   
    37   21   24 1   
    38   21   45 1   
    39   22   23 1   
    40   22   47 1   
    41   23   49 1   
    42   24   25 1   
    43   24   46 1   
    44   24   48 1   
    45   25   26 1   
    46   26   54 1   
    47   27   28 1   
    48   28   53 1   
    49   31   36 1   
    50   42   53 1   
    51   43   53 1   
    52   44   53 1   
    53   50   51 1   
@<TRIPOS>SUBSTRUCTURE
     1 4UF         1 TEMP              0 ****  ****    0 ROOT
