@<TRIPOS>MOLECULE
4UG
   30    30     1     0     0
SMALL
bcc


@<TRIPOS>ATOM
      1 C6          0.3160    0.6040   -0.5380 c3        1 4UG     -0.101400
      2 C11         4.1820   -0.7870    1.4300 c3        1 4UG      0.141500
      3 C13         1.8080    0.4320   -0.3240 c3        1 4UG     -0.076400
      4 C15         1.4090    0.1750    2.1200 c         1 4UG      0.706500
      5 C17         3.7510    0.6780    1.2750 c3        1 4UG     -0.082400
      6 C19         5.6340   -2.5490    0.4760 c1        1 4UG      0.102700
      7 C24         5.3600   -1.1150    0.4700 c3        1 4UG      0.201200
      8 C25         2.2600    0.8680    1.0630 c3        1 4UG     -0.149700
      9 C27        -0.4910    0.8180    0.7460 c3        1 4UG      0.081000
     10 N3          4.5620   -1.1070    2.8460 n4        1 4UG     -0.842600
     11 N4          0.0620    0.1720    1.9080 n         1 4UG     -0.525900
     12 O3          6.4730   -0.3710    0.9320 oh        1 4UG     -0.603800
     13 O4          1.9030   -0.3780    3.1360 o         1 4UG     -0.742500
     14 H19        -0.0790   -0.3000   -1.0740 hc        1 4UG      0.072200
     15 H20         0.1260    1.4870   -1.2040 hc        1 4UG      0.072200
     16 H21         3.3140   -1.4670    1.1670 hx        1 4UG      0.125700
     17 H22         2.0850   -0.6450   -0.4810 hc        1 4UG      0.053200
     18 H23         2.3670    1.0300   -1.0920 hc        1 4UG      0.053200
     19 H24         4.2930    1.1200    0.3940 hc        1 4UG      0.088200
     20 H25         4.0630    1.2810    2.1710 hc        1 4UG      0.088200
     21 H26         5.0690   -0.7980   -0.5760 h1        1 4UG      0.112700
     22 H27         2.0570    1.9780    1.1630 hc        1 4UG      0.108700
     23 H28        -0.5610    1.9280    0.9500 h1        1 4UG      0.068200
     24 H29        -1.5390    0.4330    0.5920 h1        1 4UG      0.068200
     25 H30         3.7840   -0.8300    3.4740 hn        1 4UG      0.474467
     26 H31        -0.5480   -0.2410    2.5770 hn        1 4UG      0.348500
     27 H32         7.1930   -0.4720    0.2920 ho        1 4UG      0.459000
     28 H2          5.4110   -0.5900    3.0960 hn        1 4UG      0.474467
     29 H33         4.7400   -2.1100    2.9390 hn        1 4UG      0.474467
     30 N2          5.8570   -3.6890    0.4520 n1        1 4UG     -0.249800
@<TRIPOS>BOND
     1    1    3 1   
     2    1    9 1   
     3    1   14 1   
     4    1   15 1   
     5    2    5 1   
     6    2    7 1   
     7    2   10 1   
     8    2   16 1   
     9    3    8 1   
    10    3   17 1   
    11    3   18 1   
    12    4    8 1   
    13    4   11 1   
    14    4   13 2   
    15    5    8 1   
    16    5   19 1   
    17    5   20 1   
    18    6    7 1   
    19    6   30 3   
    20    7   12 1   
    21    7   21 1   
    22    8   22 1   
    23    9   11 1   
    24    9   23 1   
    25    9   24 1   
    26   10   25 1   
    27   10   28 1   
    28   10   29 1   
    29   11   26 1   
    30   12   27 1   
@<TRIPOS>SUBSTRUCTURE
     1 4UG         1 TEMP              0 ****  ****    0 ROOT
