@<TRIPOS>MOLECULE
4UG
   30    37     1     0     0
SMALL
bcc


@<TRIPOS>ATOM
      1 C6          0.0000    0.0000    0.0000 DU        1 4UG     -0.242000
      2 C11         4.2670   -0.8840    0.8210 DU        1 4UG     -0.685000
      3 C13         1.5330    0.0000    0.0000 DU        1 4UG     -0.051000
      4 C15         1.2980    1.0640    2.2310 c2        1 4UG      0.440000
      5 C17         3.5220    0.2750    1.4870 DU        1 4UG     -0.102000
      6 C19         6.4750   -1.6660    0.0990 c1        1 4UG     -0.184000
      7 C24         5.7580   -0.5520    0.7400 c3        1 4UG      0.210000
      8 C25         2.0170    0.0000    1.4530 DU        1 4UG     -0.749000
      9 C27        -0.4890    1.3390    0.5540 c3        1 4UG      0.101000
     10 N3          4.0800   -2.1070    1.6140 nz        1 4UG      0.163000
     11 N4          0.1660    1.6370    1.8220 ns        1 4UG     -0.286000
     12 O3          6.2730   -0.3490    2.0580 oh        1 4UG     -0.227000
     13 O4          1.7720    1.4210    3.2880 o         1 4UG     -0.222000
     14 H19         1.0080   -0.3910   -0.0770 DU        1 4UG      0.117000
     15 H20        -0.3630   -0.1280   -1.0130 ha        1 4UG      0.186000
     16 H21         3.1850   -0.8670    0.7770 hx        1 4UG      0.320000
     17 H22         2.5210   -0.4380   -0.0770 ha        1 4UG      0.142500
     18 H23         1.8970    0.8870   -0.5040 ha        1 4UG      0.142500
     19 H24         2.8990   -0.1730    0.7220 DU        1 4UG     -0.002500
     20 H25         3.8480    0.3700    2.5160 ha        1 4UG      0.184000
     21 H26         4.9420    0.1550    0.8250 DU        1 4UG      0.211000
     22 H27         3.0410    0.0940    1.1100 DU        1 4UG     -0.002500
     23 H28         0.2170    0.6290    0.9670 DU        1 4UG      0.328000
     24 H29        -1.5600    1.2900    0.7090 h1        1 4UG      0.172000
     25 H30         3.3920   -1.4370    1.3330 DU        1 4UG      0.129000
     26 H31         0.9060    0.9780    1.9620 hn        1 4UG      0.186000
     27 H32         5.4020    0.0070    2.1070 ho        1 4UG      0.196000
     28 H2          4.8820   -1.5180    1.7180 hn        1 4UG      0.222000
     29 H33         3.3000   -2.6710    1.3380 hn        1 4UG      0.222000
     30 N2          7.0150   -2.5390   -0.3880 n1        1 4UG      0.081000
@<TRIPOS>BOND
     1    1    3 1   
     2    1    9 1   
     3    1   14 1   
     4    1   15 1   
     5    1   23 1   
     6    2    5 1   
     7    2    7 1   
     8    2   10 1   
     9    2   16 1   
    10    2   21 1   
    11    2   25 1   
    12    3    8 1   
    13    3   14 1   
    14    3   17 1   
    15    3   18 1   
    16    4    8 1   
    17    4   11 1   
    18    4   13 1   
    19    5    8 1   
    20    5   19 1   
    21    5   20 1   
    22    5   22 1   
    23    6    7 1   
    24    6   30 1   
    25    7   12 1   
    26    7   21 1   
    27    8   19 1   
    28    8   22 1   
    29    9   11 1   
    30    9   23 1   
    31    9   24 1   
    32   10   25 1   
    33   10   28 1   
    34   10   29 1   
    35   11   26 1   
    36   12   27 1   
    37   19   22 1   
@<TRIPOS>SUBSTRUCTURE
     1 4UG         1 TEMP              0 ****  ****    0 ROOT
