@<TRIPOS>MOLECULE
4UM
   30    31     1     0     0
SMALL
bcc


@<TRIPOS>ATOM
      1 C10        -0.1130   -0.0040    0.1310 c         1 4UM      0.657300
      2 C11         6.8130    0.0020    2.7520 c         1 4UM      0.580700
      3 C16        -1.8240   -0.0080   -1.5310 c3        1 4UM      0.143400
      4 C17        -1.8940   -0.0120   -3.0370 c3        1 4UM     -0.105100
      5 C1          3.3430   -0.0010    1.4810 ca        1 4UM     -0.146800
      6 C2          3.5540   -0.0040    0.0390 ca        1 4UM      0.024800
      7 C3          1.9140   -0.0010    1.6860 cc        1 4UM     -0.067200
      8 C4          4.4310    0.0010    2.3390 ca        1 4UM      0.062000
      9 N5          2.3250   -0.0050   -0.5790 na        1 4UM     -0.125400
     10 C6          4.8660   -0.0050   -0.4920 ca        1 4UM     -0.124000
     11 C7          1.3270   -0.0040    0.4180 cd        1 4UM     -0.095300
     12 C8          5.7290   -0.0000    1.7950 ca        1 4UM     -0.260600
     13 C9          5.9240   -0.0030    0.3870 ca        1 4UM     -0.082000
     14 O12        -0.4150   -0.0070   -1.1980 os        1 4UM     -0.451900
     15 O13        -1.0170   -0.0020    0.9660 o         1 4UM     -0.495000
     16 N14         8.2360    0.0010    2.1980 nz        1 4UM     -0.762400
     17 O15         6.7850    0.0040    3.9770 o         1 4UM     -0.441100
     18 H1         -2.2920    0.9080   -1.0850 h1        1 4UM      0.064700
     19 H2         -2.2920   -0.9220   -1.0800 h1        1 4UM      0.064700
     20 H3         -1.3960   -0.9200   -3.4540 hc        1 4UM      0.055700
     21 H4         -1.3950    0.8920   -3.4590 hc        1 4UM      0.055700
     22 H5         -2.9680   -0.0130   -3.3450 hc        1 4UM      0.055700
     23 H6          1.3870    0.0010    2.6400 ha        1 4UM      0.199000
     24 H7          4.2840    0.0030    3.4340 ha        1 4UM      0.177000
     25 H8          2.1390   -0.0070   -1.5540 hn        1 4UM      0.338700
     26 H9          5.0290   -0.0070   -1.5800 ha        1 4UM      0.167000
     27 H10         6.9380   -0.0040   -0.0420 ha        1 4UM      0.119000
     28 H11         8.3840   -0.8330    1.6250 hn        1 4UM      0.464133
     29 H12         8.9060    0.0030    2.9770 hn        1 4UM      0.464133
     30 H143        8.3840    0.8330    1.6220 hn        1 4UM      0.464133
@<TRIPOS>BOND
     1    1   11 1   
     2    1   14 1   
     3    1   15 2   
     4    2   12 1   
     5    2   16 1   
     6    2   17 2   
     7    3    4 1   
     8    3   14 1   
     9    3   18 1   
    10    3   19 1   
    11    4   20 1   
    12    4   21 1   
    13    4   22 1   
    14    5    6 ar  
    15    5    7 1   
    16    5    8 ar  
    17    6    9 1   
    18    6   10 ar  
    19    7   11 2   
    20    7   23 1   
    21    8   12 ar  
    22    8   24 1   
    23    9   11 1   
    24    9   25 1   
    25   10   13 ar  
    26   10   26 1   
    27   12   13 ar  
    28   13   27 1   
    29   16   28 1   
    30   16   29 1   
    31   16   30 1   
@<TRIPOS>SUBSTRUCTURE
     1 4UM         1 TEMP              0 ****  ****    0 ROOT
