@<TRIPOS>MOLECULE
4UN
   53    55     1     0     0
SMALL
bcc


@<TRIPOS>ATOM
      1 O16        -0.6520    0.0220   -0.4360 o         1 4UN     -0.578067
      2 S13         0.5230    0.6910   -0.3830 s4        1 4UN      1.809000
      3 O14         0.8790    1.3500    0.7500 o         1 4UN     -0.578067
      4 O15         1.2490    0.8800   -1.5150 o         1 4UN     -0.697867
      5 N8          2.0970   -1.1570    0.2570 nh        1 4UN     -0.869200
      6 C4          1.5780   -2.4680    0.4510 ca        1 4UN      0.068600
      7 C5          1.4710   -3.3620   -0.6330 ca        1 4UN     -0.148000
      8 C2          0.8950   -4.6140   -0.4510 ca        1 4UN     -0.097000
      9 C6          0.4260   -5.0160    0.8060 ca        1 4UN     -0.090300
     10 C3          0.5300   -4.1260    1.8810 ca        1 4UN     -0.097000
     11 C1          1.1030   -2.8700    1.7160 ca        1 4UN     -0.148000
     12 C49        -0.2310   -6.3390    0.9840 c3        1 4UN     -0.037100
     13 C10         0.7510   -7.5170    1.1860 c3        1 4UN     -0.055600
     14 C17        -0.0580   -8.7510    1.5110 cc        1 4UN      0.539800
     15 N22        -1.2590   -9.0840    0.9700 nd        1 4UN     -0.365300
     16 O29        -1.6270  -10.2230    1.5070 os        1 4UN     -0.143100
     17 C27        -0.6190  -10.6360    2.4360 cd        1 4UN      0.505200
     18 C28        -0.8510  -11.8980    3.1530 c3        1 4UN     -0.132900
     19 N23         0.3630   -9.7380    2.4510 nc        1 4UN     -0.668500
     20 C18         1.6290   -7.2020    2.3690 cc        1 4UN      0.539800
     21 N20         1.1820   -7.0690    3.6470 nd        1 4UN     -0.365300
     22 O25         2.2210   -6.7950    4.3980 os        1 4UN     -0.143100
     23 C26         3.3830   -6.7480    3.5680 cd        1 4UN      0.505200
     24 C24         4.6650   -6.4660    4.2300 c3        1 4UN     -0.132900
     25 N21         3.0360   -6.9930    2.3070 nc        1 4UN     -0.668500
     26 C19         1.5340   -7.7410   -0.1170 c3        1 4UN     -0.023100
     27 C36         2.3000   -9.0120   -0.2290 ca        1 4UN     -0.081300
     28 C40         1.6560  -10.1900   -0.6320 ca        1 4UN     -0.115000
     29 C43         2.3760  -11.3720   -0.7900 ca        1 4UN     -0.134500
     30 C39         3.7510  -11.3910   -0.5570 ca        1 4UN     -0.126000
     31 C42         4.4030  -10.2190   -0.1770 ca        1 4UN     -0.134500
     32 C41         3.6840   -9.0340   -0.0210 ca        1 4UN     -0.115000
     33 HN8         2.7670   -1.1380   -0.4920 hn        1 4UN      0.397300
     34 H5          1.8310   -3.0740   -1.6330 ha        1 4UN      0.142000
     35 H2          0.8030   -5.2970   -1.3110 ha        1 4UN      0.144000
     36 H3          0.1510   -4.4200    2.8730 ha        1 4UN      0.144000
     37 H1          1.1700   -2.1900    2.5800 ha        1 4UN      0.142000
     38 H491       -0.8620   -6.5550    0.0790 hc        1 4UN      0.075700
     39 H492       -0.9200   -6.2970    1.8710 hc        1 4UN      0.075700
     40 H281       -0.9040  -11.7010    4.2540 hc        1 4UN      0.077533
     41 H282       -0.0080  -12.6070    2.9540 hc        1 4UN      0.077533
     42 H283       -1.8110  -12.3590    2.8140 hc        1 4UN      0.077533
     43 H241        4.4920   -6.2130    5.3050 hc        1 4UN      0.077533
     44 H242        5.1750   -5.6080    3.7240 hc        1 4UN      0.077533
     45 H243        5.3260   -7.3670    4.1670 hc        1 4UN      0.077533
     46 H191        0.7860   -7.7100   -0.9590 hc        1 4UN      0.066700
     47 H192        2.2290   -6.8680   -0.2560 hc        1 4UN      0.066700
     48 H40         0.5740  -10.1810   -0.8340 ha        1 4UN      0.138500
     49 H43         1.8580  -12.2900   -1.1030 ha        1 4UN      0.129000
     50 H39         4.3190  -12.3240   -0.6790 ha        1 4UN      0.129000
     51 H42         5.4890  -10.2250   -0.0030 ha        1 4UN      0.129000
     52 H41         4.2140   -8.1110    0.2600 ha        1 4UN      0.138500
     53 H82         2.5130   -0.8010    1.1000 hn        1 4UN      0.397300
@<TRIPOS>BOND
     1    1    2 1   
     2    2    3 1   
     3    2    4 2   
     4    5    6 1   
     5    5   33 1   
     6    5   53 1   
     7    6    7 ar  
     8    6   11 ar  
     9    7    8 ar  
    10    7   34 1   
    11    8    9 ar  
    12    8   35 1   
    13    9   10 ar  
    14    9   12 1   
    15   10   11 ar  
    16   10   36 1   
    17   11   37 1   
    18   12   13 1   
    19   12   38 1   
    20   12   39 1   
    21   13   14 1   
    22   13   20 1   
    23   13   26 1   
    24   14   15 2   
    25   14   19 1   
    26   15   16 1   
    27   16   17 1   
    28   17   18 1   
    29   17   19 2   
    30   18   40 1   
    31   18   41 1   
    32   18   42 1   
    33   20   21 2   
    34   20   25 1   
    35   21   22 1   
    36   22   23 1   
    37   23   24 1   
    38   23   25 2   
    39   24   43 1   
    40   24   44 1   
    41   24   45 1   
    42   26   27 1   
    43   26   46 1   
    44   26   47 1   
    45   27   28 ar  
    46   27   32 ar  
    47   28   29 ar  
    48   28   48 1   
    49   29   30 ar  
    50   29   49 1   
    51   30   31 ar  
    52   30   50 1   
    53   31   32 ar  
    54   31   51 1   
    55   32   52 1   
@<TRIPOS>SUBSTRUCTURE
     1 4UN         1 TEMP              0 ****  ****    0 ROOT
