@<TRIPOS>MOLECULE
4UN
   52    47     1     0     0
SMALL
bcc


@<TRIPOS>ATOM
      1 O16         4.3510    1.4920   -5.3660 o         1 4UN     -1.065000
      2 S13         4.1900    0.4580   -4.2750 ss        1 4UN      2.840000
      3 O14         4.9180   -0.7210   -4.8780 o         1 4UN     -1.065000
      4 O15         4.8460    0.9090   -2.9940 os        1 4UN     -1.052000
      5 N8          2.6030    0.1100   -4.0120 n2        1 4UN     -0.786000
      6 C4          2.0890    0.0810   -2.6790 c2        1 4UN      0.160000
      7 C5          1.6830   -1.1230   -2.1180 c2        1 4UN     -0.235000
      8 C2          1.1270   -1.1440   -0.8420 c1        1 4UN     -0.077000
      9 C6          0.9780    0.0390   -0.1290 c1        1 4UN     -0.181000
     10 C3          1.3850    1.2430   -0.6910 c1        1 4UN     -0.070000
     11 C1          1.9410    1.2640   -1.9680 c1        1 4UN     -0.209000
     12 C49         0.5530   -0.0090    1.3570 c3        1 4UN     -0.088000
     13 C10        -0.9010   -0.5760    1.4660 c3        1 4UN      0.138000
     14 C17        -0.9950   -1.8880    0.6960 c2        1 4UN     -0.084500
     15 N22        -0.9710   -3.1220    1.2380 n2        1 4UN     -0.026500
     16 O29        -1.2830   -4.0200    0.2590 os        1 4UN     -0.093500
     17 C27        -1.4980   -3.3350   -0.8820 c1        1 4UN      0.027000
     18 C28        -1.9270   -3.9340   -2.2200 c2        1 4UN     -0.170000
     19 N23        -1.3210   -2.0160   -0.6190 n2        1 4UN     -0.165000
     20 C18        -1.2450   -0.8270    2.9490 c2        1 4UN     -0.084500
     21 N20        -2.1100   -1.7450    3.4100 n2        1 4UN     -0.026500
     22 O25        -2.2590   -1.5470    4.7560 os        1 4UN     -0.093500
     23 C26        -1.4820   -0.5070    5.1120 c1        1 4UN      0.027000
     24 C24        -1.3000    0.0340    6.5250 c2        1 4UN     -0.170000
     25 N21        -0.8520   -0.0560    3.9990 n2        1 4UN     -0.165000
     26 C19        -1.8980    0.4400    0.8740 c3        1 4UN     -0.107000
     27 C36        -1.1320    1.5410    0.1340 c2        1 4UN     -0.066000
     28 C40        -0.5280    2.5630    0.8530 c2        1 4UN     -0.132000
     29 C43         0.0020    3.6630    0.1870 c1        1 4UN     -0.141000
     30 C39        -0.0730    3.7390   -1.1980 c1        1 4UN     -0.132000
     31 C42        -0.6750    2.7180   -1.9170 c1        1 4UN     -0.132000
     32 C41        -1.2050    1.6190   -1.2530 c1        1 4UN     -0.103000
     33 HN8         2.0540   -0.0690   -4.7160 hn        1 4UN      0.207000
     34 H5          1.7880   -1.9560   -2.6200 ha        1 4UN      0.117000
     35 H2          0.8430   -1.9870   -0.4500 ha        1 4UN      0.112000
     36 H3          1.2810    2.0740   -0.1920 ha        1 4UN      0.130000
     37 H1          2.1660    2.1190   -2.3890 ha        1 4UN      0.168000
     38 H491        0.5790    0.8950    1.7330 hc        1 4UN      0.097000
     39 H492        1.1690   -0.5890    1.8550 hc        1 4UN      0.097000
     40 H281       -2.8830   -4.1630   -2.1850 ha        1 4UN      0.123167
     41 H282       -1.7720   -3.2810   -2.9340 ha        1 4UN      0.123167
     42 H283       -1.4030   -4.7460   -2.3990 ha        1 4UN      0.123167
     43 H241       -2.0230   -0.3050    7.1030 ha        1 4UN      0.123167
     44 H242       -0.4330   -0.2600    6.8790 ha        1 4UN      0.123167
     45 H243       -1.3300    1.0150    6.5060 ha        1 4UN      0.123167
     46 H191       -2.4980   -0.0180    0.2470 hc        1 4UN      0.095000
     47 H192       -2.4250    0.8390    1.5960 hc        1 4UN      0.095000
     48 H40        -0.5450    2.5470    1.8280 ha        1 4UN      0.127000
     49 H43         0.4270    4.3830    0.6930 ha        1 4UN      0.121000
     50 H39         0.3530    4.4850   -1.6710 ha        1 4UN      0.129500
     51 H42        -0.7280    2.7720   -2.8960 ha        1 4UN      0.129500
     52 H41        -1.6300    0.8990   -1.7610 ha        1 4UN      0.161000
@<TRIPOS>BOND
     1    1    2 1   
     2    2    3 1   
     3    5    6 1   
     4    5   33 1   
     5    6    7 1   
     6    6   11 1   
     7    7    8 1   
     8    7   34 1   
     9    8   35 1   
    10    9   10 1   
    11    9   12 1   
    12   10   36 1   
    13   11   37 1   
    14   12   13 1   
    15   12   38 1   
    16   12   39 1   
    17   13   14 1   
    18   13   20 1   
    19   13   26 1   
    20   14   15 1   
    21   14   19 1   
    22   15   16 1   
    23   16   17 1   
    24   17   19 1   
    25   18   40 1   
    26   18   41 1   
    27   18   42 1   
    28   20   21 1   
    29   20   25 1   
    30   21   22 1   
    31   22   23 1   
    32   23   25 1   
    33   24   43 1   
    34   24   44 1   
    35   24   45 1   
    36   26   27 1   
    37   26   46 1   
    38   26   47 1   
    39   27   28 1   
    40   27   32 1   
    41   28   29 1   
    42   28   48 1   
    43   29   49 1   
    44   30   31 1   
    45   30   50 1   
    46   31   51 1   
    47   32   52 1   
@<TRIPOS>SUBSTRUCTURE
     1 4UN         1 TEMP              0 ****  ****    0 ROOT
