@<TRIPOS>MOLECULE
4UN
   52    55     1     0     0
SMALL
bcc


@<TRIPOS>ATOM
      1 O16         1.6530   -1.8950   -1.5830 o         1 4UN     -0.736533
      2 S13         2.7330   -0.9830   -1.5940 s6        1 4UN      1.534700
      3 O14         3.5610   -1.0480   -0.4430 o         1 4UN     -0.736533
      4 O15         3.4620   -1.0260   -2.8140 o         1 4UN     -0.736533
      5 N8          2.0620    0.6050   -1.4900 nu        1 4UN     -0.731500
      6 C4          1.2710    1.2300   -2.4260 ca        1 4UN      0.249600
      7 C5          1.1560    2.6440   -2.4910 ca        1 4UN     -0.218500
      8 C2          0.5020    3.2540   -3.5530 ca        1 4UN     -0.079500
      9 C6         -0.0800    2.4970   -4.5730 ca        1 4UN     -0.185300
     10 C3         -0.0990    1.1000   -4.4380 ca        1 4UN     -0.079500
     11 C1          0.5520    0.4710   -3.3930 ca        1 4UN     -0.218500
     12 C49        -0.6240    3.1320   -5.8000 c3        1 4UN     -0.005100
     13 C10         0.4770    3.3990   -6.8650 c3        1 4UN     -0.064600
     14 C17        -0.1850    3.6770   -8.1920 cc        1 4UN      0.550800
     15 N22        -1.3570    4.3400   -8.3740 nd        1 4UN     -0.382300
     16 O29        -1.5880    4.3830   -9.6670 os        1 4UN     -0.157600
     17 C27        -0.5160    3.7170  -10.3400 cd        1 4UN      0.513200
     18 C28        -0.5920    3.6450  -11.8060 c3        1 4UN     -0.145400
     19 N23         0.3660    3.2780   -9.4470 nc        1 4UN     -0.669500
     20 C18         1.3180    2.1540   -6.9590 cc        1 4UN      0.550800
     21 N20         0.9560    1.0050   -7.5890 nd        1 4UN     -0.382300
     22 O25         1.8770    0.1080   -7.3190 os        1 4UN     -0.157600
     23 C26         2.8640    0.7040   -6.4710 cd        1 4UN      0.513200
     24 C24         3.9310   -0.1710   -5.9650 c3        1 4UN     -0.145400
     25 N21         2.5480    1.9800   -6.2620 nc        1 4UN     -0.669500
     26 C19         1.2780    4.6390   -6.4360 c3        1 4UN     -0.029100
     27 C36         2.2640    5.1630   -7.4200 ca        1 4UN     -0.067300
     28 C40         1.8530    6.0420   -8.4310 ca        1 4UN     -0.116500
     29 C43         2.7800    6.5780   -9.3230 ca        1 4UN     -0.138000
     30 C39         4.1300    6.2490   -9.2110 ca        1 4UN     -0.137000
     31 C42         4.5490    5.3860   -8.2000 ca        1 4UN     -0.138000
     32 C41         3.6240    4.8500   -7.3030 ca        1 4UN     -0.116500
     33 HN8         2.3830    1.1980   -0.7630 hn        1 4UN      0.412800
     34 H5          1.6200    3.2670   -1.7130 ha        1 4UN      0.142500
     35 H2          0.4620    4.3530   -3.6020 ha        1 4UN      0.116000
     36 H3         -0.6230    0.4900   -5.1900 ha        1 4UN      0.116000
     37 H1          0.5400   -0.6310   -3.3160 ha        1 4UN      0.142500
     38 H491       -1.4000    2.4620   -6.2570 hc        1 4UN      0.054200
     39 H492       -1.1180    4.1080   -5.5490 hc        1 4UN      0.054200
     40 H281        0.3250    4.1020  -12.2570 hc        1 4UN      0.083700
     41 H282       -0.6550    2.5740  -12.1270 hc        1 4UN      0.083700
     42 H283       -1.4960    4.1930  -12.1690 hc        1 4UN      0.083700
     43 H241        3.7080   -0.4500   -4.8890 hc        1 4UN      0.083700
     44 H242        3.9830   -1.1040   -6.5760 hc        1 4UN      0.083700
     45 H243        4.9140    0.3590   -5.9960 hc        1 4UN      0.083700
     46 H191        0.5340    5.4540   -6.2130 hc        1 4UN      0.072700
     47 H192        1.8000    4.3900   -5.4710 hc        1 4UN      0.072700
     48 H40         0.7900    6.3100   -8.5200 ha        1 4UN      0.143000
     49 H43         2.4440    7.2630  -10.1140 ha        1 4UN      0.122500
     50 H39         4.8600    6.6690   -9.9170 ha        1 4UN      0.119000
     51 H42         5.6130    5.1250   -8.1050 ha        1 4UN      0.122500
     52 H41         3.9660    4.1790   -6.5000 ha        1 4UN      0.143000
@<TRIPOS>BOND
     1    1    2 1   
     2    2    3 1   
     3    2    4 1   
     4    2    5 1   
     5    5    6 1   
     6    5   33 1   
     7    6    7 ar  
     8    6   11 ar  
     9    7    8 ar  
    10    7   34 1   
    11    8    9 ar  
    12    8   35 1   
    13    9   10 ar  
    14    9   12 1   
    15   10   11 ar  
    16   10   36 1   
    17   11   37 1   
    18   12   13 1   
    19   12   38 1   
    20   12   39 1   
    21   13   14 1   
    22   13   20 1   
    23   13   26 1   
    24   14   15 2   
    25   14   19 1   
    26   15   16 1   
    27   16   17 1   
    28   17   18 1   
    29   17   19 2   
    30   18   40 1   
    31   18   41 1   
    32   18   42 1   
    33   20   21 2   
    34   20   25 1   
    35   21   22 1   
    36   22   23 1   
    37   23   24 1   
    38   23   25 2   
    39   24   43 1   
    40   24   44 1   
    41   24   45 1   
    42   26   27 1   
    43   26   46 1   
    44   26   47 1   
    45   27   28 ar  
    46   27   32 ar  
    47   28   29 ar  
    48   28   48 1   
    49   29   30 ar  
    50   29   49 1   
    51   30   31 ar  
    52   30   50 1   
    53   31   32 ar  
    54   31   51 1   
    55   32   52 1   
@<TRIPOS>SUBSTRUCTURE
     1 4UN         1 TEMP              0 ****  ****    0 ROOT
