@<TRIPOS>MOLECULE
4UN
   52    55     1     0     0
SMALL
bcc


@<TRIPOS>ATOM
      1 O16        -5.4090   -0.5530   -2.1670 o         1 4UN     -0.736533
      2 S13        -5.0420   -1.4980   -1.1810 s6        1 4UN      1.534700
      3 O14        -6.1300   -2.2370   -0.6490 o         1 4UN     -0.736533
      4 O15        -3.9560   -2.3160   -1.5970 o         1 4UN     -0.736533
      5 N8         -4.4790   -0.6110    0.1910 nh        1 4UN     -0.731500
      6 C4         -3.3590    0.1850    0.2570 ca        1 4UN      0.249600
      7 C5         -2.7200    0.4850    1.4890 ca        1 4UN     -0.218500
      8 C2         -1.4930    1.1340    1.5120 ca        1 4UN     -0.079500
      9 C6         -0.8630    1.5290    0.3290 ca        1 4UN     -0.185300
     10 C3         -1.5560    1.3680   -0.8810 ca        1 4UN     -0.079500
     11 C1         -2.7760    0.7190   -0.9280 ca        1 4UN     -0.218500
     12 C49         0.5230    2.0600    0.3260 c3        1 4UN     -0.005100
     13 C10         1.5890    0.9280    0.3100 c3        1 4UN     -0.064600
     14 C17         2.9230    1.5200   -0.0750 cc        1 4UN      0.550800
     15 N22         3.3760    2.7540    0.2700 nd        1 4UN     -0.382300
     16 O29         4.5770    2.8900   -0.2470 os        1 4UN     -0.157600
     17 C27         4.9040    1.6900   -0.9520 cd        1 4UN      0.513200
     18 C28         6.2150    1.6450   -1.6180 c3        1 4UN     -0.145400
     19 N23         3.8980    0.8270   -0.8540 nc        1 4UN     -0.669500
     20 C18         1.1550   -0.0780   -0.7220 cc        1 4UN      0.550800
     21 N20         1.2660    0.0760   -2.0680 nd        1 4UN     -0.382300
     22 O25         0.6410   -0.9360   -2.6270 os        1 4UN     -0.157600
     23 C26         0.0970   -1.7660   -1.5960 cd        1 4UN      0.513200
     24 C24        -0.7370   -2.9000   -2.0170 c3        1 4UN     -0.145400
     25 N21         0.4310   -1.2650   -0.4080 nc        1 4UN     -0.669500
     26 C19         1.6930    0.3380    1.7240 c3        1 4UN     -0.029100
     27 C36         2.7920   -0.6390    1.9560 ca        1 4UN     -0.067300
     28 C40         4.0790   -0.1900    2.2800 ca        1 4UN     -0.116500
     29 C43         5.1000   -1.0990    2.5500 ca        1 4UN     -0.138000
     30 C39         4.8450   -2.4700    2.5060 ca        1 4UN     -0.137000
     31 C42         3.5640   -2.9250    2.1980 ca        1 4UN     -0.138000
     32 C41         2.5400   -2.0170    1.9310 ca        1 4UN     -0.116500
     33 HN8        -4.9050   -0.7930    1.0680 hn        1 4UN      0.412800
     34 H5         -3.1820    0.1710    2.4350 ha        1 4UN      0.142500
     35 H2         -0.9990    1.3200    2.4790 ha        1 4UN      0.116000
     36 H3         -1.1120    1.7470   -1.8150 ha        1 4UN      0.116000
     37 H1         -3.2960    0.5870   -1.8940 ha        1 4UN      0.142500
     38 H491        0.7000    2.7000    1.2300 hc        1 4UN      0.054200
     39 H492        0.6770    2.7010   -0.5830 hc        1 4UN      0.054200
     40 H281        6.7830    2.5830   -1.4060 hc        1 4UN      0.083700
     41 H282        6.7980    0.7650   -1.2470 hc        1 4UN      0.083700
     42 H283        6.0700    1.5410   -2.7230 hc        1 4UN      0.083700
     43 H241       -1.8300   -2.6370   -1.8720 hc        1 4UN      0.083700
     44 H242       -0.5610   -3.1250   -3.0960 hc        1 4UN      0.083700
     45 H243       -0.5060   -3.8020   -1.3990 hc        1 4UN      0.083700
     46 H191        1.8320    1.2000    2.4350 hc        1 4UN      0.072700
     47 H192        0.7030   -0.1390    1.9680 hc        1 4UN      0.072700
     48 H40         4.2840    0.8900    2.3220 ha        1 4UN      0.143000
     49 H43         6.1060   -0.7350    2.7990 ha        1 4UN      0.122500
     50 H39         5.6510   -3.1870    2.7150 ha        1 4UN      0.119000
     51 H42         3.3560   -4.0040    2.1650 ha        1 4UN      0.122500
     52 H41         1.5280   -2.3850    1.7000 ha        1 4UN      0.143000
@<TRIPOS>BOND
     1    1    2 1   
     2    2    3 1   
     3    2    4 1   
     4    2    5 1   
     5    5    6 1   
     6    5   33 1   
     7    6    7 ar  
     8    6   11 ar  
     9    7    8 ar  
    10    7   34 1   
    11    8    9 ar  
    12    8   35 1   
    13    9   10 ar  
    14    9   12 1   
    15   10   11 ar  
    16   10   36 1   
    17   11   37 1   
    18   12   13 1   
    19   12   38 1   
    20   12   39 1   
    21   13   14 1   
    22   13   20 1   
    23   13   26 1   
    24   14   15 2   
    25   14   19 1   
    26   15   16 1   
    27   16   17 1   
    28   17   18 1   
    29   17   19 2   
    30   18   40 1   
    31   18   41 1   
    32   18   42 1   
    33   20   21 2   
    34   20   25 1   
    35   21   22 1   
    36   22   23 1   
    37   23   24 1   
    38   23   25 2   
    39   24   43 1   
    40   24   44 1   
    41   24   45 1   
    42   26   27 1   
    43   26   46 1   
    44   26   47 1   
    45   27   28 ar  
    46   27   32 ar  
    47   28   29 ar  
    48   28   48 1   
    49   29   30 ar  
    50   29   49 1   
    51   30   31 ar  
    52   30   50 1   
    53   31   32 ar  
    54   31   51 1   
    55   32   52 1   
@<TRIPOS>SUBSTRUCTURE
     1 4UN         1 TEMP              0 ****  ****    0 ROOT
