@<TRIPOS>MOLECULE
4UO
   32    34     1     0     0
SMALL
bcc


@<TRIPOS>ATOM
      1 O6         -0.1150    0.2460   -0.6240 o         1 4UO     -0.579500
      2 C6          1.1080    0.0610   -0.5850 c         1 4UO      0.657000
      3 N1          1.6810   -0.4450    0.6060 ns        1 4UO     -0.593500
      4 C2          3.0450   -0.7060    0.7970 c         1 4UO      0.820500
      5 O2          3.4790   -1.1510    1.8800 o         1 4UO     -0.633500
      6 N3          3.9610   -0.4670   -0.2570 ns        1 4UO     -0.449100
      7 C4          3.4600    0.0320   -1.4420 cc        1 4UO     -0.004000
      8 C5          2.0680    0.3070   -1.6530 cd        1 4UO      0.189800
      9 N7          1.8730    0.8070   -2.9430 nd        1 4UO     -0.571000
     10 C8          3.0920    0.8390   -3.5050 cc        1 4UO      0.406400
     11 N9          4.1110    0.3680   -2.6340 na        1 4UO     -0.246900
     12 C1'         5.5370    0.3220   -2.8540 c3        1 4UO      0.215800
     13 O4'         5.8350    0.6140   -4.2240 os        1 4UO     -0.408600
     14 C4'         6.5530   -0.4700   -4.8390 c3        1 4UO      0.058100
     15 C5'         5.6330   -1.1810   -5.8320 c3        1 4UO      0.114400
     16 O5'         5.2950   -0.3300   -6.9040 oh        1 4UO     -0.582800
     17 C3'         7.0500   -1.4070   -3.7250 c3        1 4UO      0.091100
     18 O3'         8.3910   -1.1190   -3.3770 oh        1 4UO     -0.597800
     19 C2'         6.1740   -1.0660   -2.5010 c3        1 4UO      0.113100
     20 O2'         6.8500   -0.9940   -1.2760 oh        1 4UO     -0.584800
     21 H1          1.0820   -0.6300    1.3830 hn        1 4UO      0.356500
     22 H2          4.9300   -0.6590   -0.1130 hn        1 4UO      0.373500
     23 H3          3.3370    1.1860   -4.5150 h5        1 4UO      0.076100
     24 H4          6.0210    1.1470   -2.2460 h2        1 4UO      0.097700
     25 H5          7.4050    0.0270   -5.3800 h1        1 4UO      0.102700
     26 H6          4.7070   -1.5430   -5.3100 h1        1 4UO      0.058200
     27 H7          6.1680   -2.0460   -6.3060 h1        1 4UO      0.058200
     28 H8          4.8610    0.4460   -6.5270 ho        1 4UO      0.412000
     29 H9          6.9390   -2.4850   -4.0120 h1        1 4UO      0.074700
     30 H10         8.9540   -1.5080   -4.0560 ho        1 4UO      0.427000
     31 H11         5.3950   -1.8670   -2.3560 h1        1 4UO      0.105700
     32 H12         7.7040   -0.5560   -1.4120 ho        1 4UO      0.440000
@<TRIPOS>BOND
     1    1    2 2   
     2    2    3 1   
     3    2    8 1   
     4    3    4 1   
     5    3   21 1   
     6    4    5 2   
     7    4    6 1   
     8    6    7 1   
     9    6   22 1   
    10    7    8 2   
    11    7   11 1   
    12    8    9 1   
    13    9   10 2   
    14   10   11 1   
    15   10   23 1   
    16   11   12 1   
    17   12   13 1   
    18   12   19 1   
    19   12   24 1   
    20   13   14 1   
    21   14   15 1   
    22   14   17 1   
    23   14   25 1   
    24   15   16 1   
    25   15   26 1   
    26   15   27 1   
    27   16   28 1   
    28   17   18 1   
    29   17   19 1   
    30   17   29 1   
    31   18   30 1   
    32   19   20 1   
    33   19   31 1   
    34   20   32 1   
@<TRIPOS>SUBSTRUCTURE
     1 4UO         1 TEMP              0 ****  ****    0 ROOT
