@<TRIPOS>MOLECULE
4UP
   38    33     1     0     0
SMALL
bcc


@<TRIPOS>ATOM
      1 N2         -4.7210    1.4080    4.7770 n3        1 4UP     -0.397000
      2 C1         -3.8840    0.3300    4.3430 c2        1 4UP      0.126000
      3 N1         -3.6760   -0.7000    5.1310 n1        1 4UP     -0.293000
      4 C2         -3.2320    0.3780    2.9650 c1        1 4UP     -0.056000
      5 C11        -1.8730    0.6260    3.1560 c1        1 4UP     -0.093000
      6 C10        -0.9320    0.1810    2.1990 c1        1 4UP     -0.041000
      7 C5         -1.3590   -0.4980    1.0770 c1        1 4UP     -0.052000
      8 C4         -2.7360   -0.7480    0.8840 c1        1 4UP     -0.117000
      9 C3         -3.6640   -0.3090    1.8280 c1        1 4UP     -0.111000
     10 C9          0.4450    0.4360    2.3890 c1        1 4UP     -0.093000
     11 C8          1.3720    0.0020    1.4420 c1        1 4UP     -0.117000
     12 C7          0.9400   -0.6850    0.3060 c1        1 4UP     -0.052000
     13 C6         -0.4180   -0.9370    0.1170 c2        1 4UP     -0.105000
     14 C12         2.0340   -0.7430   -0.7770 cu        1 4UP     -0.004000
     15 C13         2.1400    0.4230   -1.6250 cx        1 4UP      0.000000
     16 O           3.1600    0.1830   -0.5960 os        1 4UP     -0.252000
     17 C14         2.5820    0.1560   -3.0770 c2        1 4UP     -0.085000
     18 C19         1.6570    0.2460   -4.1120 c2        1 4UP     -0.115000
     19 C18         2.0640    0.0470   -5.4270 c1        1 4UP     -0.133000
     20 C17         3.3960   -0.2400   -5.7070 c1        1 4UP     -0.126500
     21 C16         4.3200   -0.3300   -4.6720 c1        1 4UP     -0.126500
     22 C15         3.9130   -0.1310   -3.3570 c1        1 4UP     -0.107000
     23 H1         -5.2040    1.3290    5.5530 hn        1 4UP      0.194000
     24 H2         -4.7730    2.1770    4.2800 hn        1 4UP      0.194000
     25 H3         -4.0680   -0.7290    5.9590 DU        1 4UP      0.139000
     26 H4         -1.5730    1.1370    3.9380 ha        1 4UP      0.144500
     27 H5         -3.0410   -1.2310    0.0850 ha        1 4UP      0.144500
     28 H6         -4.6230   -0.4570    1.6790 ha        1 4UP      0.145000
     29 H7          0.7490    0.9200    3.1890 ha        1 4UP      0.144500
     30 H8          2.3290    0.1800    1.5750 ha        1 4UP      0.144500
     31 H9         -0.7210   -1.4200   -0.6810 ha        1 4UP      0.136000
     32 H10         2.2520   -1.6000   -1.2030 h4        1 4UP      0.141000
     33 H11         1.5050    1.1470   -1.4340 h1        1 4UP      0.140000
     34 H12         0.7170    0.4480   -3.9150 ha        1 4UP      0.133000
     35 H13         1.4110    0.1100   -6.1580 ha        1 4UP      0.133000
     36 H14         3.6830   -0.3810   -6.6360 ha        1 4UP      0.134000
     37 H15         5.2610   -0.5330   -4.8690 ha        1 4UP      0.134000
     38 H16         4.5660   -0.1940   -2.6260 ha        1 4UP      0.150000
@<TRIPOS>BOND
     1    1    2 1   
     2    1   23 1   
     3    1   24 1   
     4    2    3 1   
     5    2    4 1   
     6    4    9 1   
     7    5    6 1   
     8    5   26 1   
     9    6   10 1   
    10    7    8 1   
    11    7   13 1   
    12    8   27 1   
    13    9   28 1   
    14   10   29 1   
    15   11   12 1   
    16   11   30 1   
    17   12   13 1   
    18   13   31 1   
    19   14   15 1   
    20   14   16 1   
    21   14   32 1   
    22   15   16 1   
    23   15   17 1   
    24   15   33 1   
    25   17   18 1   
    26   17   22 1   
    27   18   19 1   
    28   18   34 1   
    29   19   35 1   
    30   20   21 1   
    31   20   36 1   
    32   21   37 1   
    33   22   38 1   
@<TRIPOS>SUBSTRUCTURE
     1 4UP         1 TEMP              0 ****  ****    0 ROOT
