@<TRIPOS>MOLECULE
4UP
   39    42     1     0     0
SMALL
bcc


@<TRIPOS>ATOM
      1 N2          0.2090    0.6060    0.0790 nz        1 4UP     -0.894600
      2 C1          1.3980   -0.3720    0.0960 ce        1 4UP      0.640800
      3 N1          1.7140   -1.1120    1.0710 n2        1 4UP     -0.679100
      4 C2          2.1150   -0.3000   -1.1960 ca        1 4UP     -0.231900
      5 C11         3.4570    0.0230   -1.2140 ca        1 4UP     -0.017000
      6 C10         4.1560    0.0730   -2.4490 ca        1 4UP     -0.054000
      7 C5          3.4660   -0.2260   -3.6540 ca        1 4UP     -0.009000
      8 C4          2.0870   -0.5780   -3.5940 ca        1 4UP     -0.077000
      9 C3          1.4220   -0.6160   -2.3960 ca        1 4UP     -0.147000
     10 C9          5.5370    0.4060   -2.5040 ca        1 4UP     -0.109000
     11 C8          6.1950    0.4410   -3.7090 ca        1 4UP     -0.090000
     12 C7          5.5070    0.1450   -4.9170 ca        1 4UP     -0.031300
     13 C6          4.1660   -0.1850   -4.8850 ca        1 4UP     -0.118000
     14 C12         6.2250    0.1670   -6.2040 cx        1 4UP      0.082400
     15 C13         6.7120    1.4520   -6.8110 cx        1 4UP      0.143400
     16 O           7.6140    0.5350   -6.1660 os        1 4UP     -0.384600
     17 C14         6.8240    1.6060   -8.2710 ca        1 4UP     -0.110300
     18 C19         6.0280    2.5610   -8.9150 ca        1 4UP     -0.107500
     19 C18         6.1180    2.7260  -10.2960 ca        1 4UP     -0.128500
     20 C17         7.0050    1.9460  -11.0390 ca        1 4UP     -0.110000
     21 C16         7.8040    0.9980  -10.3980 ca        1 4UP     -0.128500
     22 C15         7.7150    0.8260   -9.0180 ca        1 4UP     -0.107500
     23 H1         -0.3310    0.4460   -0.7770 hn        1 4UP      0.456133
     24 H2         -0.4050    0.5040    0.8880 hn        1 4UP      0.456133
     25 H3          1.2320   -1.1360    1.9420 hn        1 4UP      0.462400
     26 H4          4.0080    0.2360   -0.2830 ha        1 4UP      0.155000
     27 H5          1.5660   -0.8310   -4.5330 ha        1 4UP      0.159000
     28 H6          0.3700   -0.9360   -2.3600 ha        1 4UP      0.128000
     29 H7          6.0710    0.6280   -1.5670 ha        1 4UP      0.150000
     30 H8          7.2690    0.6910   -3.7660 ha        1 4UP      0.175000
     31 H9          3.6260   -0.4250   -5.8150 ha        1 4UP      0.154000
     32 H10         6.0110   -0.7010   -6.8630 h1        1 4UP      0.115700
     33 H11         6.5740    2.4020   -6.2530 h1        1 4UP      0.099700
     34 H12         5.3350    3.1840   -8.3310 ha        1 4UP      0.139500
     35 H13         5.4910    3.4770  -10.8000 ha        1 4UP      0.141000
     36 H14         7.0770    2.0810  -12.1280 ha        1 4UP      0.141000
     37 H15         8.5090    0.3870  -10.9810 ha        1 4UP      0.141000
     38 H16         8.3490    0.0860   -8.5040 ha        1 4UP      0.139500
     39 H23         0.5780    1.5610    0.0530 hn        1 4UP      0.456133
@<TRIPOS>BOND
     1    1    2 1   
     2    1   23 1   
     3    1   24 1   
     4    1   39 1   
     5    2    3 2   
     6    2    4 1   
     7    3   25 1   
     8    4    5 ar  
     9    4    9 ar  
    10    5    6 ar  
    11    5   26 1   
    12    6    7 ar  
    13    6   10 ar  
    14    7    8 ar  
    15    7   13 ar  
    16    8    9 ar  
    17    8   27 1   
    18    9   28 1   
    19   10   11 ar  
    20   10   29 1   
    21   11   12 ar  
    22   11   30 1   
    23   12   13 ar  
    24   12   14 1   
    25   13   31 1   
    26   14   15 1   
    27   14   16 1   
    28   14   32 1   
    29   15   16 1   
    30   15   17 1   
    31   15   33 1   
    32   17   18 ar  
    33   17   22 ar  
    34   18   19 ar  
    35   18   34 1   
    36   19   20 ar  
    37   19   35 1   
    38   20   21 ar  
    39   20   36 1   
    40   21   22 ar  
    41   21   37 1   
    42   22   38 1   
@<TRIPOS>SUBSTRUCTURE
     1 4UP         1 TEMP              0 ****  ****    0 ROOT
