@<TRIPOS>MOLECULE
4UP
   39    42     1     0     0
SMALL
bcc


@<TRIPOS>ATOM
      1 N2          0.4340   -1.0290    0.2600 n4        1 4UP     -0.894600
      2 C1          1.3370    0.2090    0.1110 ce        1 4UP      0.640800
      3 N1          1.4750    1.1140    0.9830 n2        1 4UP     -0.679100
      4 C2          2.0220    0.1640   -1.1980 ca        1 4UP     -0.231900
      5 C11         3.4010    0.1720   -1.2490 ca        1 4UP     -0.017000
      6 C10         4.0640    0.1420   -2.5040 ca        1 4UP     -0.055000
      7 C5          3.2950    0.1210   -3.6980 ca        1 4UP     -0.009000
      8 C4          1.8730    0.1420   -3.6090 ca        1 4UP     -0.077000
      9 C3          1.2450    0.1630   -2.3900 ca        1 4UP     -0.147000
     10 C9          5.4820    0.1370   -2.5920 ca        1 4UP     -0.109000
     11 C8          6.1020    0.1100   -3.8170 ca        1 4UP     -0.091000
     12 C7          5.3370    0.0860   -5.0140 ca        1 4UP     -0.030300
     13 C6          3.9560    0.0890   -4.9510 ca        1 4UP     -0.118000
     14 C12         6.0090    0.0470   -6.3240 cx        1 4UP      0.081400
     15 C13         6.8390    1.1990   -6.8150 cx        1 4UP      0.145400
     16 O           7.4450   -0.0060   -6.3150 os        1 4UP     -0.385600
     17 C14         6.9680    1.4840   -8.2530 ca        1 4UP     -0.111300
     18 C19         6.4560    2.6870   -8.7550 ca        1 4UP     -0.107000
     19 C18         6.5680    2.9790  -10.1120 ca        1 4UP     -0.129000
     20 C17         7.1960    2.0790  -10.9740 ca        1 4UP     -0.110000
     21 C16         7.7130    0.8830  -10.4750 ca        1 4UP     -0.129000
     22 C15         7.5990    0.5830   -9.1190 ca        1 4UP     -0.107000
     23 H1          1.0310   -1.8590    0.3230 hn        1 4UP      0.456467
     24 H2         -0.1720   -0.9880    1.0800 hn        1 4UP      0.456467
     25 H3          1.0210    1.1200    1.8690 hn        1 4UP      0.461400
     26 H4          4.0080    0.2070   -0.3290 ha        1 4UP      0.155000
     27 H5          1.2860    0.1500   -4.5420 ha        1 4UP      0.159000
     28 H6          0.1490    0.2250   -2.3360 ha        1 4UP      0.129000
     29 H7          6.0750    0.1560   -1.6640 ha        1 4UP      0.150000
     30 H8          7.2030    0.1010   -3.9000 ha        1 4UP      0.175000
     31 H9          3.3530    0.0680   -5.8730 ha        1 4UP      0.154000
     32 H10         5.5420   -0.6400   -7.0610 h1        1 4UP      0.113700
     33 H11         6.9920    2.0770   -6.1520 h1        1 4UP      0.101700
     34 H12         5.9690    3.4030   -8.0760 ha        1 4UP      0.140000
     35 H13         6.1650    3.9250  -10.5040 ha        1 4UP      0.141000
     36 H14         7.2870    2.3140  -12.0450 ha        1 4UP      0.141000
     37 H15         8.2140    0.1740  -11.1520 ha        1 4UP      0.141000
     38 H16         8.0120   -0.3560   -8.7170 ha        1 4UP      0.140000
     39 H23        -0.1450   -1.1120   -0.5830 hn        1 4UP      0.456467
@<TRIPOS>BOND
     1    1    2 1   
     2    1   23 1   
     3    1   24 1   
     4    1   39 1   
     5    2    3 2   
     6    2    4 1   
     7    3   25 1   
     8    4    5 ar  
     9    4    9 ar  
    10    5    6 ar  
    11    5   26 1   
    12    6    7 ar  
    13    6   10 ar  
    14    7    8 ar  
    15    7   13 ar  
    16    8    9 ar  
    17    8   27 1   
    18    9   28 1   
    19   10   11 ar  
    20   10   29 1   
    21   11   12 ar  
    22   11   30 1   
    23   12   13 ar  
    24   12   14 1   
    25   13   31 1   
    26   14   15 1   
    27   14   16 1   
    28   14   32 1   
    29   15   16 1   
    30   15   17 1   
    31   15   33 1   
    32   17   18 ar  
    33   17   22 ar  
    34   18   19 ar  
    35   18   34 1   
    36   19   20 ar  
    37   19   35 1   
    38   20   21 ar  
    39   20   36 1   
    40   21   22 ar  
    41   21   37 1   
    42   22   38 1   
@<TRIPOS>SUBSTRUCTURE
     1 4UP         1 TEMP              0 ****  ****    0 ROOT
