@<TRIPOS>MOLECULE
4UP
   39    42     1     0     0
SMALL
bcc


@<TRIPOS>ATOM
      1 N2          0.4310   -0.9910    0.2510 n4        1 4UP     -0.894600
      2 C1          1.3400    0.2420    0.1000 ce        1 4UP      0.640800
      3 N1          1.4840    1.1480    0.9700 n2        1 4UP     -0.679100
      4 C2          2.0230    0.1930   -1.2100 ca        1 4UP     -0.231900
      5 C11         3.4030    0.1930   -1.2620 ca        1 4UP     -0.017000
      6 C10         4.0640    0.1590   -2.5180 ca        1 4UP     -0.055000
      7 C5          3.2930    0.1400   -3.7110 ca        1 4UP     -0.009000
      8 C4          1.8720    0.1680   -3.6200 ca        1 4UP     -0.077000
      9 C3          1.2460    0.1940   -2.4010 ca        1 4UP     -0.147000
     10 C9          5.4820    0.1450   -2.6070 ca        1 4UP     -0.109000
     11 C8          6.1010    0.1140   -3.8330 ca        1 4UP     -0.091000
     12 C7          5.3340    0.0930   -5.0290 ca        1 4UP     -0.030300
     13 C6          3.9540    0.1030   -4.9650 ca        1 4UP     -0.118000
     14 C12         6.0050    0.0490   -6.3400 cx        1 4UP      0.081400
     15 C13         6.8430    1.1940   -6.8310 cx        1 4UP      0.145400
     16 O           7.4400   -0.0160   -6.3320 os        1 4UP     -0.385600
     17 C14         6.9730    1.4780   -8.2700 ca        1 4UP     -0.111300
     18 C19         6.4720    2.6860   -8.7700 ca        1 4UP     -0.107000
     19 C18         6.5850    2.9780  -10.1280 ca        1 4UP     -0.129000
     20 C17         7.2030    2.0710  -10.9900 ca        1 4UP     -0.110000
     21 C16         7.7080    0.8700  -10.4930 ca        1 4UP     -0.129000
     22 C15         7.5940    0.5710   -9.1360 ca        1 4UP     -0.107000
     23 H1          1.0240   -1.8230    0.3150 hn        1 4UP      0.456467
     24 H2         -0.1740   -0.9450    1.0720 hn        1 4UP      0.456467
     25 H3          1.0300    1.1570    1.8570 hn        1 4UP      0.461400
     26 H4          4.0110    0.2270   -0.3430 ha        1 4UP      0.155000
     27 H5          1.2840    0.1790   -4.5530 ha        1 4UP      0.159000
     28 H6          0.1500    0.2620   -2.3460 ha        1 4UP      0.129000
     29 H7          6.0760    0.1630   -1.6790 ha        1 4UP      0.150000
     30 H8          7.2020    0.0980   -3.9170 ha        1 4UP      0.175000
     31 H9          3.3500    0.0850   -5.8860 ha        1 4UP      0.154000
     32 H10         5.5310   -0.6350   -7.0770 h1        1 4UP      0.113700
     33 H11         7.0030    2.0710   -6.1680 h1        1 4UP      0.101700
     34 H12         5.9930    3.4070   -8.0910 ha        1 4UP      0.140000
     35 H13         6.1910    3.9280  -10.5190 ha        1 4UP      0.141000
     36 H14         7.2950    2.3060  -12.0620 ha        1 4UP      0.141000
     37 H15         8.2020    0.1570  -11.1710 ha        1 4UP      0.141000
     38 H16         7.9980   -0.3710   -8.7350 ha        1 4UP      0.140000
     39 H23        -0.1490   -1.0710   -0.5910 hn        1 4UP      0.456467
@<TRIPOS>BOND
     1    1    2 1   
     2    1   23 1   
     3    1   24 1   
     4    1   39 1   
     5    2    3 2   
     6    2    4 1   
     7    3   25 1   
     8    4    5 ar  
     9    4    9 ar  
    10    5    6 ar  
    11    5   26 1   
    12    6    7 ar  
    13    6   10 ar  
    14    7    8 ar  
    15    7   13 ar  
    16    8    9 ar  
    17    8   27 1   
    18    9   28 1   
    19   10   11 ar  
    20   10   29 1   
    21   11   12 ar  
    22   11   30 1   
    23   12   13 ar  
    24   12   14 1   
    25   13   31 1   
    26   14   15 1   
    27   14   16 1   
    28   14   32 1   
    29   15   16 1   
    30   15   17 1   
    31   15   33 1   
    32   17   18 ar  
    33   17   22 ar  
    34   18   19 ar  
    35   18   34 1   
    36   19   20 ar  
    37   19   35 1   
    38   20   21 ar  
    39   20   36 1   
    40   21   22 ar  
    41   21   37 1   
    42   22   38 1   
@<TRIPOS>SUBSTRUCTURE
     1 4UP         1 TEMP              0 ****  ****    0 ROOT
