@<TRIPOS>MOLECULE
4UP
   38    41     1     0     0
SMALL
bcc


@<TRIPOS>ATOM
      1 N2          6.7460   -0.9200   -0.6640 nh        1 4UP     -0.892800
      2 C1          5.9410   -0.4210    0.3820 ce        1 4UP      0.637800
      3 N1          6.4550   -0.0400    1.5150 n2        1 4UP     -0.834100
      4 C2          4.4710   -0.4400    0.0910 ca        1 4UP     -0.190900
      5 C11         3.7120    0.6840    0.3260 ca        1 4UP     -0.098000
      6 C10         2.3140    0.6750    0.0710 ca        1 4UP     -0.039000
      7 C5          1.7080   -0.5080   -0.4240 ca        1 4UP     -0.031000
      8 C4          2.5160   -1.6560   -0.6520 ca        1 4UP     -0.120000
      9 C3          3.8650   -1.6240   -0.4030 ca        1 4UP     -0.102000
     10 C9          1.5070    1.8230    0.2980 ca        1 4UP     -0.116000
     11 C8          0.1590    1.7890    0.0480 ca        1 4UP     -0.109000
     12 C7         -0.4530    0.6050   -0.4450 ca        1 4UP     -0.078300
     13 C6          0.3110   -0.5180   -0.6790 ca        1 4UP     -0.105000
     14 C12        -1.9010    0.5710   -0.7140 cx        1 4UP      0.112400
     15 C13        -2.9030    0.6860    0.3970 cx        1 4UP      0.120400
     16 O          -2.6440    1.7830   -0.4970 os        1 4UP     -0.395600
     17 C14        -4.2210    0.0350    0.3090 ca        1 4UP     -0.093300
     18 C19        -4.5220   -1.0100    1.1920 ca        1 4UP     -0.110500
     19 C18        -5.7630   -1.6410    1.1280 ca        1 4UP     -0.131500
     20 C17        -6.7100   -1.2320    0.1900 ca        1 4UP     -0.122000
     21 C16        -6.4160   -0.1880   -0.6870 ca        1 4UP     -0.131500
     22 C15        -5.1750    0.4450   -0.6300 ca        1 4UP     -0.110500
     23 H1          6.4010   -0.6890   -1.5690 hn        1 4UP      0.399300
     24 H2          7.7260   -0.7650   -0.5600 hn        1 4UP      0.399300
     25 H3          5.7810    0.1950    2.2110 hn        1 4UP      0.395400
     26 H4          4.1710    1.6090    0.7110 ha        1 4UP      0.141000
     27 H5          2.0370   -2.5710   -1.0320 ha        1 4UP      0.138000
     28 H6          4.4900   -2.5140   -0.5760 ha        1 4UP      0.151000
     29 H7          1.9850    2.7390    0.6770 ha        1 4UP      0.138000
     30 H8         -0.4760    2.6750    0.2160 ha        1 4UP      0.154000
     31 H9         -0.1480   -1.4410   -1.0680 ha        1 4UP      0.138000
     32 H10        -2.1850    0.0400   -1.6470 h1        1 4UP      0.102700
     33 H11        -2.5450    0.8660    1.4330 h1        1 4UP      0.101700
     34 H12        -3.7780   -1.3310    1.9360 ha        1 4UP      0.141500
     35 H13        -5.9950   -2.4630    1.8220 ha        1 4UP      0.134500
     36 H14        -7.6900   -1.7300    0.1430 ha        1 4UP      0.133000
     37 H15        -7.1630    0.1400   -1.4250 ha        1 4UP      0.134500
     38 H16        -4.9350    1.2730   -1.3150 ha        1 4UP      0.141500
@<TRIPOS>BOND
     1    1    2 1   
     2    1   23 1   
     3    1   24 1   
     4    2    3 2   
     5    2    4 1   
     6    3   25 1   
     7    4    5 ar  
     8    4    9 ar  
     9    5    6 ar  
    10    5   26 1   
    11    6    7 ar  
    12    6   10 ar  
    13    7    8 ar  
    14    7   13 ar  
    15    8    9 ar  
    16    8   27 1   
    17    9   28 1   
    18   10   11 ar  
    19   10   29 1   
    20   11   12 ar  
    21   11   30 1   
    22   12   13 ar  
    23   12   14 1   
    24   13   31 1   
    25   14   15 1   
    26   14   16 1   
    27   14   32 1   
    28   15   16 1   
    29   15   17 1   
    30   15   33 1   
    31   17   18 ar  
    32   17   22 ar  
    33   18   19 ar  
    34   18   34 1   
    35   19   20 ar  
    36   19   35 1   
    37   20   21 ar  
    38   20   36 1   
    39   21   22 ar  
    40   21   37 1   
    41   22   38 1   
@<TRIPOS>SUBSTRUCTURE
     1 4UP         1 TEMP              0 ****  ****    0 ROOT
