@<TRIPOS>MOLECULE
4UQ
   85    89     1     0     0
SMALL
bcc


@<TRIPOS>ATOM
      1 C13         2.5280   -1.0410   -0.0520 ca        1 4UQ     -0.130600
      2 C16         2.8980   -0.9530   -1.4980 c         1 4UQ      0.690700
      3 C15         1.4920    0.0410    1.8410 ca        1 4UQ     -0.108000
      4 C19         1.3260   -2.7700   -2.0860 c3        1 4UQ      0.044500
      5 C20         0.1500   -2.7810   -3.0770 c3        1 4UQ      0.109400
      6 C22         1.4610   -1.7560   -4.7520 c3        1 4UQ      0.109400
      7 C23         2.6860   -1.7010   -3.8270 c3        1 4UQ      0.044500
      8 C11         3.2040   -1.6630    2.1810 ca        1 4UQ     -0.108000
      9 C12         3.2750   -1.8550    0.8040 ca        1 4UQ     -0.100500
     10 C34         6.9820    1.3530   -2.6270 ca        1 4UQ     -0.222600
     11 C27         4.8460    3.4950   -0.3780 c3        1 4UQ      0.116500
     12 N1          5.0380    3.2560    2.1230 nh        1 4UQ     -0.773300
     13 N2          3.7470    1.6000    3.1780 nb        1 4UQ     -0.819000
     14 C3          4.5970    2.6450    3.2960 ca        1 4UQ      0.776200
     15 C4          5.0600    3.0740    4.6060 ca        1 4UQ     -0.316300
     16 C5          4.5870    2.4290    5.7140 ca        1 4UQ      0.003000
     17 C6          3.6910    1.3280    5.6260 ca        1 4UQ     -0.444900
     18 C7          3.3250    0.9010    4.2870 ca        1 4UQ      0.825200
     19 N9          2.5500   -0.2040    4.0430 nh        1 4UQ     -0.721300
     20 C10         2.3800   -0.6420    2.6950 ca        1 4UQ      0.117600
     21 C14         1.5730   -0.1610    0.4660 ca        1 4UQ     -0.100500
     22 N17         2.3290   -1.7780   -2.4210 n         1 4UQ     -0.420800
     23 O18         3.7720   -0.0970   -1.8190 o         1 4UQ     -0.725100
     24 O21         0.6080   -2.8440   -4.4200 os        1 4UQ     -0.387600
     25 N24         3.4920    1.2220    8.1440 n4        1 4UQ     -0.755400
     26 O25         2.4570   -0.3530    6.8550 o         1 4UQ     -0.488100
     27 C26         4.1360    3.3630    0.9910 c3        1 4UQ      0.185800
     28 C28         5.9190    4.5840   -0.3020 c3        1 4UQ     -0.105400
     29 C29         6.8520    4.3850    0.8670 c3        1 4UQ     -0.099400
     30 C30         6.0940    4.2540    2.1880 c3        1 4UQ      0.189800
     31 N31         5.3730    2.1860   -0.8780 n4        1 4UQ     -0.683800
     32 C32         5.8860    2.2660   -2.3150 c         1 4UQ      0.598700
     33 O33         5.3440    3.0940   -3.0320 o         1 4UQ     -0.432100
     34 C35         7.9920    1.8060   -3.4920 ca        1 4UQ     -0.065500
     35 C36         9.0410    0.9590   -3.8370 ca        1 4UQ     -0.135500
     36 C37         9.0980   -0.3530   -3.3480 ca        1 4UQ      0.023700
     37 C38         8.0650   -0.8000   -2.5020 ca        1 4UQ     -0.135500
     38 C39         7.0170    0.0360   -2.1440 ca        1 4UQ     -0.065500
     39 C40        10.2150   -1.2980   -3.7070 c3        1 4UQ     -0.027700
     40 C41        10.9170   -1.7560   -2.4310 c3        1 4UQ     -0.092100
     41 C42         9.6300   -2.5110   -4.4280 c3        1 4UQ     -0.092100
     42 C43        11.2510   -0.6530   -4.6190 c3        1 4UQ     -0.092100
     43 H1          0.7680    0.7670    2.2450 ha        1 4UQ      0.158000
     44 H2          0.9250   -2.5850   -1.0510 h1        1 4UQ      0.073450
     45 H3          1.8220   -3.7840   -2.1050 h1        1 4UQ      0.073450
     46 H4         -0.4530   -3.7170   -2.9400 h1        1 4UQ      0.071450
     47 H5         -0.4990   -1.8770   -2.9360 h1        1 4UQ      0.071450
     48 H6          0.8860   -0.7940   -4.7120 h1        1 4UQ      0.071450
     49 H7          1.7880   -1.9680   -5.8050 h1        1 4UQ      0.071450
     50 H8          3.3580   -2.5770   -4.0590 h1        1 4UQ      0.073450
     51 H9          3.2530   -0.7490   -4.0230 h1        1 4UQ      0.073450
     52 H10         3.8230   -2.2830    2.8490 ha        1 4UQ      0.158000
     53 H11         3.9500   -2.6230    0.3920 ha        1 4UQ      0.160500
     54 H12         4.0590    3.8170   -1.1310 hx        1 4UQ      0.132700
     55 H13         5.7490    3.9250    4.7080 ha        1 4UQ      0.175000
     56 H14         4.9280    2.7930    6.6980 ha        1 4UQ      0.131000
     57 H15         2.2170   -0.7810    4.7870 hn        1 4UQ      0.489800
     58 H16         0.9090    0.4010   -0.2110 ha        1 4UQ      0.160500
     59 H17         4.4990    1.1780    8.3160 hn        1 4UQ      0.467467
     60 H18         3.0040    0.6660    8.8610 hn        1 4UQ      0.467467
     61 H19         3.5150    4.3040    1.1000 h1        1 4UQ      0.093700
     62 H20         3.4270    2.4870    0.9600 h1        1 4UQ      0.093700
     63 H21         6.5000    4.6360   -1.2620 hc        1 4UQ      0.091200
     64 H22         5.3800    5.5660   -0.1960 hc        1 4UQ      0.091200
     65 H23         7.4990    3.4830    0.7050 hc        1 4UQ      0.075700
     66 H24         7.5380    5.2720    0.9530 hc        1 4UQ      0.075700
     67 H25         5.6570    5.2570    2.4660 h1        1 4UQ      0.071200
     68 H26         6.8370    3.9530    2.9800 h1        1 4UQ      0.071200
     69 H27         4.6150    1.4780   -0.8570 hn        1 4UQ      0.472300
     70 H28         7.9490    2.8280   -3.9030 ha        1 4UQ      0.152000
     71 H29         9.8230    1.3420   -4.5150 ha        1 4UQ      0.165500
     72 H30         8.0810   -1.8370   -2.1280 ha        1 4UQ      0.165500
     73 H31         6.1910   -0.3580   -1.5290 ha        1 4UQ      0.152000
     74 H32        11.7450   -2.4590   -2.6920 hc        1 4UQ      0.048033
     75 H33        11.3500   -0.8820   -1.8900 hc        1 4UQ      0.048033
     76 H34        10.2050   -2.2860   -1.7540 hc        1 4UQ      0.048033
     77 H35         9.1040   -2.1940   -5.3610 hc        1 4UQ      0.048033
     78 H36        10.4540   -3.2140   -4.7060 hc        1 4UQ      0.048033
     79 H37         8.9080   -3.0540   -3.7730 hc        1 4UQ      0.048033
     80 H38        10.7890   -0.3370   -5.5850 hc        1 4UQ      0.048033
     81 H39        11.7180    0.2330   -4.1250 hc        1 4UQ      0.048033
     82 H40        12.0590   -1.3920   -4.8450 hc        1 4UQ      0.048033
     83 H243        3.1820    2.1950    8.2050 hn        1 4UQ      0.467467
     84 H312        6.1340    1.8630   -0.2750 hn        1 4UQ      0.472300
     85 C8          3.1650    0.6500    6.7690 c         1 4UQ      0.589700
@<TRIPOS>BOND
     1    1    2 1   
     2    1    9 ar  
     3    1   21 ar  
     4    2   22 1   
     5    2   23 2   
     6    3   20 ar  
     7    3   21 ar  
     8    3   43 1   
     9    4    5 1   
    10    4   22 1   
    11    4   44 1   
    12    4   45 1   
    13    5   24 1   
    14    5   46 1   
    15    5   47 1   
    16    6    7 1   
    17    6   24 1   
    18    6   48 1   
    19    6   49 1   
    20    7   22 1   
    21    7   50 1   
    22    7   51 1   
    23    8    9 ar  
    24    8   20 ar  
    25    8   52 1   
    26    9   53 1   
    27   10   32 1   
    28   10   34 ar  
    29   10   38 ar  
    30   11   27 1   
    31   11   28 1   
    32   11   31 1   
    33   11   54 1   
    34   12   14 1   
    35   12   27 1   
    36   12   30 1   
    37   13   14 ar  
    38   13   18 ar  
    39   14   15 ar  
    40   15   16 ar  
    41   15   55 1   
    42   16   17 ar  
    43   16   56 1   
    44   17   18 ar  
    45   17   85 1   
    46   18   19 1   
    47   19   20 1   
    48   19   57 1   
    49   21   58 1   
    50   25   59 1   
    51   25   60 1   
    52   25   83 1   
    53   25   85 1   
    54   26   85 2   
    55   27   61 1   
    56   27   62 1   
    57   28   29 1   
    58   28   63 1   
    59   28   64 1   
    60   29   30 1   
    61   29   65 1   
    62   29   66 1   
    63   30   67 1   
    64   30   68 1   
    65   31   32 1   
    66   31   69 1   
    67   31   84 1   
    68   32   33 2   
    69   34   35 ar  
    70   34   70 1   
    71   35   36 ar  
    72   35   71 1   
    73   36   37 ar  
    74   36   39 1   
    75   37   38 ar  
    76   37   72 1   
    77   38   73 1   
    78   39   40 1   
    79   39   41 1   
    80   39   42 1   
    81   40   74 1   
    82   40   75 1   
    83   40   76 1   
    84   41   77 1   
    85   41   78 1   
    86   41   79 1   
    87   42   80 1   
    88   42   81 1   
    89   42   82 1   
@<TRIPOS>SUBSTRUCTURE
     1 4UQ         1 TEMP              0 ****  ****    0 ROOT
