@<TRIPOS>MOLECULE
4US
   56    60     1     0     0
SMALL
bcc


@<TRIPOS>ATOM
      1 C13         0.0500    0.1880    0.2170 ca        1 4US     -0.071000
      2 C18         6.2430    2.3960    1.7980 c3        1 4US      0.143800
      3 C17         4.1750    3.6290    2.0530 c3        1 4US      0.143800
      4 C16         3.5530    2.4310    2.8040 c3        1 4US      0.075500
      5 C15        -3.1830    0.0220   -0.7000 cp        1 4US     -0.092000
      6 C19         5.6220    1.1940    2.5370 c3        1 4US      0.075500
      7 C20         6.2070    4.7870    1.4600 c3        1 4US      0.155100
      8 C21        -2.8050    1.2510   -1.2610 ca        1 4US     -0.101000
      9 C22        -2.7510    1.4090   -2.6430 ca        1 4US     -0.126000
     10 C23        -3.0630    0.3390   -3.4830 ca        1 4US     -0.094000
     11 C24        -3.4310   -0.8910   -2.9420 ca        1 4US     -0.119000
     12 C11         2.0390    0.2140    1.6230 ca        1 4US     -0.087600
     13 C12         1.4370    0.2590    0.3580 ca        1 4US     -0.096000
     14 C1         -2.3280   -0.2070    3.0340 ca        1 4US      0.115800
     15 C2         -2.1660   -0.0730    1.5800 cq        1 4US     -0.075000
     16 C3         -3.2700   -0.1100    0.7560 cp        1 4US      0.121000
     17 C4         -4.5550   -0.2720    1.3510 ca        1 4US     -0.141000
     18 C5         -4.7170   -0.3980    2.7080 ca        1 4US     -0.072000
     19 C6         -3.6130   -0.3750    3.6030 ca        1 4US     -0.278600
     20 C7         -3.7210   -0.5200    5.0240 c         1 4US      0.580700
     21 O1         -2.8560   -0.4910    5.8980 o         1 4US     -0.489100
     22 N1         -5.1140   -0.7620    5.5950 n4        1 4US     -0.755400
     23 N2         -1.0980   -0.1480    3.6470 na        1 4US     -0.161300
     24 C8         -0.1020    0.0020    2.6510 ca        1 4US     -0.035200
     25 C9         -0.7330    0.0560    1.3550 cq        1 4US     -0.063000
     26 C10         1.2820    0.0860    2.7930 ca        1 4US     -0.103000
     27 C14         3.5360    0.2090    1.7000 c         1 4US      0.651700
     28 O2          4.1750   -0.6950    1.1270 o         1 4US     -0.572100
     29 N3          4.1700    1.1610    2.4910 n         1 4US     -0.446800
     30 N4          5.6250    3.6640    2.1600 n3        1 4US     -0.732600
     31 C25        -3.4950   -1.0500   -1.5530 ca        1 4US      0.038400
     32 CL1        -3.9390   -2.5640   -0.9230 cl        1 4US     -0.076400
     33 H8         -0.4170    0.2280   -0.7800 ha        1 4US      0.161000
     34 H14         6.1920    2.2070    0.6860 h1        1 4US      0.043200
     35 H13         7.3300    2.4500    2.0890 h1        1 4US      0.043200
     36 H12         3.8310    3.6030    0.9770 h1        1 4US      0.043200
     37 H11         3.7730    4.5710    2.5190 h1        1 4US      0.043200
     38 H10         2.4530    2.4070    2.5710 h1        1 4US      0.067950
     39 H9          3.6780    2.5960    3.9140 h1        1 4US      0.067950
     40 H16         6.0410    0.2490    2.0900 h1        1 4US      0.067950
     41 H15         5.9120    1.2380    3.6260 h1        1 4US      0.067950
     42 H18         7.3100    4.8010    1.6610 h1        1 4US      0.038367
     43 H17         6.0450    4.7510    0.3480 h1        1 4US      0.038367
     44 H19         5.7550    5.7330    1.8570 h1        1 4US      0.038367
     45 H20        -2.5580    2.0960   -0.6000 ha        1 4US      0.146000
     46 H21        -2.4620    2.3810   -3.0730 ha        1 4US      0.153000
     47 H22        -3.0190    0.4640   -4.5770 ha        1 4US      0.156000
     48 H23        -3.6720   -1.7380   -3.6050 ha        1 4US      0.164000
     49 H7          2.0760    0.3320   -0.5380 ha        1 4US      0.167000
     50 H1         -5.4340   -0.3000    0.6850 ha        1 4US      0.170000
     51 H2         -5.7420   -0.5150    3.0940 ha        1 4US      0.117000
     52 H3         -5.7210    0.0320    5.3760 hn        1 4US      0.463800
     53 H4         -5.0500   -0.8700    6.6140 hn        1 4US      0.463800
     54 H5         -0.9250   -0.2400    4.6190 hn        1 4US      0.331700
     55 H6          1.7700    0.0430    3.7780 ha        1 4US      0.164000
     56 H131       -5.5130   -1.6100    5.1860 hn        1 4US      0.463800
@<TRIPOS>BOND
     1    1   13 ar  
     2    1   25 2   
     3    1   33 1   
     4    2    6 1   
     5    2   30 1   
     6    2   34 1   
     7    2   35 1   
     8    3    4 1   
     9    3   30 1   
    10    3   36 1   
    11    3   37 1   
    12    4   29 1   
    13    4   38 1   
    14    4   39 1   
    15    5    8 ar  
    16    5   16 1   
    17    5   31 ar  
    18    6   29 1   
    19    6   40 1   
    20    6   41 1   
    21    7   30 1   
    22    7   42 1   
    23    7   43 1   
    24    7   44 1   
    25    8    9 ar  
    26    8   45 1   
    27    9   10 ar  
    28    9   46 1   
    29   10   11 ar  
    30   10   47 1   
    31   11   31 ar  
    32   11   48 1   
    33   12   13 ar  
    34   12   26 ar  
    35   12   27 1   
    36   13   49 1   
    37   14   15 1   
    38   14   19 ar  
    39   14   23 1   
    40   15   16 2   
    41   15   25 1   
    42   16   17 ar  
    43   17   18 ar  
    44   17   50 1   
    45   18   19 ar  
    46   18   51 1   
    47   19   20 1   
    48   20   21 2   
    49   20   22 1   
    50   22   52 1   
    51   22   53 1   
    52   22   56 1   
    53   23   24 1   
    54   23   54 1   
    55   24   25 1   
    56   24   26 ar  
    57   26   55 1   
    58   27   28 2   
    59   27   29 1   
    60   31   32 1   
@<TRIPOS>SUBSTRUCTURE
     1 4US         1 TEMP              0 ****  ****    0 ROOT
