@<TRIPOS>MOLECULE
4US
   56    60     1     0     0
SMALL
bcc


@<TRIPOS>ATOM
      1 C13         0.0560    0.1780    0.2230 ca        1 4US     -0.071000
      2 C18         6.2440    2.3870    1.8120 c3        1 4US      0.143800
      3 C17         4.1770    3.6250    2.0460 c3        1 4US      0.143800
      4 C16         3.5500    2.4350    2.8070 c3        1 4US      0.075500
      5 C15        -3.1740    0.0130   -0.7080 cp        1 4US     -0.092000
      6 C19         5.6170    1.1920    2.5600 c3        1 4US      0.075500
      7 C20         6.2130    4.7740    1.4510 c3        1 4US      0.155100
      8 C21        -2.7910    1.2370   -1.2760 ca        1 4US     -0.101000
      9 C22        -2.7300    1.3850   -2.6590 ca        1 4US     -0.126000
     10 C23        -3.0400    0.3100   -3.4920 ca        1 4US     -0.094000
     11 C24        -3.4130   -0.9150   -2.9440 ca        1 4US     -0.119000
     12 C11         2.0380    0.2100    1.6380 ca        1 4US     -0.087600
     13 C12         1.4420    0.2480    0.3700 ca        1 4US     -0.096000
     14 C1         -2.3370   -0.1910    3.0310 ca        1 4US      0.115800
     15 C2         -2.1680   -0.0680    1.5780 cq        1 4US     -0.075000
     16 C3         -3.2680   -0.1080    0.7490 cp        1 4US      0.121000
     17 C4         -4.5560   -0.2630    1.3390 ca        1 4US     -0.141000
     18 C5         -4.7250   -0.3780    2.6960 ca        1 4US     -0.072000
     19 C6         -3.6250   -0.3520    3.5960 ca        1 4US     -0.278600
     20 C7         -3.7400   -0.4870    5.0170 c         1 4US      0.580700
     21 O1         -2.8790   -0.4530    5.8960 o         1 4US     -0.489100
     22 N1         -5.1360   -0.7200    5.5830 nz        1 4US     -0.755400
     23 N2         -1.1090   -0.1300    3.6500 na        1 4US     -0.161300
     24 C8         -0.1080    0.0100    2.6580 ca        1 4US     -0.035200
     25 C9         -0.7330    0.0560    1.3580 cq        1 4US     -0.063000
     26 C10         1.2750    0.0930    2.8050 ca        1 4US     -0.103000
     27 C14         3.5340    0.2030    1.7220 c         1 4US      0.651700
     28 O2          4.1740   -0.7080    1.1610 o         1 4US     -0.572100
     29 N3          4.1670    1.1620    2.5070 n         1 4US     -0.446800
     30 N4          5.6260    3.6590    2.1590 n3        1 4US     -0.732600
     31 C25        -3.4840   -1.0640   -1.5540 ca        1 4US      0.038400
     32 Cl1        -3.9350   -2.5730   -0.9160 cl        1 4US     -0.076400
     33 H8         -0.4070    0.2120   -0.7770 ha        1 4US      0.161000
     34 H14         6.1970    2.1880    0.7010 h1        1 4US      0.043200
     35 H13         7.3290    2.4420    2.1070 h1        1 4US      0.043200
     36 H12         3.7740    4.5720    2.5030 h1        1 4US      0.043200
     37 H11         3.8370    3.5890    0.9700 h1        1 4US      0.043200
     38 H10         3.6700    2.6100    3.9150 h1        1 4US      0.067950
     39 H9          2.4510    2.4110    2.5690 h1        1 4US      0.067950
     40 H16         6.0370    0.2430    2.1220 h1        1 4US      0.067950
     41 H15         5.9040    1.2470    3.6490 h1        1 4US      0.067950
     42 H18         7.3160    4.7890    1.6560 h1        1 4US      0.038367
     43 H17         5.7610    5.7250    1.8380 h1        1 4US      0.038367
     44 H19         6.0550    4.7280    0.3390 h1        1 4US      0.038367
     45 H20        -2.5450    2.0870   -0.6200 ha        1 4US      0.146000
     46 H21        -2.4370    2.3540   -3.0940 ha        1 4US      0.153000
     47 H22        -2.9910    0.4270   -4.5870 ha        1 4US      0.156000
     48 H23        -3.6530   -1.7660   -3.6020 ha        1 4US      0.164000
     49 H7          2.0850    0.3130   -0.5230 ha        1 4US      0.167000
     50 H1         -5.4320   -0.2940    0.6690 ha        1 4US      0.170000
     51 H2         -5.7510   -0.4910    3.0780 ha        1 4US      0.117000
     52 H3         -5.7400    0.0730    5.3560 hn        1 4US      0.463800
     53 H4         -5.0770   -0.8220    6.6040 hn        1 4US      0.463800
     54 H5         -0.9410   -0.2160    4.6230 hn        1 4US      0.331700
     55 H6          1.7580    0.0550    3.7930 ha        1 4US      0.164000
     56 H131       -5.5360   -1.5710    5.1790 hn        1 4US      0.463800
@<TRIPOS>BOND
     1    1   13 ar  
     2    1   25 2   
     3    1   33 1   
     4    2    6 1   
     5    2   30 1   
     6    2   34 1   
     7    2   35 1   
     8    3    4 1   
     9    3   30 1   
    10    3   36 1   
    11    3   37 1   
    12    4   29 1   
    13    4   38 1   
    14    4   39 1   
    15    5    8 ar  
    16    5   16 1   
    17    5   31 ar  
    18    6   29 1   
    19    6   40 1   
    20    6   41 1   
    21    7   30 1   
    22    7   42 1   
    23    7   43 1   
    24    7   44 1   
    25    8    9 ar  
    26    8   45 1   
    27    9   10 ar  
    28    9   46 1   
    29   10   11 ar  
    30   10   47 1   
    31   11   31 ar  
    32   11   48 1   
    33   12   13 ar  
    34   12   26 ar  
    35   12   27 1   
    36   13   49 1   
    37   14   15 1   
    38   14   19 ar  
    39   14   23 1   
    40   15   16 2   
    41   15   25 1   
    42   16   17 ar  
    43   17   18 ar  
    44   17   50 1   
    45   18   19 ar  
    46   18   51 1   
    47   19   20 1   
    48   20   21 2   
    49   20   22 1   
    50   22   52 1   
    51   22   53 1   
    52   22   56 1   
    53   23   24 1   
    54   23   54 1   
    55   24   25 1   
    56   24   26 ar  
    57   26   55 1   
    58   27   28 2   
    59   27   29 1   
    60   31   32 1   
@<TRIPOS>SUBSTRUCTURE
     1 4US         1 TEMP              0 ****  ****    0 ROOT
