@<TRIPOS>MOLECULE
4UT
   63    62     1     0     0
SMALL
bcc


@<TRIPOS>ATOM
      1 C10        -1.4380    2.2910   -0.1570 c2        1 4UT     -0.328000
      2 C17        -3.2310   -0.9590   -2.8550 ca        1 4UT     -0.035000
      3 C20        -6.8880   -0.1390   -3.3710 c2        1 4UT     -0.287000
      4 C21        -6.8490    0.4340   -4.7460 c3        1 4UT     -0.162000
      5 C22       -10.1110    1.1830   -4.7740 c1        1 4UT      0.121000
      6 C24       -10.1540    0.4440   -2.2750 c2        1 4UT      0.397000
      7 C26       -11.1180   -1.6710   -2.7600 c3        1 4UT     -0.080000
      8 C28        -5.7420   -1.7120   -1.8330 ca        1 4UT     -0.156000
      9 C01         1.0560   -2.8210    5.9260 c3        1 4UT     -0.218000
     10 N03         2.4260   -1.0420    4.8030 n3        1 4UT     -0.266000
     11 C04         2.6430    0.3890    4.6740 c3        1 4UT     -0.066000
     12 C05         1.4930    1.1130    3.9370 c3        1 4UT     -0.042000
     13 N06         1.2090    0.5700    2.6340 n7        1 4UT     -0.266000
     14 C07         0.3410    1.1360    1.7660 c2        1 4UT      0.165000
     15 C08         0.0930    0.4440    0.4450 c3        1 4UT     -0.185000
     16 C09        -0.8250    1.0890   -0.4780 c1        1 4UT     -0.154000
     17 C11        -2.3470    2.9280   -1.1120 c2        1 4UT      0.249000
     18 O12        -2.6370    2.4710   -2.2210 o         1 4UT     -0.301000
     19 N13        -1.2140   -2.9510   -0.7540 n1        1 4UT     -0.072000
     20 C14        -2.1630   -2.4840   -1.2400 c1        1 4UT     -0.072000
     21 N15        -1.0860    0.0180   -3.1580 n2        1 4UT     -0.121000
     22 N16        -1.9720   -0.6950   -3.5290 n2        1 4UT     -0.007000
     23 C18        -4.4110   -0.3760   -3.3560 ca        1 4UT     -0.106000
     24 C19        -5.6590   -0.7480   -2.8530 ca        1 4UT      0.015000
     25 C23       -10.1120    0.7980   -3.5780 c1        1 4UT     -0.732000
     26 O25       -10.6880   -0.6950   -1.7990 os        1 4UT     -0.196000
     27 C27        -7.9750   -0.1050   -2.6140 c1        1 4UT      0.117000
     28 C29        -4.5870   -2.2810   -1.3170 ca        1 4UT     -0.084000
     29 C30        -3.3280   -1.9060   -1.8120 ca        1 4UT     -0.031000
     30 C31        -1.1940    2.9020    1.0800 c2        1 4UT      0.102000
     31 C32        -0.3320    2.3460    2.0240 c2        1 4UT     -0.351000
     32 C33         3.6650   -3.0850    4.2830 c2        1 4UT     -0.232000
     33 C34         3.6150   -1.8100    4.6940 c2        1 4UT     -0.081000
     34 H1         -6.3380   -0.2800   -5.4390 hc        1 4UT      0.102000
     35 H2         -6.2780    1.3970   -4.7360 hc        1 4UT      0.102000
     36 H3        -11.8390   -1.2100   -3.4770 h1        1 4UT      0.102667
     37 H4        -10.2270   -2.0690   -3.3020 h1        1 4UT      0.102667
     38 H5        -11.6040   -2.4590   -2.1340 h1        1 4UT      0.102667
     39 H6         -6.7250   -2.0170   -1.4440 ha        1 4UT      0.139000
     40 H7          0.5770   -3.0960    4.9560 hc        1 4UT      0.085333
     41 H8          1.8950   -3.5310    6.1220 hc        1 4UT      0.085333
     42 H9          0.3000   -2.9310    6.7420 hc        1 4UT      0.085333
     43 H10         0.6470   -0.7050    5.8380 h1        1 4UT      0.070500
     44 H11         2.0480   -1.1690    6.9030 h1        1 4UT      0.070500
     45 H13         2.7390    0.8950    5.6790 h1        1 4UT      0.092000
     46 H14         3.5970    0.5740    4.1040 h1        1 4UT      0.092000
     47 H15         0.5560    1.0780    4.5650 h1        1 4UT      0.097000
     48 H16         1.7970    2.1950    3.8280 h1        1 4UT      0.097000
     49 H17        -0.3040   -0.5980    0.6360 hc        1 4UT      0.168500
     50 H18         1.0740    0.3180   -0.1040 hc        1 4UT      0.168500
     51 H19        -2.7830    3.8970   -0.7680 h4        1 4UT      0.065000
     52 H20        -1.1090    0.5490   -2.2650 hn        1 4UT      0.222000
     53 H21        -4.3420    0.3880   -4.1480 ha        1 4UT      0.161000
     54 H22        -7.8800    0.6360   -5.1330 hc        1 4UT      0.102000
     55 H23        -9.8600    1.1010   -1.4270 h4        1 4UT      0.172000
     56 H24        -4.6540   -3.0310   -0.5140 ha        1 4UT      0.140000
     57 H25        -1.6930    3.8550    1.3320 ha        1 4UT      0.129000
     58 H26        -0.1880    2.8700    2.9800 ha        1 4UT      0.137000
     59 H27         1.5990   -0.3210    2.4110 hn        1 4UT      0.259000
     60 H28         2.7820   -3.6820    4.0240 ha        1 4UT      0.125500
     61 H29         4.6300   -3.6000    4.1900 ha        1 4UT      0.125500
     62 H30         4.5580   -1.2680    4.9190 h4        1 4UT      0.114000
     63 C02         1.5450   -1.3850    5.9140 c3        1 4UT     -0.048000
@<TRIPOS>BOND
     1    1   16 1   
     2    1   17 1   
     3    1   30 1   
     4    2   22 1   
     5    2   23 1   
     6    2   29 1   
     7    3    4 1   
     8    3   24 1   
     9    3   27 1   
    10    4   34 1   
    11    4   35 1   
    12    4   54 1   
    13    5   25 1   
    14    6   25 1   
    15    6   26 1   
    16    6   55 1   
    17    7   26 1   
    18    7   36 1   
    19    7   37 1   
    20    7   38 1   
    21    8   24 1   
    22    8   28 1   
    23    8   39 1   
    24    9   40 1   
    25    9   41 1   
    26    9   42 1   
    27    9   63 1   
    28   10   11 1   
    29   10   33 1   
    30   10   63 1   
    31   11   12 1   
    32   11   45 1   
    33   11   46 1   
    34   12   13 1   
    35   12   47 1   
    36   12   48 1   
    37   13   14 1   
    38   13   59 1   
    39   14   15 1   
    40   14   31 1   
    41   15   16 1   
    42   15   49 1   
    43   15   50 1   
    44   17   18 1   
    45   17   51 1   
    46   19   20 1   
    47   20   29 1   
    48   21   22 1   
    49   21   52 1   
    50   23   24 1   
    51   23   53 1   
    52   28   29 1   
    53   28   56 1   
    54   30   31 1   
    55   30   57 1   
    56   31   58 1   
    57   32   33 1   
    58   32   60 1   
    59   32   61 1   
    60   33   62 1   
    61   43   63 1   
    62   44   63 1   
@<TRIPOS>SUBSTRUCTURE
     1 4UT         1 TEMP              0 ****  ****    0 ROOT
