@<TRIPOS>MOLECULE
4UT
   63    67     1     0     0
SMALL
bcc


@<TRIPOS>ATOM
      1 C10        -0.0790   -0.3930   -0.0470 ca        1 4UT     -0.192600
      2 C17        -4.5460   -0.0550   -4.1240 ca        1 4UT     -0.061000
      3 C20        -8.2850    0.3540   -4.1040 cp        1 4UT     -0.005000
      4 C21        -8.5990    1.1570   -5.2130 ca        1 4UT     -0.153000
      5 C22        -9.9180    1.2870   -5.6330 ca        1 4UT     -0.097000
      6 C24       -10.6350   -0.1750   -3.8620 ca        1 4UT      0.121100
      7 C26       -12.9140   -0.7870   -3.5500 c3        1 4UT      0.114700
      8 C28        -6.6180    0.2400   -2.2570 ca        1 4UT     -0.139000
      9 C01         5.0400   -1.5690    7.7680 c3        1 4UT     -0.096100
     10 N03         3.1130   -0.9720    6.2880 n3        1 4UT     -0.729600
     11 C04         1.9040   -0.1680    6.1750 c3        1 4UT      0.163300
     12 C05         1.0980   -0.4740    4.8970 c3        1 4UT      0.191300
     13 N06         1.9110   -0.4230    3.6930 nh        1 4UT     -0.643000
     14 C07         1.2280   -0.4680    2.4630 ca        1 4UT      0.186600
     15 C08         1.6730   -1.2650    1.3810 ca        1 4UT     -0.191500
     16 C09         1.0360   -1.2160    0.1480 ca        1 4UT     -0.054000
     17 C11        -0.7140   -0.3830   -1.3890 c         1 4UT      0.691700
     18 O12        -0.0540   -0.5350   -2.4370 o         1 4UT     -0.610100
     19 N13        -2.0940   -0.2170   -1.4310 n         1 4UT     -0.460100
     20 C14        -2.8640   -0.1810   -2.5900 cc        1 4UT      0.029500
     21 N15        -2.4010   -0.2820   -3.9090 na        1 4UT      0.055800
     22 N16        -3.3670   -0.2110   -4.8180 nc        1 4UT     -0.277400
     23 C18        -5.8850    0.0750   -4.5880 ca        1 4UT     -0.080000
     24 C19        -6.8940    0.2180   -3.6640 cp        1 4UT     -0.030000
     25 C23       -10.9490    0.6250   -4.9650 ca        1 4UT     -0.202000
     26 O25       -11.5620   -0.8790   -3.1160 os        1 4UT     -0.328900
     27 C27        -9.3050   -0.3150   -3.4250 ca        1 4UT     -0.146000
     28 C29        -5.3420    0.1210   -1.7730 ca        1 4UT     -0.077000
     29 C30        -4.2830   -0.0300   -2.6880 ca        1 4UT     -0.166000
     30 C31        -0.5310    0.4050    1.0090 ca        1 4UT     -0.054000
     31 C32         0.1050    0.3720    2.2420 ca        1 4UT     -0.191500
     32 C33         3.1420   -1.1880    3.7950 c3        1 4UT      0.191300
     33 C34         3.9290   -0.8880    5.0870 c3        1 4UT      0.163300
     34 H1         -7.7950    1.6880   -5.7450 ha        1 4UT      0.139000
     35 H2        -10.1560    1.9190   -6.5020 ha        1 4UT      0.132000
     36 H3        -13.0230   -1.1790   -4.5900 h1        1 4UT      0.043367
     37 H4        -13.4650   -1.4370   -2.8230 h1        1 4UT      0.043367
     38 H5        -13.2770    0.2670   -3.4890 h1        1 4UT      0.043367
     39 H6         -7.4650    0.3650   -1.5660 ha        1 4UT      0.136000
     40 H7          4.7530   -2.6450    7.6920 hc        1 4UT      0.041033
     41 H8          5.8680   -1.3700    7.0460 hc        1 4UT      0.041033
     42 H9          5.4180   -1.3720    8.8000 hc        1 4UT      0.041033
     43 H10         4.2130    0.4110    7.5050 h1        1 4UT      0.032200
     44 H11         3.1250   -0.7680    8.3620 h1        1 4UT      0.032200
     45 H13         2.1310    0.9380    6.2040 h1        1 4UT      0.042200
     46 H14         1.2440   -0.4100    7.0550 h1        1 4UT      0.042200
     47 H15         0.6150   -1.4890    5.0070 h1        1 4UT      0.047450
     48 H16         0.2810    0.2960    4.8270 h1        1 4UT      0.047450
     49 H17         2.5350   -1.9410    1.4940 ha        1 4UT      0.142000
     50 H18         1.4070   -1.8280   -0.6910 ha        1 4UT      0.144500
     51 H19        -2.6100   -0.1550   -0.5820 hn        1 4UT      0.339500
     52 H20        -1.4430   -0.4010   -4.1770 hn        1 4UT      0.352700
     53 H21        -6.0890    0.0500   -5.6680 ha        1 4UT      0.149000
     54 H22       -11.9860    0.7380   -5.3100 ha        1 4UT      0.136000
     55 H23        -9.0860   -0.9580   -2.5600 ha        1 4UT      0.152000
     56 H24        -5.1360    0.1410   -0.6940 ha        1 4UT      0.122000
     57 H25        -1.3820    1.0910    0.8730 ha        1 4UT      0.144500
     58 H26        -0.2650    1.0330    3.0410 ha        1 4UT      0.142000
     59 H27         2.9370   -2.2970    3.7450 h1        1 4UT      0.047450
     60 H28         3.8050   -0.9080    2.9280 h1        1 4UT      0.047450
     61 H29         4.4200    0.1240    4.9840 h1        1 4UT      0.042200
     62 H30         4.7420   -1.6630    5.1670 h1        1 4UT      0.042200
     63 C02         3.8510   -0.6600    7.5060 c3        1 4UT      0.169800
@<TRIPOS>BOND
     1    1   16 ar  
     2    1   17 1   
     3    1   30 ar  
     4    2   22 2   
     5    2   23 ar  
     6    2   29 ar  
     7    3    4 ar  
     8    3   24 1   
     9    3   27 ar  
    10    4    5 ar  
    11    4   34 1   
    12    5   25 ar  
    13    5   35 1   
    14    6   25 ar  
    15    6   26 1   
    16    6   27 ar  
    17    7   26 1   
    18    7   36 1   
    19    7   37 1   
    20    7   38 1   
    21    8   24 ar  
    22    8   28 ar  
    23    8   39 1   
    24    9   40 1   
    25    9   41 1   
    26    9   42 1   
    27    9   63 1   
    28   10   11 1   
    29   10   33 1   
    30   10   63 1   
    31   11   12 1   
    32   11   45 1   
    33   11   46 1   
    34   12   13 1   
    35   12   47 1   
    36   12   48 1   
    37   13   14 1   
    38   13   32 1   
    39   14   15 ar  
    40   14   31 ar  
    41   15   16 ar  
    42   15   49 1   
    43   16   50 1   
    44   17   18 2   
    45   17   19 1   
    46   19   20 1   
    47   19   51 1   
    48   20   21 1   
    49   20   29 2   
    50   21   22 1   
    51   21   52 1   
    52   23   24 ar  
    53   23   53 1   
    54   25   54 1   
    55   27   55 1   
    56   28   29 ar  
    57   28   56 1   
    58   30   31 ar  
    59   30   57 1   
    60   31   58 1   
    61   32   33 1   
    62   32   59 1   
    63   32   60 1   
    64   33   61 1   
    65   33   62 1   
    66   43   63 1   
    67   44   63 1   
@<TRIPOS>SUBSTRUCTURE
     1 4UT         1 TEMP              0 ****  ****    0 ROOT
