@<TRIPOS>MOLECULE
4UY
   85    87     1     0     0
SMALL
bcc


@<TRIPOS>ATOM
      1 C2       -173.2060 -244.8250  -37.9560 ca        1 4UY      0.311100
      2 C3       -173.2920 -245.7440  -36.8780 ca        1 4UY     -0.214500
      3 C4       -173.9220 -246.9470  -37.0600 ca        1 4UY      0.071500
      4 C5       -174.5070 -247.3230  -38.3120 ca        1 4UY     -0.708500
      5 C6       -174.4000 -246.3680  -39.3790 ca        1 4UY      0.071500
      6 C7       -173.7770 -245.1630  -39.2210 ca        1 4UY     -0.214500
      7 S8       -175.2050 -248.6610  -38.5080 s4        1 4UY      1.663300
      8 O9       -175.7360 -248.9510  -39.7180 o         1 4UY     -0.403900
      9 O10      -175.2720 -249.5170  -37.4620 o         1 4UY     -0.403900
     10 N11        49.0950   70.4210   10.5720 n7        1 4UY     -0.841200
     11 C12        47.6700   70.6910   10.5790 c3        1 4UY      0.153800
     12 C13        46.7430   69.5300   10.9660 c3        1 4UY     -0.098700
     13 C14        45.3160   70.0350   11.0230 c3        1 4UY     -0.097100
     14 C15        46.8600   68.3810    9.9880 c3        1 4UY     -0.097100
     15 C16        49.6640   70.1150   11.8660 c3        1 4UY      0.136800
     16 C17        51.1110   70.6450   11.9560 c3        1 4UY      0.124100
     17 O18        51.2040   72.0580   11.9190 oh        1 4UY     -0.639800
     18 C19        51.7960   70.1270   13.2480 c3        1 4UY      0.111500
     19 N20        53.1720   70.7590   13.3940 ny        1 4UY     -0.628800
     20 C21        54.1140   70.3090   12.3470 c         1 4UY      0.613100
     21 O22        54.9000   69.3830   12.4820 o         1 4UY     -0.389000
     22 O23        54.0110   71.0600   11.2120 os        1 4UY     -0.421900
     23 C24        54.9020   70.6890   10.1300 c3        1 4UY      0.130100
     24 C25        54.5570   69.3010    9.5590 c3        1 4UY      0.096400
     25 O26        54.6510   69.3930    8.1390 os        1 4UY     -0.365600
     26 C27        54.6260   70.7400    7.7120 c3        1 4UY      0.314900
     27 O28        53.3580   70.9410    7.1020 os        1 4UY     -0.383600
     28 C29        52.4590   71.5150    8.0430 c3        1 4UY      0.106400
     29 C30        53.3390   72.4150    8.9580 c3        1 4UY      0.082500
     30 C31        54.6990   71.6740    8.9650 c3        1 4UY     -0.152700
     31 N41        53.4740   73.8020    8.3910 ny        1 4UY     -0.756000
     32 C42        52.2790   74.6390    8.6430 c3        1 4UY      0.079100
     33 C32        50.9690   70.4180   14.5080 c3        1 4UY     -0.050100
     34 C33        52.4190   71.1460   16.4150 ca        1 4UY     -0.136000
     35 C34        53.0850   70.8830   17.6100 ca        1 4UY     -0.107000
     36 C35        53.0600   69.5980   18.1570 ca        1 4UY     -0.087000
     37 C36        52.3630   68.5780   17.5080 ca        1 4UY     -0.107000
     38 C37        51.6940   68.8380   16.3120 ca        1 4UY     -0.136000
     39 C38        51.7210   70.1220   15.7570 ca        1 4UY     -0.178300
     40 O39      -172.6150 -243.6210  -37.8960 os        1 4UY     -0.262900
     41 C40      -172.0160 -243.2110  -36.6530 c3        1 4UY      0.096700
     42 H1       -172.8530 -245.4900  -35.8980 ha        1 4UY      0.193500
     43 H2       -173.9870 -247.6620  -36.2150 ha        1 4UY      0.179500
     44 H3       -174.8430 -246.6290  -40.3620 ha        1 4UY      0.179500
     45 H4       -173.7010 -244.4360  -40.0490 ha        1 4UY      0.193500
     46 H5         47.4070   71.0280    9.5340 h1        1 4UY      0.063700
     47 H6         47.4780   71.5530   11.2780 h1        1 4UY      0.063700
     48 H7         47.0330   69.1620   11.9910 hc        1 4UY      0.040700
     49 H8         45.2230   70.8690   11.7590 hc        1 4UY      0.046200
     50 H9         44.9890   70.4050   10.0210 hc        1 4UY      0.046200
     51 H10        44.6300   69.2100   11.3340 hc        1 4UY      0.046200
     52 H11        46.6740   68.7300    8.9440 hc        1 4UY      0.046200
     53 H12        47.8740   67.9150   10.0340 hc        1 4UY      0.046200
     54 H13        46.1060   67.5930   10.2310 hc        1 4UY      0.046200
     55 H14        49.6920   69.0080   12.0860 h1        1 4UY      0.064200
     56 H15        49.0550   70.6090   12.6770 h1        1 4UY      0.064200
     57 H16        51.7150   70.2880   11.0680 h1        1 4UY      0.065700
     58 H17        50.3190   72.4320   12.0460 ho        1 4UY      0.452000
     59 H18        51.9610   69.0120   13.1560 hx        1 4UY      0.121700
     60 H19        53.5530   70.5020   14.3270 hn        1 4UY      0.494800
     61 H20        55.9570   70.7270   10.5200 h1        1 4UY      0.121700
     62 H21        55.2900   68.5110    9.8730 h1        1 4UY      0.092200
     63 H22        53.5130   69.0010    9.8360 h1        1 4UY      0.092200
     64 H23        55.4060   70.8670    6.9150 h2        1 4UY      0.158700
     65 H24        51.6760   72.0480    7.4470 h1        1 4UY      0.100200
     66 H25        51.9890   70.7150    8.6740 h1        1 4UY      0.100200
     67 H26        52.8850   72.5070    9.9880 hx        1 4UY      0.144700
     68 H27        55.5800   72.3600    8.9090 hc        1 4UY      0.109700
     69 H28        53.6250   73.7210    7.3740 hn        1 4UY      0.461800
     70 H30        51.3700   74.1470    8.2020 hx        1 4UY      0.115700
     71 H31        52.1330   74.7690    9.7490 hx        1 4UY      0.115700
     72 H32        52.4290   75.6460    8.1620 hx        1 4UY      0.115700
     73 H33        50.6270   71.4880   14.4940 hc        1 4UY      0.094200
     74 H34        50.0520   69.7660   14.4540 hc        1 4UY      0.094200
     75 H37        53.5780   69.3940   19.1100 ha        1 4UY      0.169000
     76 H38        52.3290   67.5670   17.9470 ha        1 4UY      0.164000
     77 H39        51.1270   68.0330   15.8190 ha        1 4UY      0.134500
     78 H40      -172.7950 -243.1520  -35.8550 h1        1 4UY      0.082700
     79 H41      -171.1930 -243.9120  -36.3760 h1        1 4UY      0.082700
     80 H42      -171.6150 -242.1940  -36.9050 h1        1 4UY      0.082700
     81 H35        52.3950   72.1730   16.0210 ha        1 4UY      0.134500
     82 H111       49.3050   69.6860    9.9200 hn        1 4UY      0.374800
     83 H202       53.0500   71.7820   13.3360 hn        1 4UY      0.494800
     84 H412       54.2980   74.2570    8.8020 hn        1 4UY      0.461800
     85 H36        53.6160   71.6940   18.1350 ha        1 4UY      0.164000
@<TRIPOS>BOND
     1    1    2 ar  
     2    1    6 ar  
     3    1   40 1   
     4    2    3 ar  
     5    2   42 1   
     6    3    4 ar  
     7    3   43 1   
     8    4    5 ar  
     9    4    7 1   
    10    5    6 ar  
    11    5   44 1   
    12    6   45 1   
    13    7    8 1   
    14    7    9 1   
    15   10   11 1   
    16   10   15 1   
    17   10   82 1   
    18   11   12 1   
    19   11   46 1   
    20   11   47 1   
    21   12   13 1   
    22   12   14 1   
    23   12   48 1   
    24   13   49 1   
    25   13   50 1   
    26   13   51 1   
    27   14   52 1   
    28   14   53 1   
    29   14   54 1   
    30   15   16 1   
    31   15   55 1   
    32   15   56 1   
    33   16   17 1   
    34   16   18 1   
    35   16   57 1   
    36   17   58 1   
    37   18   19 1   
    38   18   33 1   
    39   18   59 1   
    40   19   20 1   
    41   19   60 1   
    42   19   83 1   
    43   20   21 2   
    44   20   22 1   
    45   22   23 1   
    46   23   24 1   
    47   23   30 1   
    48   23   61 1   
    49   24   25 1   
    50   24   62 1   
    51   24   63 1   
    52   25   26 1   
    53   26   27 1   
    54   26   30 1   
    55   26   64 1   
    56   27   28 1   
    57   28   29 1   
    58   28   65 1   
    59   28   66 1   
    60   29   30 1   
    61   29   31 1   
    62   29   67 1   
    63   30   68 1   
    64   31   32 1   
    65   31   69 1   
    66   31   84 1   
    67   32   70 1   
    68   32   71 1   
    69   32   72 1   
    70   33   39 1   
    71   33   73 1   
    72   33   74 1   
    73   34   35 ar  
    74   34   39 ar  
    75   34   81 1   
    76   35   36 ar  
    77   35   85 1   
    78   36   37 ar  
    79   36   75 1   
    80   37   38 ar  
    81   37   76 1   
    82   38   39 ar  
    83   38   77 1   
    84   40   41 1   
    85   41   78 1   
    86   41   79 1   
    87   41   80 1   
@<TRIPOS>SUBSTRUCTURE
     1 4UY         1 TEMP              0 ****  ****    0 ROOT
