@<TRIPOS>MOLECULE
4UY
   85    87     1     0     0
SMALL
bcc


@<TRIPOS>ATOM
      1 C2       -975.4860-1255.2960 -132.4260 ca        1 4UY      0.311100
      2 C3       -976.3360-1255.9050 -131.4640 ca        1 4UY     -0.214500
      3 C4       -977.6900-1255.9260 -131.6710 ca        1 4UY      0.071500
      4 C5       -978.2960-1255.3510 -132.8350 ca        1 4UY     -0.708500
      5 C6       -977.4060-1254.7450 -133.7850 ca        1 4UY      0.071500
      6 C7       -976.0530-1254.7120 -133.6000 ca        1 4UY     -0.214500
      7 S8       -979.8010-1255.3780 -133.0580 s4        1 4UY      1.663300
      8 O9       -980.3060-1254.8150 -134.1810 o         1 4UY     -0.403900
      9 O10      -980.5850-1255.9640 -132.1250 o         1 4UY     -0.403900
     10 N11       264.4640  342.2100   36.1880 n3        1 4UY     -0.841200
     11 C12       263.0540  342.4260   36.4440 c3        1 4UY      0.153800
     12 C13       262.1270  341.2100   36.3040 c3        1 4UY     -0.098700
     13 C14       260.7290  341.6030   36.7340 c3        1 4UY     -0.097100
     14 C15       262.1170  340.6850   34.8850 c3        1 4UY     -0.097100
     15 C16       265.1310  341.3330   37.1240 c3        1 4UY      0.136800
     16 C17       266.6060  341.7530   37.2980 c3        1 4UY      0.124100
     17 O18       266.7740  343.0240   37.8980 oh        1 4UY     -0.639800
     18 C19       267.3650  340.7050   38.1540 c3        1 4UY      0.111500
     19 N20       268.7860  341.1880   38.4120 n4        1 4UY     -0.628800
     20 C21       269.6190  341.1300   37.1930 c         1 4UY      0.613100
     21 O22       270.2080  340.1290   36.8120 o         1 4UY     -0.389000
     22 O23       269.6710  342.3290   36.5390 os        1 4UY     -0.421900
     23 C24       270.4270  342.3170   35.2990 c3        1 4UY      0.130100
     24 C25       269.6970  341.5000   34.2160 c3        1 4UY      0.096400
     25 O26       269.7770  342.2380   32.9990 os        1 4UY     -0.365600
     26 C27       270.1240  343.5850   33.2400 c3        1 4UY      0.314900
     27 O28       268.9440  344.3480   33.0240 os        1 4UY     -0.383600
     28 C29       268.3090  344.6130   34.2700 c3        1 4UY      0.106400
     29 C30       269.4710  344.7430   35.2970 c3        1 4UY      0.082500
     30 C31       270.5210  343.7490   34.7450 c3        1 4UY     -0.152700
     31 N41       270.0110  346.1480   35.3300 n4        1 4UY     -0.756000
     32 C42       269.1630  347.0670   36.1240 c3        1 4UY      0.079100
     33 C32       266.6720  340.4280   39.4950 c3        1 4UY     -0.050100
     34 C33       268.2940  340.2080   41.3890 ca        1 4UY     -0.136000
     35 C34       269.0420  339.4300   42.2700 ca        1 4UY     -0.107000
     36 C35       269.0140  338.0360   42.1700 ca        1 4UY     -0.087000
     37 C36       268.2310  337.4240   41.1910 ca        1 4UY     -0.107000
     38 C37       267.4780  338.2010   40.3090 ca        1 4UY     -0.136000
     39 C38       267.5090  339.5970   40.4010 ca        1 4UY     -0.178300
     40 O39      -974.1500-1255.2160 -132.3310 os        1 4UY     -0.262900
     41 C40      -973.5080-1255.7840 -131.1740 c3        1 4UY      0.096700
     42 H1       -975.9060-1256.3580 -130.5550 ha        1 4UY      0.193500
     43 H2       -978.3500-1256.4020 -130.9180 ha        1 4UY      0.179500
     44 H3       -977.8430-1254.2900 -134.6970 ha        1 4UY      0.179500
     45 H4       -975.3770-1254.2430 -134.3370 ha        1 4UY      0.193500
     46 H5        262.9460  342.8440   37.4850 h1        1 4UY      0.063700
     47 H6        262.7190  343.2210   35.7170 h1        1 4UY      0.063700
     48 H7        262.4950  340.3940   36.9880 hc        1 4UY      0.040700
     49 H8        260.3280  342.4120   36.0770 hc        1 4UY      0.046200
     50 H9        260.0450  340.7220   36.6650 hc        1 4UY      0.046200
     51 H10       260.7290  341.9690   37.7890 hc        1 4UY      0.046200
     52 H11       261.3670  339.8630   34.7860 hc        1 4UY      0.046200
     53 H12       261.8430  341.4950   34.1660 hc        1 4UY      0.046200
     54 H13       263.1170  340.2780   34.6000 hc        1 4UY      0.046200
     55 H14       265.1190  340.2510   36.8050 h1        1 4UY      0.064200
     56 H15       264.6230  341.4000   38.1290 h1        1 4UY      0.064200
     57 H16       267.1160  341.8200   36.2900 h1        1 4UY      0.065700
     58 H17       265.9040  343.3830   38.1260 ho        1 4UY      0.452000
     59 H18       267.4520  339.7400   37.5700 hx        1 4UY      0.121700
     60 H19       268.7290  342.1580   38.7580 hn        1 4UY      0.494800
     61 H20       271.4490  341.8990   35.5170 h1        1 4UY      0.121700
     62 H21       268.6180  341.3550   34.4830 h1        1 4UY      0.092200
     63 H22       270.1920  340.5130   34.0180 h1        1 4UY      0.092200
     64 H23       270.8720  343.8950   32.4630 h2        1 4UY      0.158700
     65 H24       267.6890  345.5320   34.1190 h1        1 4UY      0.100200
     66 H25       267.6600  343.7490   34.5720 h1        1 4UY      0.100200
     67 H26       269.1310  344.4820   36.3380 hx        1 4UY      0.144700
     68 H27       271.5740  344.1110   34.8510 hc        1 4UY      0.109700
     69 H28       270.0700  346.4920   34.3590 hn        1 4UY      0.461800
     70 H30       268.1190  347.0770   35.7070 hx        1 4UY      0.115700
     71 H31       269.5960  348.1050   36.0660 hx        1 4UY      0.115700
     72 H32       269.1360  346.7310   37.1940 hx        1 4UY      0.115700
     73 H33       266.4000  341.4020   39.9840 hc        1 4UY      0.094200
     74 H34       265.7140  339.8850   39.2600 hc        1 4UY      0.094200
     75 H37       269.5970  337.4210   42.8750 ha        1 4UY      0.169000
     76 H38       268.1940  336.3240   41.1210 ha        1 4UY      0.164000
     77 H39       266.8440  337.7090   39.5550 ha        1 4UY      0.134500
     78 H40      -972.4250-1255.5690 -131.3720 h1        1 4UY      0.082700
     79 H41      -973.7000-1256.8820 -131.1310 h1        1 4UY      0.082700
     80 H42      -973.8600-1255.2660 -130.2500 h1        1 4UY      0.082700
     81 H35       268.2770  341.3020   41.5110 ha        1 4UY      0.134500
     82 H111      264.6030  341.8870   35.2470 hn        1 4UY      0.374800
     83 H202      269.2100  340.5780   39.1400 hn        1 4UY      0.494800
     84 H412      270.9590  346.1380   35.7240 hn        1 4UY      0.461800
     85 H36       269.6420  339.9120   43.0590 ha        1 4UY      0.164000
@<TRIPOS>BOND
     1    1    2 ar  
     2    1    6 ar  
     3    1   40 1   
     4    2    3 ar  
     5    2   42 1   
     6    3    4 ar  
     7    3   43 1   
     8    4    5 ar  
     9    4    7 1   
    10    5    6 ar  
    11    5   44 1   
    12    6   45 1   
    13    7    8 1   
    14    7    9 1   
    15   10   11 1   
    16   10   15 1   
    17   10   82 1   
    18   11   12 1   
    19   11   46 1   
    20   11   47 1   
    21   12   13 1   
    22   12   14 1   
    23   12   48 1   
    24   13   49 1   
    25   13   50 1   
    26   13   51 1   
    27   14   52 1   
    28   14   53 1   
    29   14   54 1   
    30   15   16 1   
    31   15   55 1   
    32   15   56 1   
    33   16   17 1   
    34   16   18 1   
    35   16   57 1   
    36   17   58 1   
    37   18   19 1   
    38   18   33 1   
    39   18   59 1   
    40   19   20 1   
    41   19   60 1   
    42   19   83 1   
    43   20   21 2   
    44   20   22 1   
    45   22   23 1   
    46   23   24 1   
    47   23   30 1   
    48   23   61 1   
    49   24   25 1   
    50   24   62 1   
    51   24   63 1   
    52   25   26 1   
    53   26   27 1   
    54   26   30 1   
    55   26   64 1   
    56   27   28 1   
    57   28   29 1   
    58   28   65 1   
    59   28   66 1   
    60   29   30 1   
    61   29   31 1   
    62   29   67 1   
    63   30   68 1   
    64   31   32 1   
    65   31   69 1   
    66   31   84 1   
    67   32   70 1   
    68   32   71 1   
    69   32   72 1   
    70   33   39 1   
    71   33   73 1   
    72   33   74 1   
    73   34   35 ar  
    74   34   39 ar  
    75   34   81 1   
    76   35   36 ar  
    77   35   85 1   
    78   36   37 ar  
    79   36   75 1   
    80   37   38 ar  
    81   37   76 1   
    82   38   39 ar  
    83   38   77 1   
    84   40   41 1   
    85   41   78 1   
    86   41   79 1   
    87   41   80 1   
@<TRIPOS>SUBSTRUCTURE
     1 4UY         1 TEMP              0 ****  ****    0 ROOT
