@<TRIPOS>MOLECULE
4UZ
   42    43     1     0     0
SMALL
bcc


@<TRIPOS>ATOM
      1 C01         0.0720    0.6390    0.4900 c3        1 4UZ      0.129100
      2 C02         1.5630    0.5100    0.1120 c3        1 4UZ      0.046500
      3 C03         2.2890   -0.1280    1.3390 c3        1 4UZ      0.351900
      4 O04         1.7740   -1.4250    1.5370 os        1 4UZ     -0.421600
      5 C05         0.3820   -1.4560    1.8770 c3        1 4UZ      0.071100
      6 C06        -0.4620   -0.7760    0.7850 c3        1 4UZ      0.099100
      7 N07         2.1470    1.8270   -0.2870 ny        1 4UZ     -0.620800
      8 O08        -1.7900   -0.5690    1.2240 oh        1 4UZ     -0.602800
      9 O09        -0.5840    1.2390   -0.6080 oh        1 4UZ     -0.624800
     10 C10         0.0310   -2.9480    2.0070 c3        1 4UZ      0.130400
     11 O11         3.6400   -0.3270    1.0520 oh        1 4UZ     -0.601800
     12 O12        -1.3270   -3.0790    2.3600 oh        1 4UZ     -0.594800
     13 C13         3.4330    1.6750   -1.0480 c         1 4UZ      0.639100
     14 O14         4.3170    2.5980   -0.6380 os        1 4UZ     -0.405900
     15 O15         3.5960    0.8150   -1.9010 o         1 4UZ     -0.428000
     16 C16         5.5790    2.6890   -1.3870 c3        1 4UZ      0.213700
     17 C17         5.4030    3.5060   -2.6100 ca        1 4UZ     -0.184300
     18 C18         5.1850    2.8840   -3.8460 ca        1 4UZ     -0.094000
     19 C19         5.0690    3.6510   -5.0030 ca        1 4UZ     -0.130500
     20 C20         5.1700    5.0420   -4.9320 ca        1 4UZ     -0.086000
     21 C21         5.3850    5.6660   -3.7020 ca        1 4UZ     -0.130500
     22 C22         5.5020    4.9020   -2.5420 ca        1 4UZ     -0.094000
     23 H1         -0.0600    1.2890    1.4020 h1        1 4UZ      0.074700
     24 H2          1.6670   -0.1800   -0.7810 hx        1 4UZ      0.148700
     25 H3          2.2000    0.5210    2.2540 h2        1 4UZ      0.088700
     26 H4          0.2240   -0.9290    2.8590 h1        1 4UZ      0.073700
     27 H5         -0.4500   -1.3950   -0.1550 h1        1 4UZ      0.077700
     28 H6          2.3160    2.4080    0.5430 hn        1 4UZ      0.480300
     29 H7         -2.2000   -1.4410    1.3430 ho        1 4UZ      0.458000
     30 H8         -1.5360    1.0760   -0.5030 ho        1 4UZ      0.469000
     31 H9          0.1340   -3.4620    1.0140 h1        1 4UZ      0.079200
     32 H10         0.7120   -3.4320    2.7540 h1        1 4UZ      0.079200
     33 H11         3.8000   -1.2710    0.8780 ho        1 4UZ      0.467000
     34 H12        -1.4010   -2.9640    3.3160 ho        1 4UZ      0.422000
     35 H13         6.2280    3.1940   -0.6170 h1        1 4UZ      0.100200
     36 H14         5.9390    1.6510   -1.6080 h1        1 4UZ      0.100200
     37 H15         5.1090    1.7860   -3.9010 ha        1 4UZ      0.142500
     38 H16         4.9060    3.1590   -5.9740 ha        1 4UZ      0.152000
     39 H17         5.0850    5.6470   -5.8490 ha        1 4UZ      0.152000
     40 H18         5.4700    6.7620   -3.6480 ha        1 4UZ      0.152000
     41 H19         5.6820    5.3950   -1.5750 ha        1 4UZ      0.142500
     42 H072        1.4660    2.3050   -0.9010 hn        1 4UZ      0.480300
@<TRIPOS>BOND
     1    1    2 1   
     2    1    6 1   
     3    1    9 1   
     4    1   23 1   
     5    2    3 1   
     6    2    7 1   
     7    2   24 1   
     8    3    4 1   
     9    3   11 1   
    10    3   25 1   
    11    4    5 1   
    12    5    6 1   
    13    5   10 1   
    14    5   26 1   
    15    6    8 1   
    16    6   27 1   
    17    7   13 1   
    18    7   28 1   
    19    7   42 1   
    20    8   29 1   
    21    9   30 1   
    22   10   12 1   
    23   10   31 1   
    24   10   32 1   
    25   11   33 1   
    26   12   34 1   
    27   13   14 1   
    28   13   15 2   
    29   14   16 1   
    30   16   17 1   
    31   16   35 1   
    32   16   36 1   
    33   17   18 ar  
    34   17   22 ar  
    35   18   19 ar  
    36   18   37 1   
    37   19   20 ar  
    38   19   38 1   
    39   20   21 ar  
    40   20   39 1   
    41   21   22 ar  
    42   21   40 1   
    43   22   41 1   
@<TRIPOS>SUBSTRUCTURE
     1 4UZ         1 TEMP              0 ****  ****    0 ROOT
