@<TRIPOS>MOLECULE
4UZ
   42    43     1     0     0
SMALL
bcc


@<TRIPOS>ATOM
      1 C01         0.0660    0.6650    0.4990 c3        1 4UZ      0.129100
      2 C02         1.5530    0.5230    0.1150 c3        1 4UZ      0.046500
      3 C03         2.2790   -0.1240    1.3380 c3        1 4UZ      0.351900
      4 O04         1.7530   -1.4170    1.5360 os        1 4UZ     -0.421600
      5 C05         0.3630   -1.4360    1.8820 c3        1 4UZ      0.071100
      6 C06        -0.4800   -0.7470    0.7940 c3        1 4UZ      0.099100
      7 N07         2.1480    1.8360   -0.2840 n4        1 4UZ     -0.620800
      8 O08        -1.8040   -0.5280    1.2390 oh        1 4UZ     -0.602800
      9 O09        -0.5900    1.2720   -0.5950 oh        1 4UZ     -0.624800
     10 C10        -0.0010   -2.9250    2.0100 c3        1 4UZ      0.130400
     11 O11         3.6270   -0.3340    1.0450 oh        1 4UZ     -0.601800
     12 O12        -1.3580   -3.0440    2.3690 oh        1 4UZ     -0.594800
     13 C13         3.4300    1.6730   -1.0490 c         1 4UZ      0.639100
     14 O14         4.3230    2.5870   -0.6400 os        1 4UZ     -0.405900
     15 O15         3.5830    0.8140   -1.9040 o         1 4UZ     -0.428000
     16 C16         5.5840    2.6690   -1.3920 c3        1 4UZ      0.213700
     17 C17         5.4120    3.4900   -2.6140 ca        1 4UZ     -0.184300
     18 C18         5.1840    2.8720   -3.8500 ca        1 4UZ     -0.094000
     19 C19         5.0720    3.6430   -5.0050 ca        1 4UZ     -0.130500
     20 C20         5.1860    5.0320   -4.9320 ca        1 4UZ     -0.086000
     21 C21         5.4110    5.6520   -3.7020 ca        1 4UZ     -0.130500
     22 C22         5.5240    4.8840   -2.5440 ca        1 4UZ     -0.094000
     23 H1         -0.0580    1.3130    1.4130 h1        1 4UZ      0.074700
     24 H2          1.6490   -0.1670   -0.7800 hx        1 4UZ      0.148700
     25 H3          2.1990    0.5240    2.2550 h2        1 4UZ      0.088700
     26 H4          0.2130   -0.9090    2.8650 h1        1 4UZ      0.073700
     27 H5         -0.4770   -1.3640   -0.1470 h1        1 4UZ      0.077700
     28 H6          2.3240    2.4130    0.5470 hn        1 4UZ      0.480300
     29 H7         -2.2210   -1.3970    1.3580 ho        1 4UZ      0.458000
     30 H8         -1.5420    1.1170   -0.4870 ho        1 4UZ      0.469000
     31 H9          0.6790   -3.4170    2.7530 h1        1 4UZ      0.079200
     32 H10         0.0930   -3.4380    1.0150 h1        1 4UZ      0.079200
     33 H11         3.7780   -1.2790    0.8690 ho        1 4UZ      0.467000
     34 H12        -1.4280   -2.9300    3.3260 ho        1 4UZ      0.422000
     35 H13         5.9340    1.6280   -1.6170 h1        1 4UZ      0.100200
     36 H14         6.2400    3.1660   -0.6240 h1        1 4UZ      0.100200
     37 H15         5.0970    1.7740   -3.9060 ha        1 4UZ      0.142500
     38 H16         4.9010    3.1540   -5.9770 ha        1 4UZ      0.152000
     39 H17         5.1040    5.6400   -5.8470 ha        1 4UZ      0.152000
     40 H18         5.5070    6.7470   -3.6460 ha        1 4UZ      0.152000
     41 H19         5.7120    5.3740   -1.5760 ha        1 4UZ      0.142500
     42 H072        1.4680    2.3210   -0.8950 hn        1 4UZ      0.480300
@<TRIPOS>BOND
     1    1    2 1   
     2    1    6 1   
     3    1    9 1   
     4    1   23 1   
     5    2    3 1   
     6    2    7 1   
     7    2   24 1   
     8    3    4 1   
     9    3   11 1   
    10    3   25 1   
    11    4    5 1   
    12    5    6 1   
    13    5   10 1   
    14    5   26 1   
    15    6    8 1   
    16    6   27 1   
    17    7   13 1   
    18    7   28 1   
    19    7   42 1   
    20    8   29 1   
    21    9   30 1   
    22   10   12 1   
    23   10   31 1   
    24   10   32 1   
    25   11   33 1   
    26   12   34 1   
    27   13   14 1   
    28   13   15 2   
    29   14   16 1   
    30   16   17 1   
    31   16   35 1   
    32   16   36 1   
    33   17   18 ar  
    34   17   22 ar  
    35   18   19 ar  
    36   18   37 1   
    37   19   20 ar  
    38   19   38 1   
    39   20   21 ar  
    40   20   39 1   
    41   21   22 ar  
    42   21   40 1   
    43   22   41 1   
@<TRIPOS>SUBSTRUCTURE
     1 4UZ         1 TEMP              0 ****  ****    0 ROOT
