@<TRIPOS>MOLECULE
4V2
   19    20     1     0     0
SMALL
bcc


@<TRIPOS>ATOM
      1 OAA         0.0040    0.1850   -0.1760 oh        1 4V2     -0.494100
      2 CAJ         1.3740    0.1120   -0.0730 ca        1 4V2      0.119100
      3 CAF         2.0340    0.0600    1.1610 ca        1 4V2     -0.171000
      4 CAD         2.0910    0.0920   -1.2830 ca        1 4V2     -0.134000
      5 CAC         3.4790    0.0200   -1.2420 ca        1 4V2     -0.104000
      6 CAE         4.1560   -0.0330   -0.0230 ca        1 4V2     -0.128000
      7 CAL         3.4330   -0.0130    1.1770 ca        1 4V2     -0.099500
      8 CAM         4.1230   -0.0670    2.4480 cc        1 4V2      0.512900
      9 OAI         5.5340   -0.1390    2.4440 os        1 4V2     -0.364800
     10 NAH         3.6910   -0.0640    3.7290 nd        1 4V2     -0.333000
     11 NAG         4.7290   -0.1290    4.5380 nd        1 4V2     -0.362000
     12 CAK         5.8690   -0.1760    3.8050 cc        1 4V2      0.512700
     13 SAB         7.4860   -0.2650    4.2180 sh        1 4V2     -0.206100
     14 HAA        -0.3650    0.1910    0.7200 ho        1 4V2      0.425000
     15 HAF         1.4620    0.0760    2.1010 ha        1 4V2      0.159000
     16 HAD         1.5460    0.1350   -2.2360 ha        1 4V2      0.156000
     17 HAC         4.0510    0.0040   -2.1820 ha        1 4V2      0.143000
     18 HAE         5.2550   -0.0900   -0.0000 ha        1 4V2      0.151000
     19 HAB         7.3410   -0.2780    5.5400 hs        1 4V2      0.217800
@<TRIPOS>BOND
     1    1    2 1   
     2    1   14 1   
     3    2    3 ar  
     4    2    4 ar  
     5    3    7 ar  
     6    3   15 1   
     7    4    5 ar  
     8    4   16 1   
     9    5    6 ar  
    10    5   17 1   
    11    6    7 ar  
    12    6   18 1   
    13    7    8 1   
    14    8    9 1   
    15    8   10 2   
    16    9   12 1   
    17   10   11 1   
    18   11   12 2   
    19   12   13 1   
    20   13   19 1   
@<TRIPOS>SUBSTRUCTURE
     1 4V2         1 TEMP              0 ****  ****    0 ROOT
