@<TRIPOS>MOLECULE
4V2
   19    17     1     0     0
SMALL
bcc


@<TRIPOS>ATOM
      1 OAA        -3.4790    0.2150   -1.3720 oh        1 4V2     -0.247000
      2 CAJ        -2.0840    0.0240   -1.3710 c2        1 4V2      0.074000
      3 CAF        -1.3890    0.0040   -0.1710 c2        1 4V2     -0.123000
      4 CAD        -1.4020   -0.1080   -2.5690 c1        1 4V2     -0.191000
      5 CAC        -0.0240   -0.2610   -2.5690 c1        1 4V2     -0.109500
      6 CAE         0.6710   -0.2810   -1.3700 c1        1 4V2     -0.109500
      7 CAL        -0.0120   -0.1490   -0.1710 c1        1 4V2      0.004000
      8 CAM         0.7460   -0.1850    1.1390 c2        1 4V2      0.012000
      9 OAI         1.1940    0.8870    1.8250 os        1 4V2     -0.105000
     10 NAH         1.1330   -1.2900    1.7960 n2        1 4V2     -0.067000
     11 NAG         1.8240   -0.9040    2.8930 n2        1 4V2     -0.100000
     12 CAK         1.8600    0.4390    2.9090 c1        1 4V2     -0.206000
     13 SAB         2.6800    1.4440    4.1170 s         1 4V2      0.294000
     14 HAA        -3.8860   -0.5740   -1.4430 ho        1 4V2      0.221000
     15 HAF        -1.8700    0.0970    0.6720 ha        1 4V2      0.167000
     16 HAD        -1.8910   -0.0940   -3.4140 ha        1 4V2      0.139000
     17 HAC         0.4570   -0.3540   -3.4130 ha        1 4V2      0.151000
     18 HAE         1.6410   -0.3890   -1.3700 ha        1 4V2      0.151000
     19 HAB         3.8320    1.4790    3.8820 hs        1 4V2      0.046000
@<TRIPOS>BOND
     1    1    2 1   
     2    1   14 1   
     3    2    3 1   
     4    2    4 1   
     5    3    7 1   
     6    3   15 1   
     7    4   16 1   
     8    5    6 1   
     9    5   17 1   
    10    6   18 1   
    11    7    8 1   
    12    8    9 1   
    13    8   10 1   
    14    9   12 1   
    15   10   11 1   
    16   11   12 1   
    17   13   19 1   
@<TRIPOS>SUBSTRUCTURE
     1 4V2         1 TEMP              0 ****  ****    0 ROOT
