@<TRIPOS>MOLECULE
4V2
   19    20     1     0     0
SMALL
bcc


@<TRIPOS>ATOM
      1 OAA         0.0130    0.2910   -0.1790 oh        1 4V2     -0.494100
      2 CAJ         1.3790    0.1700   -0.0750 ca        1 4V2      0.119100
      3 CAF         2.0380    0.1130    1.1600 ca        1 4V2     -0.171000
      4 CAD         2.0940    0.1050   -1.2840 ca        1 4V2     -0.134000
      5 CAC         3.4790   -0.0180   -1.2420 ca        1 4V2     -0.104000
      6 CAE         4.1540   -0.0760   -0.0230 ca        1 4V2     -0.128000
      7 CAL         3.4340   -0.0110    1.1770 ca        1 4V2     -0.099500
      8 CAM         4.1220   -0.0700    2.4490 cc        1 4V2      0.512900
      9 OAI         5.5290   -0.1950    2.4450 os        1 4V2     -0.364800
     10 NAH         3.6910   -0.0300    3.7290 nd        1 4V2     -0.333000
     11 NAG         4.7270   -0.1200    4.5390 nd        1 4V2     -0.362000
     12 CAK         5.8640   -0.2230    3.8070 cc        1 4V2      0.512700
     13 SAB         7.4760   -0.3650    4.2210 sh        1 4V2     -0.206100
     14 HAA        -0.3550    0.3250    0.7170 ho        1 4V2      0.425000
     15 HAF         1.4670    0.1650    2.1000 ha        1 4V2      0.159000
     16 HAD         1.5500    0.1520   -2.2380 ha        1 4V2      0.156000
     17 HAC         4.0490   -0.0700   -2.1820 ha        1 4V2      0.143000
     18 HAE         5.2500   -0.1740    0.0010 ha        1 4V2      0.151000
     19 HAB         7.3320   -0.3500    5.5430 hs        1 4V2      0.217800
@<TRIPOS>BOND
     1    1    2 1   
     2    1   14 1   
     3    2    3 ar  
     4    2    4 ar  
     5    3    7 ar  
     6    3   15 1   
     7    4    5 ar  
     8    4   16 1   
     9    5    6 ar  
    10    5   17 1   
    11    6    7 ar  
    12    6   18 1   
    13    7    8 1   
    14    8    9 1   
    15    8   10 2   
    16    9   12 1   
    17   10   11 1   
    18   11   12 2   
    19   12   13 1   
    20   13   19 1   
@<TRIPOS>SUBSTRUCTURE
     1 4V2         1 TEMP              0 ****  ****    0 ROOT
