@<TRIPOS>MOLECULE
4V2
   19    20     1     0     0
SMALL
bcc


@<TRIPOS>ATOM
      1 OAA         4.4270    1.1770    0.1830 oh        1 4V2     -0.494100
      2 CAJ         3.3410    0.3350    0.1120 ca        1 4V2      0.119100
      3 CAF         2.0220    0.8070    0.1170 ca        1 4V2     -0.171000
      4 CAD         3.6220   -1.0400    0.0320 ca        1 4V2     -0.134000
      5 CAC         2.5640   -1.9400   -0.0420 ca        1 4V2     -0.104000
      6 CAE         1.2430   -1.4920   -0.0380 ca        1 4V2     -0.128000
      7 CAL         0.9730   -0.1190    0.0420 ca        1 4V2     -0.099500
      8 CAM        -0.3930    0.3590    0.0470 cc        1 4V2      0.512900
      9 OAI        -1.4370   -0.5900   -0.0300 os        1 4V2     -0.364800
     10 NAH        -0.9330    1.5970    0.1140 nd        1 4V2     -0.333000
     11 NAG        -2.2460    1.5000    0.0850 nd        1 4V2     -0.362000
     12 CAK        -2.6000    0.1940   -0.0020 cc        1 4V2      0.512700
     13 SAB        -4.0770   -0.5840   -0.0760 sh        1 4V2     -0.206100
     14 HAA         4.0990    2.0870    0.2330 ho        1 4V2      0.425000
     15 HAF         1.8150    1.8860    0.1800 ha        1 4V2      0.159000
     16 HAD         4.6670   -1.3810    0.0300 ha        1 4V2      0.156000
     17 HAC         2.7710   -3.0190   -0.1040 ha        1 4V2      0.143000
     18 HAE         0.4120   -2.2110   -0.0970 ha        1 4V2      0.151000
     19 HAB        -4.8580    0.4910   -0.0240 hs        1 4V2      0.217800
@<TRIPOS>BOND
     1    1    2 1   
     2    1   14 1   
     3    2    3 ar  
     4    2    4 ar  
     5    3    7 ar  
     6    3   15 1   
     7    4    5 ar  
     8    4   16 1   
     9    5    6 ar  
    10    5   17 1   
    11    6    7 ar  
    12    6   18 1   
    13    7    8 1   
    14    8    9 1   
    15    8   10 2   
    16    9   12 1   
    17   10   11 1   
    18   11   12 2   
    19   12   13 1   
    20   13   19 1   
@<TRIPOS>SUBSTRUCTURE
     1 4V2         1 TEMP              0 ****  ****    0 ROOT
