@<TRIPOS>MOLECULE
4V4
   49    50     1     0     0
SMALL
bcc


@<TRIPOS>ATOM
      1 N01        -0.8580    0.9680   -0.4990 nb        1 4V4     -0.749000
      2 C02         0.4800    1.1510   -0.7270 ca        1 4V4      0.639200
      3 N02         0.8920    1.6960   -1.9510 nh        1 4V4     -0.928500
      4 C03         1.4730    0.7330    0.2140 ca        1 4V4     -0.296300
      5 C04         1.0690    0.1030    1.3870 ca        1 4V4      0.003700
      6 C05        -0.3000   -0.0970    1.6130 ca        1 4V4     -0.289300
      7 C06        -1.2210    0.3460    0.6460 ca        1 4V4      0.439600
      8 C07         2.0650   -0.3610    2.3800 c3        1 4V4     -0.065800
      9 C08        -2.6830    0.0870    0.8890 c3        1 4V4     -0.121700
     10 C09        -3.5230    1.3470    0.7800 c3        1 4V4     -0.040100
     11 C11        -4.9730    1.0580    0.9660 ca        1 4V4     -0.058300
     12 C12        -5.6710    1.5850    2.0590 ca        1 4V4     -0.116000
     13 C13        -7.0300    1.3200    2.2130 ca        1 4V4     -0.115000
     14 C14        -7.7130    0.5340    1.2880 ca        1 4V4     -0.118000
     15 C15        -7.0230   -0.0030    0.1820 ca        1 4V4      0.055600
     16 C16        -5.6510    0.2710    0.0310 ca        1 4V4     -0.173000
     17 C17        -7.0400   -2.0230   -1.1770 c3        1 4V4      0.158100
     18 N17        -7.7420   -0.8410   -0.7350 nh        1 4V4     -0.615000
     19 C18        -8.4490   -0.1210   -1.7580 c3        1 4V4      0.179800
     20 C19        -7.5430    0.6190   -2.7820 c3        1 4V4      0.032800
     21 N20        -8.3120    1.5750   -3.6290 n4        1 4V4     -0.748000
     22 C21        -7.4490    2.2730   -4.6090 c3        1 4V4      0.078100
     23 HN02        1.7710    2.1600   -1.9110 hn        1 4V4      0.404300
     24 HN0A        0.1980    2.1820   -2.4740 hn        1 4V4      0.404300
     25 H03         2.5390    0.8970    0.0080 ha        1 4V4      0.148000
     26 H05        -0.6440   -0.5910    2.5300 ha        1 4V4      0.145000
     27 H07         3.0420    0.1670    2.2520 hc        1 4V4      0.055033
     28 H07A        1.6980   -0.1830    3.4210 hc        1 4V4      0.055033
     29 H07B        2.2400   -1.4600    2.2530 hc        1 4V4      0.055033
     30 H08        -2.8120   -0.3580    1.9120 hc        1 4V4      0.056200
     31 H08A       -3.0420   -0.6740    0.1440 hc        1 4V4      0.056200
     32 H09        -3.1750    2.0910    1.5460 hc        1 4V4      0.064200
     33 H09A       -3.3750    1.8170   -0.2300 hc        1 4V4      0.064200
     34 H12        -5.1430    2.2020    2.8020 ha        1 4V4      0.151000
     35 H13        -7.5720    1.7260    3.0820 ha        1 4V4      0.149000
     36 H14        -8.7830    0.3190    1.4350 ha        1 4V4      0.148000
     37 H16        -5.0840   -0.1580   -0.8110 ha        1 4V4      0.133000
     38 H17        -6.2390   -1.8080   -1.9360 h1        1 4V4      0.051033
     39 H17A       -6.5670   -2.5140   -0.2850 h1        1 4V4      0.051033
     40 H17B       -7.7860   -2.7300   -1.6280 h1        1 4V4      0.051033
     41 H18        -9.0970   -0.8540   -2.3190 h1        1 4V4      0.070700
     42 H18A       -9.1120    0.6330   -1.2420 h1        1 4V4      0.070700
     43 H19        -6.7440    1.1990   -2.2330 hx        1 4V4      0.112700
     44 H19A       -7.0430   -0.1270   -3.4620 hx        1 4V4      0.112700
     45 HN20       -9.0500    1.0610   -4.1250 hn        1 4V4      0.453300
     46 H21        -6.9670    1.5200   -5.2890 hx        1 4V4      0.110700
     47 H21A       -6.6510    2.8460   -4.0640 hx        1 4V4      0.110700
     48 H21B       -8.0760    2.9830   -5.2150 hx        1 4V4      0.110700
     49 H202       -8.7670    2.2660   -3.0180 hn        1 4V4      0.453300
@<TRIPOS>BOND
     1    1    2 ar  
     2    1    7 ar  
     3    2    3 1   
     4    2    4 ar  
     5    3   23 1   
     6    3   24 1   
     7    4    5 ar  
     8    4   25 1   
     9    5    6 ar  
    10    5    8 1   
    11    6    7 ar  
    12    6   26 1   
    13    7    9 1   
    14    8   27 1   
    15    8   28 1   
    16    8   29 1   
    17    9   10 1   
    18    9   30 1   
    19    9   31 1   
    20   10   11 1   
    21   10   32 1   
    22   10   33 1   
    23   11   12 ar  
    24   11   16 ar  
    25   12   13 ar  
    26   12   34 1   
    27   13   14 ar  
    28   13   35 1   
    29   14   15 ar  
    30   14   36 1   
    31   15   16 ar  
    32   15   18 1   
    33   16   37 1   
    34   17   18 1   
    35   17   38 1   
    36   17   39 1   
    37   17   40 1   
    38   18   19 1   
    39   19   20 1   
    40   19   41 1   
    41   19   42 1   
    42   20   21 1   
    43   20   43 1   
    44   20   44 1   
    45   21   22 1   
    46   21   45 1   
    47   21   49 1   
    48   22   46 1   
    49   22   47 1   
    50   22   48 1   
@<TRIPOS>SUBSTRUCTURE
     1 4V4         1 TEMP              0 ****  ****    0 ROOT
