@<TRIPOS>MOLECULE
4V4
   49    50     1     0     0
SMALL
bcc


@<TRIPOS>ATOM
      1 N01        -0.8610    0.9830   -0.4900 nb        1 4V4     -0.749000
      2 C02         0.4770    1.1730   -0.7140 ca        1 4V4      0.639200
      3 N02         0.8880    1.7220   -1.9380 nv        1 4V4     -0.928500
      4 C03         1.4690    0.7590    0.2270 ca        1 4V4     -0.296300
      5 C04         1.0670    0.1250    1.3990 ca        1 4V4      0.003700
      6 C05        -0.3020   -0.0820    1.6220 ca        1 4V4     -0.289300
      7 C06        -1.2230    0.3570    0.6540 ca        1 4V4      0.439600
      8 C07         2.0630   -0.3360    2.3930 c3        1 4V4     -0.065800
      9 C08        -2.6850    0.0920    0.8930 c3        1 4V4     -0.121700
     10 C09        -3.5300    1.3480    0.7840 c3        1 4V4     -0.040100
     11 C11        -4.9790    1.0520    0.9660 ca        1 4V4     -0.058300
     12 C12        -5.6830    1.5730    2.0580 ca        1 4V4     -0.116000
     13 C13        -7.0410    1.3010    2.2090 ca        1 4V4     -0.115000
     14 C14        -7.7170    0.5130    1.2810 ca        1 4V4     -0.118000
     15 C15        -7.0220   -0.0190    0.1770 ca        1 4V4      0.055600
     16 C16        -5.6510    0.2610    0.0290 ca        1 4V4     -0.173000
     17 C17        -7.0280   -2.0390   -1.1820 c3        1 4V4      0.158100
     18 N17        -7.7360   -0.8590   -0.7430 nh        1 4V4     -0.615000
     19 C18        -8.4410   -0.1420   -1.7690 c3        1 4V4      0.179800
     20 C19        -7.5330    0.6000   -2.7900 c3        1 4V4      0.032800
     21 N20        -8.3020    1.5530   -3.6410 ny        1 4V4     -0.748000
     22 C21        -7.4380    2.2540   -4.6170 c3        1 4V4      0.078100
     23 HN02        1.7660    2.1900   -1.8950 hn        1 4V4      0.404300
     24 HN0A        0.1930    2.2050   -2.4610 hn        1 4V4      0.404300
     25 H03         2.5360    0.9280    0.0240 ha        1 4V4      0.148000
     26 H05        -0.6460   -0.5790    2.5380 ha        1 4V4      0.145000
     27 H07         2.2430   -1.4330    2.2650 hc        1 4V4      0.055033
     28 H07A        3.0370    0.1970    2.2680 hc        1 4V4      0.055033
     29 H07B        1.6930   -0.1610    3.4340 hc        1 4V4      0.055033
     30 H08        -2.8130   -0.3550    1.9150 hc        1 4V4      0.056200
     31 H08A       -3.0380   -0.6700    0.1470 hc        1 4V4      0.056200
     32 H09        -3.3830    1.8200   -0.2250 hc        1 4V4      0.064200
     33 H09A       -3.1880    2.0920    1.5510 hc        1 4V4      0.064200
     34 H12        -5.1590    2.1920    2.8030 ha        1 4V4      0.151000
     35 H13        -7.5860    1.7040    3.0770 ha        1 4V4      0.149000
     36 H14        -8.7870    0.2930    1.4260 ha        1 4V4      0.148000
     37 H16        -5.0800   -0.1630   -0.8130 ha        1 4V4      0.133000
     38 H17        -6.2240   -1.8210   -1.9370 h1        1 4V4      0.051033
     39 H17A       -7.7690   -2.7490   -1.6370 h1        1 4V4      0.051033
     40 H17B       -6.5570   -2.5280   -0.2880 h1        1 4V4      0.051033
     41 H18        -9.1080    0.6100   -1.2560 h1        1 4V4      0.070700
     42 H18A       -9.0840   -0.8770   -2.3320 h1        1 4V4      0.070700
     43 H19        -6.7380    1.1840   -2.2380 hx        1 4V4      0.112700
     44 H19A       -7.0280   -0.1440   -3.4670 hx        1 4V4      0.112700
     45 HN20       -9.0370    1.0360   -4.1390 hn        1 4V4      0.453300
     46 H21        -8.0640    2.9610   -5.2260 hx        1 4V4      0.110700
     47 H21A       -6.6430    2.8290   -4.0700 hx        1 4V4      0.110700
     48 H21B       -6.9510    1.5020   -5.2950 hx        1 4V4      0.110700
     49 H202       -8.7620    2.2430   -3.0320 hn        1 4V4      0.453300
@<TRIPOS>BOND
     1    1    2 ar  
     2    1    7 ar  
     3    2    3 1   
     4    2    4 ar  
     5    3   23 1   
     6    3   24 1   
     7    4    5 ar  
     8    4   25 1   
     9    5    6 ar  
    10    5    8 1   
    11    6    7 ar  
    12    6   26 1   
    13    7    9 1   
    14    8   27 1   
    15    8   28 1   
    16    8   29 1   
    17    9   10 1   
    18    9   30 1   
    19    9   31 1   
    20   10   11 1   
    21   10   32 1   
    22   10   33 1   
    23   11   12 ar  
    24   11   16 ar  
    25   12   13 ar  
    26   12   34 1   
    27   13   14 ar  
    28   13   35 1   
    29   14   15 ar  
    30   14   36 1   
    31   15   16 ar  
    32   15   18 1   
    33   16   37 1   
    34   17   18 1   
    35   17   38 1   
    36   17   39 1   
    37   17   40 1   
    38   18   19 1   
    39   19   20 1   
    40   19   41 1   
    41   19   42 1   
    42   20   21 1   
    43   20   43 1   
    44   20   44 1   
    45   21   22 1   
    46   21   45 1   
    47   21   49 1   
    48   22   46 1   
    49   22   47 1   
    50   22   48 1   
@<TRIPOS>SUBSTRUCTURE
     1 4V4         1 TEMP              0 ****  ****    0 ROOT
