@<TRIPOS>MOLECULE
4V5
   45    41     1     0     0
SMALL
bcc


@<TRIPOS>ATOM
      1 C21         0.1130   -1.5490    0.9780 c1        1 4V5     -0.004000
      2 C01        -4.1270    4.7780    7.2890 c3        1 4V5     -0.050000
      3 C02        -2.8100    4.4730    6.5510 c3        1 4V5     -0.114000
      4 C03        -0.5960    2.9100   10.9310 c1        1 4V5      0.213000
      5 O04        -1.8120    2.3260   11.0050 os        1 4V5     -0.226000
      6 C05        -2.7390    2.3520   10.0350 c1        1 4V5     -0.004000
      7 C06        -4.9230    3.4930    7.5350 c3        1 4V5     -0.021000
      8 N07        -1.7370    3.9240    7.3400 n8        1 4V5     -0.362000
      9 O08        -5.9440    3.6970    8.4870 oh        1 4V5     -0.333000
     10 C10        -4.0410    1.8040   10.4970 c3        1 4V5     -0.133000
     11 O12        -4.2070    1.5950   11.8830 oh        1 4V5     -0.312000
     12 C13         0.1620    2.4470    4.9580 c2        1 4V5      0.233000
     13 C14        -0.0940    3.6490    4.1250 c3        1 4V5     -0.293000
     14 O15         0.1280    1.2920    4.5090 o         1 4V5     -0.401000
     15 C16        -0.0840   -1.6190    4.5260 c2        1 4V5     -0.179000
     16 C17        -0.3910   -1.5160    3.2870 c1        1 4V5      0.197000
     17 C18         2.2400    0.3240   -1.0770 c1        1 4V5      0.002000
     18 C19         1.6410   -0.6010   -0.6070 c1        1 4V5     -0.268000
     19 C20         0.9320   -1.6880   -0.0580 c2        1 4V5      0.290000
     20 C22        -0.7530   -1.3890    1.9760 c2        1 4V5     -0.083000
     21 O23         1.0790   -2.9460   -0.5850 oh        1 4V5     -0.209000
     22 H1         -1.8180   -1.1460    1.7540 ha        1 4V5      0.202000
     23 H2         -3.9250    5.2920    8.2710 h1        1 4V5      0.092000
     24 H3         -2.4500    5.4260    6.0680 h1        1 4V5      0.087000
     25 H4         -3.0390    3.7430    5.7230 h1        1 4V5      0.087000
     26 H5         -5.3570    3.1230    6.5680 h1        1 4V5      0.096500
     27 H6         -4.2580    2.7100    7.9900 h1        1 4V5      0.096500
     28 H7         -1.3710    4.6190    7.9650 hn        1 4V5      0.158500
     29 H8         -6.5260    4.3860    8.1380 ho        1 4V5      0.220000
     30 H10        -4.2290    0.8490    9.9250 h1        1 4V5      0.147000
     31 H11        -4.8490    2.5490   10.2160 h1        1 4V5      0.147000
     32 H13        -3.4510    1.0810   12.1960 ho        1 4V5      0.206000
     33 H14        -0.9690    4.2040    4.5530 hc        1 4V5      0.116000
     34 H15         0.3810    2.6350    6.0340 h4        1 4V5      0.120000
     35 H16         0.7970    4.3240    4.1580 hc        1 4V5      0.116000
     36 H17        -0.3120    3.3850    3.0630 hc        1 4V5      0.116000
     37 H18        -0.0990   -2.5620    5.1080 ha        1 4V5      0.258500
     38 H19         2.7770    1.1420   -1.5030 ha        1 4V5      0.259000
     39 H20         0.2240   -0.7190    5.1210 ha        1 4V5      0.258500
     40 H21         1.6810   -2.8960   -1.3500 ho        1 4V5      0.270000
     41 O09        -4.9620    5.5980    6.4820 oh        1 4V5     -0.328000
     42 H9         -4.5470    6.4670    6.4340 ho        1 4V5      0.207000
     43 H072       -2.0590    3.1550    7.9050 hn        1 4V5      0.158500
     44 O11        -0.6340    3.9210   10.0680 oh        1 4V5     -0.311000
     45 H12         0.2210    4.3810   10.0830 ho        1 4V5      0.279000
@<TRIPOS>BOND
     1    1   19 1   
     2    1   20 1   
     3    2    3 1   
     4    2    7 1   
     5    2   23 1   
     6    2   41 1   
     7    3    8 1   
     8    3   24 1   
     9    3   25 1   
    10    4    5 1   
    11    4   44 1   
    12    5    6 1   
    13    6   10 1   
    14    7    9 1   
    15    7   26 1   
    16    7   27 1   
    17    8   28 1   
    18    8   43 1   
    19    9   29 1   
    20   10   11 1   
    21   10   30 1   
    22   10   31 1   
    23   11   32 1   
    24   12   13 1   
    25   12   14 1   
    26   12   34 1   
    27   13   33 1   
    28   13   35 1   
    29   13   36 1   
    30   15   16 1   
    31   15   37 1   
    32   15   39 1   
    33   16   20 1   
    34   17   18 1   
    35   17   38 1   
    36   18   19 1   
    37   19   21 1   
    38   20   22 1   
    39   21   40 1   
    40   41   42 1   
    41   44   45 1   
@<TRIPOS>SUBSTRUCTURE
     1 4V5         1 TEMP              0 ****  ****    0 ROOT
