@<TRIPOS>MOLECULE
4V5
   45    43     1     0     0
SMALL
bcc


@<TRIPOS>ATOM
      1 C21         1.0340    0.3250    0.1040 c1        1 4V5     -0.184000
      2 C01        -3.9670    1.7810    8.1370 c3        1 4V5      0.010000
      3 C02        -5.1190    1.2420    8.9710 c3        1 4V5     -0.249000
      4 C03        -0.7730    4.2820    9.5590 c1        1 4V5      0.189000
      5 O04        -1.8040    3.6690    9.0080 os        1 4V5     -0.256000
      6 C05        -3.1840    4.0120    9.2420 c3        1 4V5     -0.057000
      7 C06        -3.9840    3.3520    8.0760 c3        1 4V5      0.105000
      8 N07        -3.3760    3.8270    6.7470 n4        1 4V5     -0.105000
      9 O08        -5.2710    3.9110    8.1180 oh        1 4V5     -0.299000
     10 C10        -3.6310    3.5060   10.6180 c3        1 4V5     -0.026000
     11 O12        -2.7830    4.0090   11.6200 oh        1 4V5     -0.300000
     12 C13        -0.9060    1.3610    4.8200 c2        1 4V5      0.250000
     13 C14         0.2030    2.0590    4.0990 c3        1 4V5     -0.199000
     14 O15        -1.7380    1.9600    5.5180 o         1 4V5     -0.427000
     15 C16         0.4410    1.4480    2.7710 c2        1 4V5     -0.190000
     16 C17         0.5520    2.1630    1.6430 c2        1 4V5     -0.088000
     17 C18         3.7130   -1.9110   -0.2760 c1        1 4V5     -0.124000
     18 C19         2.5990   -1.4770   -0.2140 c1        1 4V5     -0.192000
     19 C20         1.2930   -0.9440   -0.1430 c2        1 4V5      0.205000
     20 C22         0.7930    1.5850    0.3340 c2        1 4V5     -0.049000
     21 O23         0.2210   -1.8090   -0.3180 oh        1 4V5     -0.251000
     22 H1          0.7620    2.2980   -0.5140 ha        1 4V5      0.150000
     23 H2         -2.9700    1.4850    8.5680 h1        1 4V5      0.137000
     24 H3         -5.4630    1.9800    9.7340 hc        1 4V5      0.113667
     25 H4         -5.9810    0.9790    8.3080 hc        1 4V5      0.113667
     26 H5         -4.7890    0.3100    9.4930 hc        1 4V5      0.113667
     27 H6         -3.3060    5.1300    9.1950 h1        1 4V5      0.126000
     28 H7         -3.6230    4.8020    6.5830 hn        1 4V5      0.264667
     29 H8         -5.9110    3.2640    7.7760 ho        1 4V5      0.258000
     30 H10        -3.5170    2.3890   10.6910 h1        1 4V5      0.115500
     31 H11        -4.7000    3.8070   10.7850 h1        1 4V5      0.115500
     32 H13        -2.9400    4.9600   11.7000 ho        1 4V5      0.218000
     33 H14        -3.7300    3.2370    5.9830 hn        1 4V5      0.264667
     34 H15        -0.9510    0.2530    4.7090 h4        1 4V5      0.120000
     35 H16         1.1340    1.9480    4.7280 hc        1 4V5      0.125000
     36 H17        -0.0120    3.1580    4.0160 hc        1 4V5      0.125000
     37 H18         0.5450    0.3490    2.7590 ha        1 4V5      0.144000
     38 H19         4.6990   -2.3020   -0.3350 ha        1 4V5      0.237000
     39 H20         0.4580    3.2640    1.6550 ha        1 4V5      0.127000
     40 H21         0.5490   -2.5920   -0.7840 ho        1 4V5      0.231000
     41 O09        -4.1430    1.2760    6.8230 oh        1 4V5     -0.342000
     42 H9         -3.3120    0.8670    6.5380 ho        1 4V5      0.247000
     43 H072       -2.3550    3.7080    6.7910 hn        1 4V5      0.264667
     44 O11        -1.1620    5.3090   10.3130 oh        1 4V5     -0.331000
     45 H12        -0.3870    5.7060   10.7460 ho        1 4V5      0.298000
@<TRIPOS>BOND
     1    1   19 1   
     2    1   20 1   
     3    2    3 1   
     4    2    7 1   
     5    2   23 1   
     6    2   41 1   
     7    3   24 1   
     8    3   25 1   
     9    3   26 1   
    10    4    5 1   
    11    4   44 1   
    12    5    6 1   
    13    6    7 1   
    14    6   10 1   
    15    6   27 1   
    16    7    8 1   
    17    7    9 1   
    18    8   28 1   
    19    8   33 1   
    20    8   43 1   
    21    9   29 1   
    22   10   11 1   
    23   10   30 1   
    24   10   31 1   
    25   11   32 1   
    26   12   13 1   
    27   12   14 1   
    28   12   34 1   
    29   13   15 1   
    30   13   35 1   
    31   13   36 1   
    32   15   16 1   
    33   15   37 1   
    34   16   20 1   
    35   16   39 1   
    36   17   18 1   
    37   17   38 1   
    38   18   19 1   
    39   19   21 1   
    40   20   22 1   
    41   21   40 1   
    42   41   42 1   
    43   44   45 1   
@<TRIPOS>SUBSTRUCTURE
     1 4V5         1 TEMP              0 ****  ****    0 ROOT
