@<TRIPOS>MOLECULE
4V8
   50    53     1     0     0
SMALL
bcc


@<TRIPOS>ATOM
      1 C2         -0.0650    0.2300   -0.5530 c3        1 4V8     -0.103000
      2 C3          1.3750   -0.3700   -0.4450 c3        1 4V8     -0.117000
      3 C11        -1.8080   -1.5870   -0.8410 c2        1 4V8     -0.478000
      4 C12        -1.6720   -2.8900   -0.8370 c1        1 4V8      0.194000
      5 C14        -1.6400    0.7920   -3.5520 c2        1 4V8     -0.128000
      6 C15        -1.8360    0.4040   -2.1930 c1        1 4V8      0.003000
      7 C16         4.0540    1.8730   -0.3090 c3        1 4V8      0.151000
      8 C17         5.4980    2.1950   -0.4350 c2        1 4V8     -0.320000
      9 C18         6.0340    2.6010   -1.5730 c1        1 4V8      0.101000
     10 C20         2.1760    1.7420   -1.7810 c2        1 4V8      0.278000
     11 C21         3.1510    2.5610   -1.2500 c2        1 4V8     -0.583000
     12 C24         6.7950    5.2530   -2.6800 c2        1 4V8     -0.137000
     13 C25         7.9980    5.7160   -1.8950 c3        1 4V8     -0.102000
     14 C26         8.2480    7.1780   -2.1770 c2        1 4V8     -0.153000
     15 C27         7.2890    8.0330   -2.5990 c2        1 4V8     -0.141000
     16 C28         5.9020    7.5340   -2.5900 c2        1 4V8     -0.085000
     17 C29         5.8870    6.2180   -2.7680 c1        1 4V8     -0.115000
     18 N1         -0.5440    0.2830    0.8710 n2        1 4V8      0.006000
     19 C4          1.6030   -0.2540    1.0570 c2        1 4V8     -0.114000
     20 N5          0.3250    0.0430    1.6940 n2        1 4V8      0.003000
     21 C6          2.4660    0.2700   -1.2870 c3        1 4V8     -0.130000
     22 N7          3.8130    0.3490   -0.5940 nx        1 4V8     -0.028000
     23 C8          3.9690   -0.4780    0.6330 c3        1 4V8     -0.090000
     24 C9          2.8280   -0.3250    1.5880 c2        1 4V8     -0.144000
     25 C10        -0.9570   -0.5720   -1.5190 c3        1 4V8     -0.025000
     26 N13        -2.2470    0.5280   -4.6500 n2        1 4V8     -0.223000
     27 N19         6.5830    2.7650   -2.6600 n2        1 4V8     -0.156000
     28 O22         1.2270    1.9170   -2.5770 o         1 4V8     -0.461000
     29 H1         -0.2630   -1.1010   -2.2410 hc        1 4V8      0.084000
     30 H2         -2.6630   -1.1530   -0.2690 ha        1 4V8      0.228000
     31 H3         -2.9510   -0.1800   -4.5930 hn        1 4V8      0.123000
     32 H4         -0.8400    1.5930   -3.5940 h4        1 4V8      0.219000
     33 H5          3.7380    2.0080    0.7700 hx        1 4V8      0.103000
     34 H6          6.1160    2.1370    0.4720 ha        1 4V8      0.153000
     35 H7          3.2790    3.6120   -1.4830 ha        1 4V8      0.173000
     36 H8          6.0090    3.9860   -4.2250 h1        1 4V8      0.125500
     37 H9          7.8080    3.8260   -3.9150 h1        1 4V8      0.125500
     38 H10         8.8840    5.1140   -2.2310 hc        1 4V8      0.111500
     39 H11         7.8870    5.5760   -0.7870 hc        1 4V8      0.111500
     40 H12         9.2770    7.5160   -1.9880 ha        1 4V8      0.136000
     41 H13         7.4770    9.0870   -2.8350 ha        1 4V8      0.145000
     42 H14         5.0680    8.1920   -2.3370 ha        1 4V8      0.167000
     43 H15        -0.0230    1.3070   -0.9090 h1        1 4V8      0.194000
     44 H16         1.3310   -1.4660   -0.7050 hc        1 4V8      0.116000
     45 H17         2.5990   -0.3610   -2.2140 hx        1 4V8      0.123000
     46 H18         4.5230    0.0540   -1.2680 hn        1 4V8      0.226000
     47 H19         4.0520   -1.5600    0.3220 hx        1 4V8      0.126000
     48 H20         4.9340   -0.1680    1.1270 hx        1 4V8      0.126000
     49 H21         3.0570   -0.2600    2.6590 ha        1 4V8      0.173000
     50 C23         6.8020    3.9650   -3.4180 c3        1 4V8      0.007000
@<TRIPOS>BOND
     1    1    2 1   
     2    1   18 1   
     3    1   25 1   
     4    1   43 1   
     5    2   19 1   
     6    2   21 1   
     7    2   44 1   
     8    3    4 1   
     9    3   25 1   
    10    3   30 1   
    11    5    6 1   
    12    5   26 1   
    13    5   32 1   
    14    6   25 1   
    15    7    8 1   
    16    7   11 1   
    17    7   22 1   
    18    7   33 1   
    19    8    9 1   
    20    8   34 1   
    21    9   27 1   
    22   10   11 1   
    23   10   21 1   
    24   10   28 1   
    25   11   35 1   
    26   12   13 1   
    27   12   17 1   
    28   12   50 1   
    29   13   14 1   
    30   13   38 1   
    31   13   39 1   
    32   14   15 1   
    33   14   40 1   
    34   15   16 1   
    35   15   41 1   
    36   16   17 1   
    37   16   42 1   
    38   18   20 1   
    39   19   20 1   
    40   19   24 1   
    41   21   22 1   
    42   21   45 1   
    43   22   23 1   
    44   22   46 1   
    45   23   24 1   
    46   23   47 1   
    47   23   48 1   
    48   24   49 1   
    49   25   29 1   
    50   26   31 1   
    51   27   50 1   
    52   36   50 1   
    53   37   50 1   
@<TRIPOS>SUBSTRUCTURE
     1 4V8         1 TEMP              0 ****  ****    0 ROOT
