@<TRIPOS>MOLECULE
4V8
   50    54     1     0     0
SMALL
bcc


@<TRIPOS>ATOM
      1 C2          0.1970    0.2220   -0.1690 cc        1 4V8     -0.050300
      2 C3          1.5730   -0.0530   -0.2270 cd        1 4V8     -0.257600
      3 C11        -2.0820   -0.2480   -1.0330 ca        1 4V8     -0.234800
      4 C12        -3.0160   -0.1340   -2.0780 ca        1 4V8      0.397700
      5 C14        -1.5340    1.0270   -3.3980 ca        1 4V8      0.397700
      6 C15        -0.5280    0.9700   -2.4170 ca        1 4V8     -0.234800
      7 C16         4.6240    0.7900   -1.4290 cc        1 4V8      0.236000
      8 C17         5.5680    1.4680   -0.5660 cc        1 4V8     -0.281000
      9 C18         6.3330    2.4910   -1.0600 cd        1 4V8      0.035600
     10 C20         5.3280    2.3280   -3.2500 c         1 4V8      0.702700
     11 C21         4.5280    1.2300   -2.7350 cd        1 4V8     -0.330200
     12 C24         6.5690    5.3800   -2.5060 ca        1 4V8     -0.119300
     13 C25         7.1900    6.1900   -1.5510 ca        1 4V8     -0.112500
     14 C26         6.7020    7.4730   -1.3020 ca        1 4V8     -0.133500
     15 C27         5.5910    7.9460   -2.0010 ca        1 4V8     -0.121000
     16 C28         4.9690    7.1380   -2.9520 ca        1 4V8     -0.133500
     17 C29         5.4560    5.8560   -3.2070 ca        1 4V8     -0.112500
     18 N1         -0.0920    0.3970    1.2000 na        1 4V8     -0.011600
     19 C4          2.0260   -0.0090    1.1530 cd        1 4V8      0.303600
     20 N5          0.9800    0.2770    1.9780 nc        1 4V8     -0.488800
     21 C6          2.4790   -0.3850   -1.3500 c3        1 4V8      0.271100
     22 N7          3.8930   -0.3330   -0.9900 nh        1 4V8     -0.634400
     23 C8          4.1720   -0.8820    0.3240 c3        1 4V8      0.186800
     24 C9          3.4410   -0.2360    1.5110 c3        1 4V8     -0.133700
     25 C10        -0.8080    0.3150   -1.2090 ca        1 4V8      0.014000
     26 N13        -2.7600    0.4900   -3.2440 nb        1 4V8     -0.656000
     27 N19         6.2660    2.9200   -2.3640 n         1 4V8     -0.345000
     28 O22         5.2390    2.7640   -4.4180 o         1 4V8     -0.661500
     29 H1         -2.3470   -0.7810   -0.1110 ha        1 4V8      0.150000
     30 H2         -4.0270   -0.5670   -1.9770 h4        1 4V8      0.028100
     31 H3         -1.3490    1.5330   -4.3630 h4        1 4V8      0.028100
     32 H4          0.4500    1.4370   -2.5950 ha        1 4V8      0.150000
     33 H5          5.6700    1.1900    0.4900 ha        1 4V8      0.149000
     34 H6          7.0530    3.0250   -0.4110 h4        1 4V8      0.152000
     35 H7          3.8580    0.7730   -3.4770 ha        1 4V8      0.162000
     36 H8          8.1270    3.8920   -2.3420 h1        1 4V8      0.076200
     37 H9          7.2210    3.9150   -3.9340 h1        1 4V8      0.076200
     38 H10         8.0660    5.8210   -0.9990 ha        1 4V8      0.143000
     39 H11         7.1940    8.1100   -0.5530 ha        1 4V8      0.133500
     40 H12         5.2070    8.9580   -1.8020 ha        1 4V8      0.132000
     41 H13         4.0940    7.5100   -3.5040 ha        1 4V8      0.133500
     42 H14         4.9740    5.2080   -3.9590 ha        1 4V8      0.143000
     43 H15        -0.9710    0.6550    1.5850 hn        1 4V8      0.325700
     44 H16         2.2730   -1.4460   -1.6840 h1        1 4V8      0.069200
     45 H17         2.2710    0.2980   -2.2220 h1        1 4V8      0.069200
     46 H18         3.8630   -1.9670    0.2710 h1        1 4V8      0.063700
     47 H19         5.2810   -0.8540    0.5120 h1        1 4V8      0.063700
     48 H20         3.9190    0.7440    1.7790 hc        1 4V8      0.066200
     49 H21         3.5310   -0.9130    2.4010 hc        1 4V8      0.066200
     50 C23         7.1090    4.0130   -2.8130 c3        1 4V8      0.127300
@<TRIPOS>BOND
     1    1    2 2   
     2    1   18 1   
     3    1   25 1   
     4    2   19 1   
     5    2   21 1   
     6    3    4 ar  
     7    3   25 ar  
     8    3   29 1   
     9    4   26 ar  
    10    4   30 1   
    11    5    6 ar  
    12    5   26 ar  
    13    5   31 1   
    14    6   25 ar  
    15    6   32 1   
    16    7    8 1   
    17    7   11 2   
    18    7   22 1   
    19    8    9 2   
    20    8   33 1   
    21    9   27 1   
    22    9   34 1   
    23   10   11 1   
    24   10   27 1   
    25   10   28 2   
    26   11   35 1   
    27   12   13 ar  
    28   12   17 ar  
    29   12   50 1   
    30   13   14 ar  
    31   13   38 1   
    32   14   15 ar  
    33   14   39 1   
    34   15   16 ar  
    35   15   40 1   
    36   16   17 ar  
    37   16   41 1   
    38   17   42 1   
    39   18   20 1   
    40   18   43 1   
    41   19   20 2   
    42   19   24 1   
    43   21   22 1   
    44   21   44 1   
    45   21   45 1   
    46   22   23 1   
    47   23   24 1   
    48   23   46 1   
    49   23   47 1   
    50   24   48 1   
    51   24   49 1   
    52   27   50 1   
    53   36   50 1   
    54   37   50 1   
@<TRIPOS>SUBSTRUCTURE
     1 4V8         1 TEMP              0 ****  ****    0 ROOT
