@<TRIPOS>MOLECULE
4V9
   37    40     1     0     0
SMALL
bcc


@<TRIPOS>ATOM
      1 C1          0.1100    0.1770    0.1250 ca        1 4V9      0.621200
      2 C2          0.2940    0.1560    2.4430 ca        1 4V9      0.423200
      3 C3          1.6860   -0.0270    2.4040 ca        1 4V9     -0.277300
      4 C11        -4.1610   -0.2300   -2.5320 cc        1 4V9     -0.047300
      5 C12        -5.2790   -0.7060   -1.7410 ca        1 4V9     -0.038000
      6 C13        -6.5610   -0.1680   -1.9230 ca        1 4V9     -0.089500
      7 C14        -7.6340   -0.6200   -1.1630 ca        1 4V9     -0.165000
      8 C15        -7.4270   -1.6270   -0.2020 ca        1 4V9      0.132900
      9 C16        -6.1430   -2.1720   -0.0130 ca        1 4V9     -0.165000
     10 C17        -5.0820   -1.7100   -0.7820 ca        1 4V9     -0.089500
     11 F          -8.4660   -2.0730    0.5420 f         1 4V9     -0.136900
     12 C7         -2.8340    0.0730   -2.1830 cd        1 4V9     -0.234600
     13 C6         -2.1220    0.0510   -0.8870 c3        1 4V9      0.272100
     14 N4         -4.2530    0.0410   -3.9130 na        1 4V9     -0.017600
     15 N3         -3.1070    0.4620   -4.4410 nc        1 4V9     -0.495800
     16 C8         -2.2080    0.5070   -3.4190 cd        1 4V9      0.306600
     17 C9         -0.7850    0.9000   -3.4570 c3        1 4V9     -0.102700
     18 C10        -0.2950    1.2120   -2.0350 c3        1 4V9      0.188800
     19 N1         -0.6760    0.1920   -1.0640 nh        1 4V9     -0.737300
     20 C5          1.5200   -0.0160    0.0020 ca        1 4V9     -0.264300
     21 C4          2.2950   -0.1140    1.1530 ca        1 4V9     -0.075000
     22 N2         -0.4870    0.2640    1.3570 nb        1 4V9     -0.716000
     23 H1         -0.2400    0.2280    3.4090 h4        1 4V9      0.020100
     24 H2          2.2670   -0.1010    3.3310 ha        1 4V9      0.144000
     25 H3         -6.7250    0.6310   -2.6630 ha        1 4V9      0.145000
     26 H4         -8.6390   -0.1970   -1.3010 ha        1 4V9      0.153000
     27 H5         -5.9900   -2.9590    0.7400 ha        1 4V9      0.153000
     28 H6         -4.0770   -2.1390   -0.6390 ha        1 4V9      0.145000
     29 H7         -2.5480    0.8730   -0.2350 h1        1 4V9      0.060200
     30 H8         -2.2990   -0.9310   -0.3620 h1        1 4V9      0.060200
     31 H9         -5.0490   -0.1120   -4.4870 hn        1 4V9      0.322700
     32 H10        -0.1800    0.0620   -3.8970 hc        1 4V9      0.066200
     33 H11        -0.6280    1.8110   -4.0930 hc        1 4V9      0.066200
     34 H12         0.8270    1.2940   -2.0640 h1        1 4V9      0.043700
     35 H13        -0.7060    2.2200   -1.7320 h1        1 4V9      0.043700
     36 H14         1.9880   -0.1090   -0.9880 ha        1 4V9      0.147000
     37 H15         3.3820   -0.2650    1.0710 ha        1 4V9      0.137000
@<TRIPOS>BOND
     1    1   19 1   
     2    1   20 ar  
     3    1   22 ar  
     4    2    3 ar  
     5    2   22 ar  
     6    2   23 1   
     7    3   21 ar  
     8    3   24 1   
     9    4    5 1   
    10    4   12 2   
    11    4   14 1   
    12    5    6 ar  
    13    5   10 ar  
    14    6    7 ar  
    15    6   25 1   
    16    7    8 ar  
    17    7   26 1   
    18    8    9 ar  
    19    8   11 1   
    20    9   10 ar  
    21    9   27 1   
    22   10   28 1   
    23   12   13 1   
    24   12   16 1   
    25   13   19 1   
    26   13   29 1   
    27   13   30 1   
    28   14   15 1   
    29   14   31 1   
    30   15   16 2   
    31   16   17 1   
    32   17   18 1   
    33   17   32 1   
    34   17   33 1   
    35   18   19 1   
    36   18   34 1   
    37   18   35 1   
    38   20   21 ar  
    39   20   36 1   
    40   21   37 1   
@<TRIPOS>SUBSTRUCTURE
     1 4V9         1 TEMP              0 ****  ****    0 ROOT
