@<TRIPOS>MOLECULE
4V9
   37    40     1     0     0
SMALL
bcc


@<TRIPOS>ATOM
      1 C1          0.1100    0.1780    0.1240 ca        1 4V9      0.621200
      2 C2          0.2950    0.1550    2.4420 ca        1 4V9      0.423200
      3 C3          1.6880   -0.0260    2.4020 ca        1 4V9     -0.277300
      4 C11        -4.1620   -0.2300   -2.5310 cc        1 4V9     -0.047300
      5 C12        -5.2790   -0.7070   -1.7400 ca        1 4V9     -0.038000
      6 C13        -6.5620   -0.1700   -1.9210 ca        1 4V9     -0.089500
      7 C14        -7.6330   -0.6240   -1.1610 ca        1 4V9     -0.165000
      8 C15        -7.4250   -1.6320   -0.2010 ca        1 4V9      0.132900
      9 C16        -6.1410   -2.1760   -0.0130 ca        1 4V9     -0.165000
     10 C17        -5.0800   -1.7120   -0.7820 ca        1 4V9     -0.089500
     11 F          -8.4640   -2.0790    0.5440 f         1 4V9     -0.136900
     12 C7         -2.8350    0.0740   -2.1820 cd        1 4V9     -0.234600
     13 C6         -2.1230    0.0520   -0.8870 c3        1 4V9      0.272100
     14 N4         -4.2550    0.0420   -3.9120 na        1 4V9     -0.017600
     15 N3         -3.1100    0.4650   -4.4400 nc        1 4V9     -0.495800
     16 C8         -2.2100    0.5090   -3.4190 cd        1 4V9      0.306600
     17 C9         -0.7870    0.9040   -3.4570 c3        1 4V9     -0.102700
     18 C10        -0.2970    1.2150   -2.0350 c3        1 4V9      0.188800
     19 N1         -0.6770    0.1940   -1.0650 nh        1 4V9     -0.737300
     20 C5          1.5200   -0.0130   -0.0000 ca        1 4V9     -0.264300
     21 C4          2.2960   -0.1120    1.1500 ca        1 4V9     -0.075000
     22 N2         -0.4860    0.2630    1.3570 nb        1 4V9     -0.716000
     23 H1         -0.2380    0.2260    3.4080 h4        1 4V9      0.020100
     24 H2          2.2690   -0.1010    3.3290 ha        1 4V9      0.144000
     25 H3         -6.7270    0.6280   -2.6600 ha        1 4V9      0.145000
     26 H4         -8.6390   -0.2020   -1.2980 ha        1 4V9      0.153000
     27 H5         -5.9870   -2.9630    0.7400 ha        1 4V9      0.153000
     28 H6         -4.0750   -2.1400   -0.6400 ha        1 4V9      0.145000
     29 H7         -2.2980   -0.9320   -0.3630 h1        1 4V9      0.060200
     30 H8         -2.5490    0.8720   -0.2340 h1        1 4V9      0.060200
     31 H9         -5.0510   -0.1110   -4.4860 hn        1 4V9      0.322700
     32 H10        -0.1820    0.0670   -3.8980 hc        1 4V9      0.066200
     33 H11        -0.6320    1.8150   -4.0920 hc        1 4V9      0.066200
     34 H12         0.8250    1.2980   -2.0640 h1        1 4V9      0.043700
     35 H13        -0.7090    2.2220   -1.7310 h1        1 4V9      0.043700
     36 H14         1.9880   -0.1050   -0.9900 ha        1 4V9      0.147000
     37 H15         3.3830   -0.2610    1.0680 ha        1 4V9      0.137000
@<TRIPOS>BOND
     1    1   19 1   
     2    1   20 ar  
     3    1   22 ar  
     4    2    3 ar  
     5    2   22 ar  
     6    2   23 1   
     7    3   21 ar  
     8    3   24 1   
     9    4    5 1   
    10    4   12 2   
    11    4   14 1   
    12    5    6 ar  
    13    5   10 ar  
    14    6    7 ar  
    15    6   25 1   
    16    7    8 ar  
    17    7   26 1   
    18    8    9 ar  
    19    8   11 1   
    20    9   10 ar  
    21    9   27 1   
    22   10   28 1   
    23   12   13 1   
    24   12   16 1   
    25   13   19 1   
    26   13   29 1   
    27   13   30 1   
    28   14   15 1   
    29   14   31 1   
    30   15   16 2   
    31   16   17 1   
    32   17   18 1   
    33   17   32 1   
    34   17   33 1   
    35   18   19 1   
    36   18   34 1   
    37   18   35 1   
    38   20   21 ar  
    39   20   36 1   
    40   21   37 1   
@<TRIPOS>SUBSTRUCTURE
     1 4V9         1 TEMP              0 ****  ****    0 ROOT
