@<TRIPOS>MOLECULE
4VA
   49    50     1     0     0
SMALL
bcc


@<TRIPOS>ATOM
      1 F           1.3530   -0.5200   -0.2660 f         1 4VA     -0.162900
      2 Cl          2.9560    2.1310    3.7570 cl        1 4VA      0.037600
      3 C1          3.2440    1.6870   -4.4890 c3        1 4VA     -0.122100
      4 C2          3.4870    1.9800   -3.0310 c3        1 4VA     -0.111400
      5 C3          3.0060    0.8480   -2.1180 c3        1 4VA      0.201800
      6 N5          3.9040   -0.3880   -2.2730 ny        1 4VA     -0.792000
      7 C8          3.1550   -1.6960   -2.3130 c3        1 4VA      0.130500
      8 C10         3.2140   -2.3210   -3.7080 c3        1 4VA     -0.141100
      9 C11         3.6570   -2.7470   -1.3070 c3        1 4VA     -0.187400
     10 C12         3.8300   -2.2350    0.0960 c         1 4VA      0.535100
     11 O13         4.7440   -1.5110    0.4680 o         1 4VA     -0.401100
     12 N14         2.8370   -2.6320    1.1450 nz        1 4VA     -0.750400
     13 C15         2.9530    1.2340   -0.6720 ca        1 4VA     -0.191300
     14 C16         3.6690    2.3120   -0.1430 ca        1 4VA     -0.061000
     15 C17         3.6240    2.6050    1.2190 ca        1 4VA     -0.097000
     16 C18         2.9160    1.7900    2.1150 ca        1 4VA      0.058400
     17 C20         2.1980    0.6930    1.6030 ca        1 4VA      0.076100
     18 O21         1.6450   -0.3200    2.3700 os        1 4VA     -0.328200
     19 C22         0.5510    0.0320    3.1890 ca        1 4VA      0.038100
     20 C23         0.6550   -0.2760    4.5490 ca        1 4VA     -0.133500
     21 C24        -0.4590   -0.0600    5.3610 ca        1 4VA     -0.099000
     22 C25        -1.6350    0.4660    4.8210 ca        1 4VA     -0.097000
     23 C26        -1.7120    0.7790    3.4620 ca        1 4VA     -0.099000
     24 C27        -0.6140    0.5630    2.6290 ca        1 4VA     -0.133500
     25 C28         2.1510    0.4760    0.2080 ca        1 4VA      0.061900
     26 H3          1.9680    0.5440   -2.4640 hx        1 4VA      0.122700
     27 HN5         4.5920   -0.3900   -1.5110 hn        1 4VA      0.460800
     28 HN5A        4.4210   -0.2850   -3.1600 hn        1 4VA      0.460800
     29 H8          2.0680   -1.4710   -2.0750 hx        1 4VA      0.129700
     30 H1          3.5080    2.5910   -5.0970 hc        1 4VA      0.063367
     31 H1A         2.1680    1.4520   -4.6810 hc        1 4VA      0.063367
     32 H1B         3.8680    0.8390   -4.8600 hc        1 4VA      0.063367
     33 H10         4.2560   -2.6160   -3.9870 hc        1 4VA      0.095700
     34 H10A        2.8150   -1.6140   -4.4790 hc        1 4VA      0.095700
     35 H10B        2.5710   -3.2390   -3.7230 hc        1 4VA      0.095700
     36 H11         2.9380   -3.6120   -1.3570 hc        1 4VA      0.140700
     37 H11A        4.6670   -3.1420   -1.6300 hc        1 4VA      0.140700
     38 HN14        2.6740   -3.6440    1.1360 hn        1 4VA      0.494800
     39 HN1A        3.1750   -2.3460    2.0810 hn        1 4VA      0.494800
     40 H16         4.2780    2.9560   -0.8020 ha        1 4VA      0.175000
     41 H17         4.1740    3.4860    1.6030 ha        1 4VA      0.198000
     42 H23         1.5890   -0.6770    4.9660 ha        1 4VA      0.144500
     43 H24        -0.4040   -0.2990    6.4360 ha        1 4VA      0.164000
     44 H25        -2.5070    0.6410    5.4730 ha        1 4VA      0.168000
     45 H26        -2.6410    1.1990    3.0440 ha        1 4VA      0.164000
     46 H27        -0.6600    0.8110    1.5590 ha        1 4VA      0.144500
     47 H2          4.5720    2.2070   -2.8570 hc        1 4VA      0.096200
     48 H143        1.9380   -2.1350    0.9890 hn        1 4VA      0.494800
     49 H2A         2.9020    2.8970   -2.7380 hc        1 4VA      0.096200
@<TRIPOS>BOND
     1    1   25 1   
     2    2   16 1   
     3    3    4 1   
     4    3   30 1   
     5    3   31 1   
     6    3   32 1   
     7    4    5 1   
     8    4   47 1   
     9    4   49 1   
    10    5    6 1   
    11    5   13 1   
    12    5   26 1   
    13    6    7 1   
    14    6   27 1   
    15    6   28 1   
    16    7    8 1   
    17    7    9 1   
    18    7   29 1   
    19    8   33 1   
    20    8   34 1   
    21    8   35 1   
    22    9   10 1   
    23    9   36 1   
    24    9   37 1   
    25   10   11 2   
    26   10   12 1   
    27   12   38 1   
    28   12   39 1   
    29   12   48 1   
    30   13   14 ar  
    31   13   25 ar  
    32   14   15 ar  
    33   14   40 1   
    34   15   16 ar  
    35   15   41 1   
    36   16   17 ar  
    37   17   18 1   
    38   17   25 ar  
    39   18   19 1   
    40   19   20 ar  
    41   19   24 ar  
    42   20   21 ar  
    43   20   42 1   
    44   21   22 ar  
    45   21   43 1   
    46   22   23 ar  
    47   22   44 1   
    48   23   24 ar  
    49   23   45 1   
    50   24   46 1   
@<TRIPOS>SUBSTRUCTURE
     1 4VA         1 TEMP              0 ****  ****    0 ROOT
