@<TRIPOS>MOLECULE
4VA
   48    45     1     0     0
SMALL
bcc


@<TRIPOS>ATOM
      1 F           1.3020    1.8210    1.0410 f         1 4VA     -0.103000
      2 CL         -0.7660    0.1450    4.8420 cl        1 4VA      0.076000
      3 C1          3.8430   -0.8580   -0.8910 c3        1 4VA     -0.221000
      4 C2          2.6890   -1.7690   -0.5380 c3        1 4VA     -0.165000
      5 C3          1.3890   -1.0080   -0.6660 c3        1 4VA     -0.017000
      6 N5          0.4520   -1.7910   -1.3970 n4        1 4VA     -0.045000
      7 C8          0.5100   -1.4380   -2.7750 c3        1 4VA     -0.064000
      8 C10         0.5960   -2.6920   -3.6130 c3        1 4VA     -0.255000
      9 C11        -0.7320   -0.6640   -3.1500 c3        1 4VA     -0.217000
     10 C12        -0.5870   -0.1290   -4.5580 c2        1 4VA      0.300000
     11 O13         0.5050   -0.1020   -5.0870 o         1 4VA     -0.398000
     12 N14        -1.7240    0.3610   -5.2510 n         1 4VA     -0.398000
     13 C15         0.8380   -0.7180    0.7100 c2        1 4VA     -0.186000
     14 C16         0.3840   -1.7560    1.5080 c2        1 4VA     -0.077000
     15 C17        -0.1000   -1.4930    2.7790 c1        1 4VA     -0.119000
     16 C18        -0.1310   -0.1900    3.2530 c1        1 4VA     -0.040000
     17 C20         0.3230    0.8480    2.4550 c1        1 4VA      0.050000
     18 O21         0.3650    2.1560    2.9640 o         1 4VA     -0.140000
     19 C22        -0.9340    2.5660    3.3110 c2        1 4VA      0.037000
     20 C23        -1.2760    2.7210    4.6450 c2        1 4VA     -0.123000
     21 C24        -2.5220    3.2210    4.9870 c1        1 4VA     -0.101000
     22 C25        -3.4260    3.5670    3.9940 c1        1 4VA     -0.116000
     23 C26        -3.0840    3.4120    2.6610 c1        1 4VA     -0.116000
     24 C27        -1.8380    2.9120    2.3190 c1        1 4VA     -0.173000
     25 C28         0.8080    0.5840    1.1840 c2        1 4VA      0.078000
     26 H3          1.5490   -0.1670   -1.1370 hx        1 4VA      0.185000
     27 HN5        -0.3940   -1.6330   -1.0770 hn        1 4VA      0.239000
     28 HN5A        0.6540   -2.6800   -1.3000 hn        1 4VA      0.239000
     29 H8          1.2990   -0.8840   -2.9360 hx        1 4VA      0.179000
     30 H1          4.1440   -1.0510   -1.8040 hc        1 4VA      0.102333
     31 H1A         4.5810   -1.0090   -0.2650 hc        1 4VA      0.102333
     32 H1B         3.5510    0.0760   -0.8340 hc        1 4VA      0.102333
     33 H2          2.7930   -2.0850    0.3820 hc        1 4VA      0.100000
     34 H2A         2.6800   -2.5340   -1.1470 hc        1 4VA      0.100000
     35 H10         0.9490   -3.4260   -3.0680 hc        1 4VA      0.116000
     36 H10A        1.1920   -2.5360   -4.3760 hc        1 4VA      0.116000
     37 H10B       -0.2980   -2.9280   -3.9400 hc        1 4VA      0.116000
     38 H11        -0.8530    0.0810   -2.5280 hc        1 4VA      0.139500
     39 H11A       -1.5100   -1.2560   -3.1050 hc        1 4VA      0.139500
     40 HN14       -1.7610    0.3080   -6.1630 hn        1 4VA      0.247000
     41 HN1A       -2.4180    0.7330   -4.7870 hn        1 4VA      0.247000
     42 H16         0.4060   -2.6730    1.1740 ha        1 4VA      0.160000
     43 H17        -0.4200   -2.2240    3.3410 ha        1 4VA      0.176000
     44 H23        -0.6400    2.4770    5.3440 ha        1 4VA      0.159000
     45 H24        -2.7630    3.3300    5.9260 ha        1 4VA      0.150000
     46 H25        -4.3050    3.9190    4.2350 ha        1 4VA      0.145000
     47 H26        -3.7210    3.6560    1.9620 ha        1 4VA      0.145000
     48 H27        -1.5970    2.8030    1.3790 ha        1 4VA      0.127000
@<TRIPOS>BOND
     1    1   25 1   
     2    2   16 1   
     3    3    4 1   
     4    3   30 1   
     5    3   31 1   
     6    3   32 1   
     7    4    5 1   
     8    4   33 1   
     9    4   34 1   
    10    5    6 1   
    11    5   13 1   
    12    5   26 1   
    13    6    7 1   
    14    6   27 1   
    15    6   28 1   
    16    7    8 1   
    17    7    9 1   
    18    7   29 1   
    19    8   35 1   
    20    8   36 1   
    21    8   37 1   
    22    9   10 1   
    23    9   38 1   
    24    9   39 1   
    25   10   11 1   
    26   10   12 1   
    27   12   40 1   
    28   12   41 1   
    29   13   14 1   
    30   13   25 1   
    31   14   15 1   
    32   14   42 1   
    33   15   43 1   
    34   16   17 1   
    35   17   25 1   
    36   18   19 1   
    37   19   20 1   
    38   19   24 1   
    39   20   21 1   
    40   20   44 1   
    41   21   45 1   
    42   22   23 1   
    43   22   46 1   
    44   23   47 1   
    45   24   48 1   
@<TRIPOS>SUBSTRUCTURE
     1 4VA         1 TEMP              0 ****  ****    0 ROOT
