@<TRIPOS>MOLECULE
4VA
   49    50     1     0     0
SMALL
bcc


@<TRIPOS>ATOM
      1 F           1.3560   -0.5260   -0.2690 f         1 4VA     -0.162900
      2 CL          2.9150    2.1930    3.7250 cl        1 4VA      0.037600
      3 C1          3.2790    1.6180   -4.5100 c3        1 4VA     -0.122100
      4 C2          3.5090    1.9340   -3.0550 c3        1 4VA     -0.111400
      5 C3          3.0220    0.8150   -2.1280 c3        1 4VA      0.201800
      6 N5          3.9240   -0.4210   -2.2550 n4        1 4VA     -0.792000
      7 C8          3.1790   -1.7310   -2.2810 c3        1 4VA      0.130500
      8 C10         3.2520   -2.3780   -3.6640 c3        1 4VA     -0.141100
      9 C11         3.6740   -2.7640   -1.2540 c3        1 4VA     -0.187400
     10 C12         3.8330   -2.2290    0.1430 c         1 4VA      0.535100
     11 O13         4.7420   -1.4970    0.5120 o         1 4VA     -0.401100
     12 N14         2.8310   -2.6110    1.1890 n4        1 4VA     -0.750400
     13 C15         2.9550    1.2250   -0.6880 ca        1 4VA     -0.191300
     14 C16         3.6640    2.3130   -0.1700 ca        1 4VA     -0.061000
     15 C17         3.6060    2.6280    1.1860 ca        1 4VA     -0.097000
     16 C18         2.8910    1.8250    2.0880 ca        1 4VA      0.058400
     17 C20         2.1800    0.7180    1.5880 ca        1 4VA      0.076100
     18 O21         1.6220   -0.2840    2.3660 os        1 4VA     -0.328200
     19 C22         0.5210    0.0790    3.1690 ca        1 4VA      0.038100
     20 C23         0.6130   -0.2080    4.5350 ca        1 4VA     -0.133500
     21 C24        -0.5080    0.0190    5.3340 ca        1 4VA     -0.099000
     22 C25        -1.6800    0.5350    4.7760 ca        1 4VA     -0.097000
     23 C26        -1.7450    0.8270    3.4120 ca        1 4VA     -0.099000
     24 C27        -0.6400    0.6010    2.5910 ca        1 4VA     -0.133500
     25 C28         2.1460    0.4790    0.1960 ca        1 4VA      0.061900
     26 H3          1.9880    0.5040   -2.4790 hx        1 4VA      0.122700
     27 HN5         4.6060   -0.4090   -1.4860 hn        1 4VA      0.460800
     28 HN5A        4.4500   -0.3300   -3.1380 hn        1 4VA      0.460800
     29 H8          2.0890   -1.5040   -2.0560 hx        1 4VA      0.129700
     30 H1          3.9070    0.7640   -4.8620 hc        1 4VA      0.063367
     31 H1A         3.5480    2.5120   -5.1290 hc        1 4VA      0.063367
     32 H1B         2.2050    1.3780   -4.7070 hc        1 4VA      0.063367
     33 H10         2.8600   -1.6840   -4.4500 hc        1 4VA      0.095700
     34 H10A        2.6120   -3.2970   -3.6710 hc        1 4VA      0.095700
     35 H10B        4.2970   -2.6740   -3.9290 hc        1 4VA      0.095700
     36 H11         2.9570   -3.6320   -1.2960 hc        1 4VA      0.140700
     37 H11A        4.6880   -3.1620   -1.5600 hc        1 4VA      0.140700
     38 HN14        1.9320   -2.1200    1.0160 hn        1 4VA      0.494800
     39 HN1A        2.6700   -3.6240    1.1950 hn        1 4VA      0.494800
     40 H16         4.2770    2.9470   -0.8340 ha        1 4VA      0.175000
     41 H17         4.1500    3.5160    1.5610 ha        1 4VA      0.198000
     42 H23         1.5440   -0.6010    4.9660 ha        1 4VA      0.144500
     43 H24        -0.4620   -0.2040    6.4120 ha        1 4VA      0.164000
     44 H25        -2.5580    0.7190    5.4180 ha        1 4VA      0.168000
     45 H26        -2.6710    1.2400    2.9800 ha        1 4VA      0.164000
     46 H27        -0.6770    0.8320    1.5180 ha        1 4VA      0.144500
     47 H2          4.5920    2.1670   -2.8740 hc        1 4VA      0.096200
     48 H143        3.1590   -2.3100    2.1230 hn        1 4VA      0.494800
     49 H2A         2.9200    2.8550   -2.7810 hc        1 4VA      0.096200
@<TRIPOS>BOND
     1    1   25 1   
     2    2   16 1   
     3    3    4 1   
     4    3   30 1   
     5    3   31 1   
     6    3   32 1   
     7    4    5 1   
     8    4   47 1   
     9    4   49 1   
    10    5    6 1   
    11    5   13 1   
    12    5   26 1   
    13    6    7 1   
    14    6   27 1   
    15    6   28 1   
    16    7    8 1   
    17    7    9 1   
    18    7   29 1   
    19    8   33 1   
    20    8   34 1   
    21    8   35 1   
    22    9   10 1   
    23    9   36 1   
    24    9   37 1   
    25   10   11 2   
    26   10   12 1   
    27   12   38 1   
    28   12   39 1   
    29   12   48 1   
    30   13   14 ar  
    31   13   25 ar  
    32   14   15 ar  
    33   14   40 1   
    34   15   16 ar  
    35   15   41 1   
    36   16   17 ar  
    37   17   18 1   
    38   17   25 ar  
    39   18   19 1   
    40   19   20 ar  
    41   19   24 ar  
    42   20   21 ar  
    43   20   42 1   
    44   21   22 ar  
    45   21   43 1   
    46   22   23 ar  
    47   22   44 1   
    48   23   24 ar  
    49   23   45 1   
    50   24   46 1   
@<TRIPOS>SUBSTRUCTURE
     1 4VA         1 TEMP              0 ****  ****    0 ROOT
