@<TRIPOS>MOLECULE
4VA
   49    50     1     0     0
SMALL
bcc


@<TRIPOS>ATOM
      1 F           1.3410   -0.4850   -0.2840 f         1 4VA     -0.162900
      2 CL          2.9830    2.0500    3.7970 cl        1 4VA      0.037600
      3 C1          3.3440    1.7280   -4.4520 c3        1 4VA     -0.122100
      4 C2          3.5820    1.9900   -2.9870 c3        1 4VA     -0.111400
      5 C3          3.0560    0.8590   -2.0970 c3        1 4VA      0.201800
      6 N5          3.9160   -0.4020   -2.2630 n4        1 4VA     -0.792000
      7 C8          3.1270   -1.6850   -2.3320 c3        1 4VA      0.130500
      8 C10         3.1810   -2.2890   -3.7360 c3        1 4VA     -0.141100
      9 C11         3.5850   -2.7670   -1.3380 c3        1 4VA     -0.187400
     10 C12         3.7590   -2.2830    0.0750 c         1 4VA      0.535100
     11 O13         4.6920   -1.5940    0.4680 o         1 4VA     -0.401100
     12 N14         2.7440   -2.6650    1.1070 n4        1 4VA     -0.750400
     13 C15         2.9990    1.2240   -0.6450 ca        1 4VA     -0.191300
     14 C16         3.7430    2.2700   -0.0920 ca        1 4VA     -0.061000
     15 C17         3.6930    2.5430    1.2740 ca        1 4VA     -0.097000
     16 C18         2.9500    1.7360    2.1490 ca        1 4VA      0.058400
     17 C20         2.2030    0.6700    1.6130 ca        1 4VA      0.076100
     18 O21         1.6110   -0.3370    2.3570 os        1 4VA     -0.328200
     19 C22         0.5200    0.0370    3.1710 ca        1 4VA      0.038100
     20 C23         0.6000   -0.2960    4.5270 ca        1 4VA     -0.133500
     21 C24        -0.5160   -0.0580    5.3310 ca        1 4VA     -0.099000
     22 C25        -1.6680    0.5140    4.7880 ca        1 4VA     -0.097000
     23 C26        -1.7210    0.8500    3.4330 ca        1 4VA     -0.099000
     24 C27        -0.6220    0.6130    2.6070 ca        1 4VA     -0.133500
     25 C28         2.1640    0.4770    0.2140 ca        1 4VA      0.061900
     26 H3          2.0130    0.5940   -2.4590 hx        1 4VA      0.122700
     27 HN5         4.4460   -0.3010   -3.1430 hn        1 4VA      0.460800
     28 HN5A        4.5960   -0.4380   -1.4940 hn        1 4VA      0.460800
     29 H8          2.0450   -1.4290   -2.1010 hx        1 4VA      0.129700
     30 H1          2.2640    1.5310   -4.6580 hc        1 4VA      0.063367
     31 H1A         3.9450    0.8660   -4.8300 hc        1 4VA      0.063367
     32 H1B         3.6440    2.6330   -5.0420 hc        1 4VA      0.063367
     33 H10         4.2160   -2.6120   -4.0090 hc        1 4VA      0.095700
     34 H10A        2.5100   -3.1860   -3.7730 hc        1 4VA      0.095700
     35 H10B        2.8130   -1.5570   -4.4990 hc        1 4VA      0.095700
     36 H11         4.5860   -3.1880   -1.6570 hc        1 4VA      0.140700
     37 H11A        2.8400   -3.6080   -1.4090 hc        1 4VA      0.140700
     38 HN14        1.8620   -2.1380    0.9500 hn        1 4VA      0.494800
     39 HN1A        3.0810   -2.4050    2.0510 hn        1 4VA      0.494800
     40 H16         4.3790    2.9050   -0.7340 ha        1 4VA      0.175000
     41 H17         4.2660    3.4000    1.6780 ha        1 4VA      0.198000
     42 H23         1.5160   -0.7320    4.9470 ha        1 4VA      0.144500
     43 H24        -0.4790   -0.3150    6.4020 ha        1 4VA      0.164000
     44 H25        -2.5410    0.7050    5.4340 ha        1 4VA      0.168000
     45 H26        -2.6320    1.3060    3.0130 ha        1 4VA      0.164000
     46 H27        -0.6490    0.8790    1.5420 ha        1 4VA      0.144500
     47 H2          3.0220    2.9200   -2.6840 hc        1 4VA      0.096200
     48 H143        2.5490   -3.6710    1.0810 hn        1 4VA      0.494800
     49 H2A         4.6720    2.1800   -2.7970 hc        1 4VA      0.096200
@<TRIPOS>BOND
     1    1   25 1   
     2    2   16 1   
     3    3    4 1   
     4    3   30 1   
     5    3   31 1   
     6    3   32 1   
     7    4    5 1   
     8    4   47 1   
     9    4   49 1   
    10    5    6 1   
    11    5   13 1   
    12    5   26 1   
    13    6    7 1   
    14    6   27 1   
    15    6   28 1   
    16    7    8 1   
    17    7    9 1   
    18    7   29 1   
    19    8   33 1   
    20    8   34 1   
    21    8   35 1   
    22    9   10 1   
    23    9   36 1   
    24    9   37 1   
    25   10   11 2   
    26   10   12 1   
    27   12   38 1   
    28   12   39 1   
    29   12   48 1   
    30   13   14 ar  
    31   13   25 ar  
    32   14   15 ar  
    33   14   40 1   
    34   15   16 ar  
    35   15   41 1   
    36   16   17 ar  
    37   17   18 1   
    38   17   25 ar  
    39   18   19 1   
    40   19   20 ar  
    41   19   24 ar  
    42   20   21 ar  
    43   20   42 1   
    44   21   22 ar  
    45   21   43 1   
    46   22   23 ar  
    47   22   44 1   
    48   23   24 ar  
    49   23   45 1   
    50   24   46 1   
@<TRIPOS>SUBSTRUCTURE
     1 4VA         1 TEMP              0 ****  ****    0 ROOT
