@<TRIPOS>MOLECULE
4VA
   48    49     1     0     0
SMALL
bcc


@<TRIPOS>ATOM
      1 F          -0.2330    1.6310   -1.0900 f         1 4VA     -0.116900
      2 CL         -2.3160   -2.3800    1.2570 cl        1 4VA     -0.005400
      3 C1          3.0220    3.7720    1.9110 c3        1 4VA     -0.119100
      4 C2          2.1190    2.5750    2.0390 c3        1 4VA     -0.105400
      5 C3          1.9530    1.8110    0.7180 c3        1 4VA      0.191800
      6 N5          3.2690    1.2090    0.2820 n4        1 4VA     -0.778000
      7 C8          3.2360    0.5980   -1.0930 c3        1 4VA      0.143500
      8 C10         3.0460    1.6460   -2.1840 c3        1 4VA     -0.134100
      9 C11         4.5120   -0.2020   -1.3880 c3        1 4VA     -0.187400
     10 C12         4.7010   -1.3840   -0.4510 c         1 4VA      0.659100
     11 O13         4.3840   -1.2910    0.7620 o         1 4VA     -0.664100
     12 N14         5.2430   -2.5310   -0.9350 n         1 4VA     -0.626000
     13 C15         0.8950    0.7550    0.8360 ca        1 4VA     -0.202300
     14 C16         0.9330   -0.1940    1.8620 ca        1 4VA     -0.086000
     15 C17        -0.0670   -1.1500    1.9880 ca        1 4VA     -0.119000
     16 C18        -1.1360   -1.1890    1.0810 ca        1 4VA      0.041400
     17 C20        -1.1980   -0.2430    0.0440 ca        1 4VA      0.083100
     18 O21        -2.1230   -0.2840   -0.9840 os        1 4VA     -0.236200
     19 C22        -3.4630   -0.0750   -0.6240 ca        1 4VA      0.082100
     20 C23        -4.4050   -0.7470   -1.4160 ca        1 4VA     -0.147000
     21 C24        -5.7580   -0.5050   -1.1860 ca        1 4VA     -0.102000
     22 C25        -6.1590    0.3790   -0.1830 ca        1 4VA     -0.131000
     23 C26        -5.2070    1.0350    0.5980 ca        1 4VA     -0.102000
     24 C27        -3.8470    0.8160    0.3820 ca        1 4VA     -0.147000
     25 C28        -0.1780    0.7340   -0.0800 ca        1 4VA      0.145900
     26 H3          1.6600    2.5560   -0.0870 hx        1 4VA      0.113700
     27 HN5         3.9820    1.9430    0.3090 hn        1 4VA      0.463300
     28 HN5A        3.5270    0.4670    0.9620 hn        1 4VA      0.463300
     29 H8          2.3490   -0.1080   -1.0950 hx        1 4VA      0.120700
     30 H1          4.0970    3.4770    1.8260 hc        1 4VA      0.054700
     31 H1A         2.7490    4.3940    1.0240 hc        1 4VA      0.054700
     32 H1B         2.9230    4.4130    2.8240 hc        1 4VA      0.054700
     33 H2A         1.0880    2.9110    2.3390 hc        1 4VA      0.086200
     34 H10         3.8470    2.4240   -2.1540 hc        1 4VA      0.077367
     35 H10A        3.0870    1.1380   -3.1800 hc        1 4VA      0.077367
     36 H10B        2.0460    2.1390   -2.1000 hc        1 4VA      0.077367
     37 H11         4.4410   -0.5410   -2.4580 hc        1 4VA      0.100700
     38 H11A        5.4220    0.4510   -1.3040 hc        1 4VA      0.100700
     39 HN14        5.5130   -2.6210   -1.8820 hn        1 4VA      0.336500
     40 HN1A        5.3980   -3.2960   -0.3180 hn        1 4VA      0.336500
     41 H16         1.7660   -0.1920    2.5850 ha        1 4VA      0.152000
     42 H17        -0.0180   -1.8910    2.8050 ha        1 4VA      0.176000
     43 H23        -4.0720   -1.4370   -2.2040 ha        1 4VA      0.145000
     44 H24        -6.5120   -1.0190   -1.8010 ha        1 4VA      0.146000
     45 H25        -7.2300    0.5580   -0.0070 ha        1 4VA      0.147000
     46 H26        -5.5270    1.7320    1.3880 ha        1 4VA      0.146000
     47 H27        -3.0910    1.3320    0.9900 ha        1 4VA      0.145000
     48 H2          2.4900    1.8910    2.8480 hc        1 4VA      0.086200
@<TRIPOS>BOND
     1    1   25 1   
     2    2   16 1   
     3    3    4 1   
     4    3   30 1   
     5    3   31 1   
     6    3   32 1   
     7    4    5 1   
     8    4   33 1   
     9    4   48 1   
    10    5    6 1   
    11    5   13 1   
    12    5   26 1   
    13    6    7 1   
    14    6   27 1   
    15    6   28 1   
    16    7    8 1   
    17    7    9 1   
    18    7   29 1   
    19    8   34 1   
    20    8   35 1   
    21    8   36 1   
    22    9   10 1   
    23    9   37 1   
    24    9   38 1   
    25   10   11 2   
    26   10   12 1   
    27   12   39 1   
    28   12   40 1   
    29   13   14 ar  
    30   13   25 ar  
    31   14   15 ar  
    32   14   41 1   
    33   15   16 ar  
    34   15   42 1   
    35   16   17 ar  
    36   17   18 1   
    37   17   25 ar  
    38   18   19 1   
    39   19   20 ar  
    40   19   24 ar  
    41   20   21 ar  
    42   20   43 1   
    43   21   22 ar  
    44   21   44 1   
    45   22   23 ar  
    46   22   45 1   
    47   23   24 ar  
    48   23   46 1   
    49   24   47 1   
@<TRIPOS>SUBSTRUCTURE
     1 4VA         1 TEMP              0 ****  ****    0 ROOT
