@<TRIPOS>MOLECULE
4VB
   37    40     1     0     0
SMALL
bcc


@<TRIPOS>ATOM
      1 C2          0.1340    0.0670   -0.1480 cc        1 4VB     -0.049300
      2 C3          1.5280   -0.0910   -0.2000 cd        1 4VB     -0.258600
      3 C11        -0.6400    0.7730   -2.3940 ca        1 4VB     -0.234800
      4 C12        -1.6410    0.7540   -3.3810 ca        1 4VB      0.397700
      5 C14        -3.0260   -0.5430   -2.0820 ca        1 4VB      0.397700
      6 C15        -2.0910   -0.5880   -1.0330 ca        1 4VB     -0.234800
      7 C16         4.5020    1.0220   -1.3730 cc        1 4VB      0.234000
      8 C17         5.3770    1.7710   -0.4920 cc        1 4VB     -0.280000
      9 C18         6.0510    2.8640   -0.9690 cd        1 4VB      0.028600
     10 C20         5.0880    2.6260   -3.1730 c         1 4VB      0.697700
     11 C21         4.3780    1.4600   -2.6770 cd        1 4VB     -0.327200
     12 N1         -0.1770    0.2030    1.2200 na        1 4VB     -0.011600
     13 C4          1.9670   -0.0230    1.1840 cd        1 4VB      0.303600
     14 N5          0.8960    0.1660    2.0040 nc        1 4VB     -0.488800
     15 C6          2.4650   -0.3330   -1.3190 c3        1 4VB      0.271100
     16 N7          3.8690   -0.1640   -0.9490 nh        1 4VB     -0.634400
     17 C8          4.1860   -0.7020    0.3600 c3        1 4VB      0.186800
     18 C9          3.3950   -0.1350    1.5500 c3        1 4VB     -0.133700
     19 C10        -0.8690    0.0840   -1.1940 ca        1 4VB      0.014000
     20 N13        -2.8170    0.1120   -3.2400 nb        1 4VB     -0.656000
     21 N19         5.9290    3.3000   -2.2610 ns        1 4VB     -0.446100
     22 O22         5.0120    3.0740   -4.3350 o         1 4VB     -0.652500
     23 H2         -1.4940    1.2840   -4.3400 h4        1 4VB      0.028100
     24 H3         -3.9970   -1.0620   -1.9920 h4        1 4VB      0.028100
     25 H4         -2.3150   -1.1510   -0.1180 ha        1 4VB      0.150000
     26 H5          5.4980    1.4860    0.5600 ha        1 4VB      0.149000
     27 H6          6.7240    3.4520   -0.3170 h4        1 4VB      0.150000
     28 H7          3.7610    0.9490   -3.4300 ha        1 4VB      0.163000
     29 H8         -1.0770    0.3790    1.6020 hn        1 4VB      0.325700
     30 H9          2.3540   -1.4050   -1.6640 h1        1 4VB      0.069700
     31 H10         2.2050    0.3370   -2.1870 h1        1 4VB      0.069700
     32 H11         3.9700   -1.8090    0.2940 h1        1 4VB      0.063700
     33 H12         5.2860   -0.5810    0.5560 h1        1 4VB      0.063700
     34 H13         3.7860    0.8790    1.8330 hc        1 4VB      0.065700
     35 H14         3.5350   -0.8120    2.4320 hc        1 4VB      0.065700
     36 H15         6.4380    4.0960   -2.5760 hn        1 4VB      0.332500
     37 H1          0.2960    1.3230   -2.5610 ha        1 4VB      0.150000
@<TRIPOS>BOND
     1    1    2 2   
     2    1   12 1   
     3    1   19 1   
     4    2   13 1   
     5    2   15 1   
     6    3    4 ar  
     7    3   19 ar  
     8    3   37 1   
     9    4   20 ar  
    10    4   23 1   
    11    5    6 ar  
    12    5   20 ar  
    13    5   24 1   
    14    6   19 ar  
    15    6   25 1   
    16    7    8 1   
    17    7   11 2   
    18    7   16 1   
    19    8    9 2   
    20    8   26 1   
    21    9   21 1   
    22    9   27 1   
    23   10   11 1   
    24   10   21 1   
    25   10   22 2   
    26   11   28 1   
    27   12   14 1   
    28   12   29 1   
    29   13   14 2   
    30   13   18 1   
    31   15   16 1   
    32   15   30 1   
    33   15   31 1   
    34   16   17 1   
    35   17   18 1   
    36   17   32 1   
    37   17   33 1   
    38   18   34 1   
    39   18   35 1   
    40   21   36 1   
@<TRIPOS>SUBSTRUCTURE
     1 4VB         1 TEMP              0 ****  ****    0 ROOT
