@<TRIPOS>MOLECULE
4VB
   37    40     1     0     0
SMALL
bcc


@<TRIPOS>ATOM
      1 C2          0.1320    0.0720   -0.1480 cc        1 4VB     -0.049300
      2 C3          1.5260   -0.0930   -0.2040 cd        1 4VB     -0.258600
      3 C11        -0.6420    0.7990   -2.3870 ca        1 4VB     -0.234800
      4 C12        -1.6450    0.7940   -3.3720 ca        1 4VB      0.397700
      5 C14        -3.0350   -0.5040   -2.0800 ca        1 4VB      0.397700
      6 C15        -2.0990   -0.5620   -1.0330 ca        1 4VB     -0.234800
      7 C16         4.5040    1.0110   -1.3740 cc        1 4VB      0.234000
      8 C17         5.3850    1.7480   -0.4900 cc        1 4VB     -0.280000
      9 C18         6.0650    2.8400   -0.9600 cd        1 4VB      0.028600
     10 C20         5.0960    2.6240   -3.1640 c         1 4VB      0.697700
     11 C21         4.3790    1.4590   -2.6760 cd        1 4VB     -0.327200
     12 N1         -0.1750    0.2000    1.2220 na        1 4VB     -0.011600
     13 C4          1.9680   -0.0380    1.1790 cd        1 4VB      0.303600
     14 N5          0.8990    0.1510    2.0030 nc        1 4VB     -0.488800
     15 C6          2.4590   -0.3330   -1.3270 c3        1 4VB      0.271100
     16 N7          3.8640   -0.1740   -0.9590 nh        1 4VB     -0.634400
     17 C8          4.1800   -0.7240    0.3460 c3        1 4VB      0.186800
     18 C9          3.3950   -0.1610    1.5410 c3        1 4VB     -0.133700
     19 C10        -0.8730    0.1030   -1.1920 ca        1 4VB      0.014000
     20 N13        -2.8250    0.1580   -3.2340 nb        1 4VB     -0.656000
     21 N19         5.9440    3.2870   -2.2490 n         1 4VB     -0.446100
     22 O22         5.0210    3.0810   -4.3220 o         1 4VB     -0.652500
     23 H2         -1.4970    1.3310   -4.3270 h4        1 4VB      0.028100
     24 H3         -4.0090   -1.0180   -1.9920 h4        1 4VB      0.028100
     25 H4         -2.3240   -1.1310   -0.1220 ha        1 4VB      0.150000
     26 H5          5.5060    1.4540    0.5600 ha        1 4VB      0.149000
     27 H6          6.7430    3.4190   -0.3050 h4        1 4VB      0.150000
     28 H7          3.7580    0.9570   -3.4300 ha        1 4VB      0.163000
     29 H8         -1.0730    0.3790    1.6060 hn        1 4VB      0.325700
     30 H9          2.3400   -1.4010   -1.6800 h1        1 4VB      0.069700
     31 H10         2.2010    0.3450   -2.1900 h1        1 4VB      0.069700
     32 H11         5.2820   -0.6120    0.5410 h1        1 4VB      0.063700
     33 H12         3.9580   -1.8290    0.2730 h1        1 4VB      0.063700
     34 H13         3.7930    0.8490    1.8320 hc        1 4VB      0.065700
     35 H14         3.5330   -0.8460    2.4190 hc        1 4VB      0.065700
     36 H15         6.4560    4.0810   -2.5590 hn        1 4VB      0.332500
     37 H1          0.2970    1.3460   -2.5520 ha        1 4VB      0.150000
@<TRIPOS>BOND
     1    1    2 2   
     2    1   12 1   
     3    1   19 1   
     4    2   13 1   
     5    2   15 1   
     6    3    4 ar  
     7    3   19 ar  
     8    3   37 1   
     9    4   20 ar  
    10    4   23 1   
    11    5    6 ar  
    12    5   20 ar  
    13    5   24 1   
    14    6   19 ar  
    15    6   25 1   
    16    7    8 1   
    17    7   11 2   
    18    7   16 1   
    19    8    9 2   
    20    8   26 1   
    21    9   21 1   
    22    9   27 1   
    23   10   11 1   
    24   10   21 1   
    25   10   22 2   
    26   11   28 1   
    27   12   14 1   
    28   12   29 1   
    29   13   14 2   
    30   13   18 1   
    31   15   16 1   
    32   15   30 1   
    33   15   31 1   
    34   16   17 1   
    35   17   18 1   
    36   17   32 1   
    37   17   33 1   
    38   18   34 1   
    39   18   35 1   
    40   21   36 1   
@<TRIPOS>SUBSTRUCTURE
     1 4VB         1 TEMP              0 ****  ****    0 ROOT
