@<TRIPOS>MOLECULE
4VC
   31    32     1     0     0
SMALL
bcc


@<TRIPOS>ATOM
      1 C2         -0.0180   -0.8840    0.6690 ca        1 4VC      0.001400
      2 C3          1.3710   -0.9300    0.5360 ca        1 4VC     -0.095000
      3 C5          1.5920    0.8460    2.1600 ca        1 4VC     -0.102000
      4 C6          0.2080    0.9010    2.3120 ca        1 4VC     -0.103000
      5 C7         -0.6130    0.0320    1.5710 ca        1 4VC     -0.007400
      6 C12        -4.8510    0.3380    2.9790 c3        1 4VC      0.185100
      7 C13        -6.3340    0.3880    2.9620 ca        1 4VC     -0.322600
      8 C14        -7.0340    1.3950    3.6450 ca        1 4VC     -0.056000
      9 C15        -8.4260    1.3700    3.6360 ca        1 4VC     -0.233300
     10 C16        -9.0780    0.3310    2.9390 ca        1 4VC      0.452200
     11 Cl1        -0.9750   -1.9450   -0.2540 cl        1 4VC     -0.074400
     12 C4          2.1730   -0.0650    1.2800 ca        1 4VC     -0.092000
     13 N8         -2.0270    0.0180    1.7450 ns        1 4VC     -0.402100
     14 C9         -2.7390    1.1780    1.8900 c         1 4VC      0.638100
     15 O10        -2.3450    2.3170    2.1580 o         1 4VC     -0.482100
     16 N11        -4.2710    1.0790    1.8090 ny        1 4VC     -0.676800
     17 N17        -8.4210   -0.6450    2.2810 nb        1 4VC     -0.640000
     18 C18        -7.0770   -0.6140    2.3000 ca        1 4VC      0.433200
     19 H19         1.8300   -1.6500   -0.1620 ha        1 4VC      0.173000
     20 H21         2.2270    1.5320    2.7450 ha        1 4VC      0.164000
     21 H22        -0.2330    1.6360    3.0050 ha        1 4VC      0.164000
     22 H25        -4.4420    0.8200    3.9150 hx        1 4VC      0.111200
     23 H26        -4.4870   -0.7290    2.9300 hx        1 4VC      0.111200
     24 H27        -6.4930    2.1840    4.1910 ha        1 4VC      0.151000
     25 H28        -9.0120    2.1370    4.1640 ha        1 4VC      0.175000
     26 H29       -10.1840    0.2720    2.9070 h4        1 4VC      0.056100
     27 H20         3.2690   -0.1050    1.1660 ha        1 4VC      0.166000
     28 H23        -2.4870   -0.8260    1.4640 hn        1 4VC      0.349500
     29 H24        -4.5660    0.6350    0.9340 hn        1 4VC      0.462800
     30 H30        -6.5750   -1.4440    1.7680 h4        1 4VC      0.028100
     31 H112       -4.6280    2.0460    1.8130 hn        1 4VC      0.462800
@<TRIPOS>BOND
     1    1    2 ar  
     2    1    5 ar  
     3    1   11 1   
     4    2   12 ar  
     5    2   19 1   
     6    3    4 ar  
     7    3   12 ar  
     8    3   20 1   
     9    4    5 ar  
    10    4   21 1   
    11    5   13 1   
    12    6    7 1   
    13    6   16 1   
    14    6   22 1   
    15    6   23 1   
    16    7    8 ar  
    17    7   18 ar  
    18    8    9 ar  
    19    8   24 1   
    20    9   10 ar  
    21    9   25 1   
    22   10   17 ar  
    23   10   26 1   
    24   12   27 1   
    25   13   14 1   
    26   13   28 1   
    27   14   15 2   
    28   14   16 1   
    29   16   29 1   
    30   16   31 1   
    31   17   18 ar  
    32   18   30 1   
@<TRIPOS>SUBSTRUCTURE
     1 4VC         1 TEMP              0 ****  ****    0 ROOT
