@<TRIPOS>MOLECULE
4VC
   31    32     1     0     0
SMALL
bcc


@<TRIPOS>ATOM
      1 C2         -0.0170   -0.9080    0.6930 ca        1 4VC      0.001400
      2 C3          1.3710   -0.9540    0.5600 ca        1 4VC     -0.095000
      3 C5          1.5900    0.8550    2.1470 ca        1 4VC     -0.102000
      4 C6          0.2060    0.9110    2.2990 ca        1 4VC     -0.103000
      5 C7         -0.6140    0.0240    1.5770 ca        1 4VC     -0.007400
      6 C12        -4.8520    0.3500    2.9800 c3        1 4VC      0.185100
      7 C13        -6.3350    0.3960    2.9630 ca        1 4VC     -0.322600
      8 C14        -7.0360    1.4150    3.6270 ca        1 4VC     -0.056000
      9 C15        -8.4280    1.3880    3.6190 ca        1 4VC     -0.233300
     10 C16        -9.0790    0.3340    2.9420 ca        1 4VC      0.452200
     11 CL1        -0.9720   -1.9910   -0.2060 cl        1 4VC     -0.074400
     12 C4          2.1730   -0.0730    1.2860 ca        1 4VC     -0.092000
     13 N8         -2.0270    0.0110    1.7520 n         1 4VC     -0.402100
     14 C9         -2.7420    1.1720    1.8730 c         1 4VC      0.638100
     15 O10        -2.3500    2.3170    2.1170 o         1 4VC     -0.482100
     16 N11        -4.2740    1.0680    1.7940 n4        1 4VC     -0.676800
     17 N17        -8.4200   -0.6530    2.3040 nb        1 4VC     -0.640000
     18 C18        -7.0760   -0.6200    2.3210 ca        1 4VC      0.433200
     19 H19         1.8330   -1.6880   -0.1230 ha        1 4VC      0.173000
     20 H21         2.2240    1.5540    2.7170 ha        1 4VC      0.164000
     21 H22        -0.2370    1.6590    2.9770 ha        1 4VC      0.164000
     22 H25        -4.4440    0.8520    3.9060 hx        1 4VC      0.111200
     23 H26        -4.4860   -0.7160    2.9530 hx        1 4VC      0.111200
     24 H27        -6.4970    2.2160    4.1570 ha        1 4VC      0.151000
     25 H28        -9.0150    2.1640    4.1320 ha        1 4VC      0.175000
     26 H29       -10.1850    0.2720    2.9120 h4        1 4VC      0.056100
     27 H20         3.2690   -0.1120    1.1730 ha        1 4VC      0.166000
     28 H23        -2.4860   -0.8390    1.4880 hn        1 4VC      0.349500
     29 H24        -4.5680    0.6060    0.9300 hn        1 4VC      0.462800
     30 H30        -6.5730   -1.4590    1.8050 h4        1 4VC      0.028100
     31 H112       -4.6330    2.0350    1.7800 hn        1 4VC      0.462800
@<TRIPOS>BOND
     1    1    2 ar  
     2    1    5 ar  
     3    1   11 1   
     4    2   12 ar  
     5    2   19 1   
     6    3    4 ar  
     7    3   12 ar  
     8    3   20 1   
     9    4    5 ar  
    10    4   21 1   
    11    5   13 1   
    12    6    7 1   
    13    6   16 1   
    14    6   22 1   
    15    6   23 1   
    16    7    8 ar  
    17    7   18 ar  
    18    8    9 ar  
    19    8   24 1   
    20    9   10 ar  
    21    9   25 1   
    22   10   17 ar  
    23   10   26 1   
    24   12   27 1   
    25   13   14 1   
    26   13   28 1   
    27   14   15 2   
    28   14   16 1   
    29   16   29 1   
    30   16   31 1   
    31   17   18 ar  
    32   18   30 1   
@<TRIPOS>SUBSTRUCTURE
     1 4VC         1 TEMP              0 ****  ****    0 ROOT
