@<TRIPOS>MOLECULE
4VD
   52    55     1     0     0
SMALL
bcc


@<TRIPOS>ATOM
      1 C1          0.2500    1.4090   -0.3010 c3        1 4VD     -0.070800
      2 C2          1.6270    0.9450   -0.0110 ca        1 4VD     -0.072300
      3 C3          2.1360    1.0660    1.2830 ca        1 4VD     -0.098000
      4 C5          4.2270    0.0960    0.6050 ca        1 4VD     -0.166300
      5 C6          5.6070   -0.3890    0.8930 c3        1 4VD      0.179100
      6 C8          7.1500   -2.3580    0.6550 c         1 4VD      0.641100
      7 O9          7.4880   -2.8660    1.7300 o         1 4VD     -0.486100
      8 C11         9.2060   -2.6460   -0.6470 ca        1 4VD      0.032600
      9 C12         9.6490   -2.8980   -1.9640 ca        1 4VD     -0.160000
     10 C13        10.9470   -3.3530   -2.1760 ca        1 4VD     -0.074000
     11 C14        11.8170   -3.5710   -1.1120 ca        1 4VD     -0.146000
     12 C15        11.3710   -3.3240    0.2000 ca        1 4VD      0.163900
     13 C19         2.4430    0.3780   -1.0340 ca        1 4VD      0.087600
     14 C21         2.4170   -0.7160   -3.2620 c         1 4VD      0.745300
     15 C23         1.7380   -0.7880   -4.5530 cc        1 4VD     -0.315300
     16 C24         2.3850   -1.0690   -5.7980 cd        1 4VD      0.116600
     17 C26         0.2730   -0.7510   -6.2820 cc        1 4VD     -0.000300
     18 C27        -1.0100   -0.6190   -6.8990 cc        1 4VD     -0.084000
     19 C28        -2.1060   -0.3710   -6.1130 cd        1 4VD     -0.105000
     20 C4          3.4190    0.6250    1.6090 ca        1 4VD     -0.106000
     21 N7          5.6970   -1.8700    0.6500 ny        1 4VD     -0.674800
     22 N10         7.8890   -2.1310   -0.4740 ns        1 4VD     -0.414100
     23 F16        12.2000   -3.5310    1.2470 f         1 4VD     -0.113900
     24 C17        10.0640   -2.8600    0.4420 ca        1 4VD     -0.171000
     25 C18         3.7620    0.0080   -0.7110 ca        1 4VD     -0.156000
     26 N20         1.9300    0.2000   -2.3250 ns        1 4VD     -0.482100
     27 O22         3.4180   -1.4220   -3.0220 o         1 4VD     -0.626100
     28 N25         1.5020   -1.0350   -6.8400 nd        1 4VD     -0.275600
     29 C29        -1.9730   -0.2610   -4.7020 cd        1 4VD     -0.139000
     30 C30        -0.7390   -0.3810   -4.0970 cc        1 4VD     -0.099300
     31 N31         0.3850   -0.5890   -4.8620 na        1 4VD      0.049700
     32 H34        -0.3670    0.5780   -0.7270 hc        1 4VD      0.060367
     33 H33         0.2680    2.2540   -1.0370 hc        1 4VD      0.060367
     34 H32        -0.2580    1.7740    0.6260 hc        1 4VD      0.060367
     35 H35         1.5050    1.5100    2.0710 ha        1 4VD      0.160000
     36 H38         5.9020   -0.1980    1.9650 hx        1 4VD      0.111200
     37 H37         6.3500    0.1200    0.2140 hx        1 4VD      0.111200
     38 H41         8.9870   -2.7390   -2.8300 ha        1 4VD      0.148000
     39 H42        11.2900   -3.5450   -3.2060 ha        1 4VD      0.163000
     40 H43        12.8420   -3.9340   -1.2820 ha        1 4VD      0.174000
     41 H47         3.4480   -1.2860   -5.9340 h4        1 4VD      0.197000
     42 H48        -1.0710   -0.7300   -7.9930 ha        1 4VD      0.182000
     43 H49        -3.1060   -0.2630   -6.5620 ha        1 4VD      0.162000
     44 H36         3.7820    0.7090    2.6440 ha        1 4VD      0.150000
     45 H39         5.2150   -2.3660    1.4130 hn        1 4VD      0.468800
     46 H40         7.4520   -1.7780   -1.3010 hn        1 4VD      0.349500
     47 H44         9.7470   -2.6850    1.4830 ha        1 4VD      0.178000
     48 H45         4.4440   -0.3430   -1.5040 ha        1 4VD      0.159000
     49 H46         1.1790    0.7990   -2.5890 hn        1 4VD      0.333500
     50 H50        -2.8650   -0.0860   -4.0830 ha        1 4VD      0.164000
     51 H51        -0.6170   -0.3430   -3.0020 h4        1 4VD      0.160000
     52 H72         5.2200   -2.0990   -0.2320 hn        1 4VD      0.468800
@<TRIPOS>BOND
     1    1    2 1   
     2    1   32 1   
     3    1   33 1   
     4    1   34 1   
     5    2    3 ar  
     6    2   13 ar  
     7    3   20 ar  
     8    3   35 1   
     9    4    5 1   
    10    4   20 ar  
    11    4   25 ar  
    12    5   21 1   
    13    5   36 1   
    14    5   37 1   
    15    6    7 2   
    16    6   21 1   
    17    6   22 1   
    18    8    9 ar  
    19    8   22 1   
    20    8   24 ar  
    21    9   10 ar  
    22    9   38 1   
    23   10   11 ar  
    24   10   39 1   
    25   11   12 ar  
    26   11   40 1   
    27   12   23 1   
    28   12   24 ar  
    29   13   25 ar  
    30   13   26 1   
    31   14   15 1   
    32   14   26 1   
    33   14   27 2   
    34   15   16 2   
    35   15   31 1   
    36   16   28 1   
    37   16   41 1   
    38   17   18 1   
    39   17   28 2   
    40   17   31 1   
    41   18   19 2   
    42   18   42 1   
    43   19   29 1   
    44   19   43 1   
    45   20   44 1   
    46   21   45 1   
    47   21   52 1   
    48   22   46 1   
    49   24   47 1   
    50   25   48 1   
    51   26   49 1   
    52   29   30 2   
    53   29   50 1   
    54   30   31 1   
    55   30   51 1   
@<TRIPOS>SUBSTRUCTURE
     1 4VD         1 TEMP              0 ****  ****    0 ROOT
