@<TRIPOS>MOLECULE
4VD
   52    55     1     0     0
SMALL
bcc


@<TRIPOS>ATOM
      1 C1          0.2660    1.4380   -0.3030 c3        1 4VD     -0.070800
      2 C2          1.6440    0.9730   -0.0170 ca        1 4VD     -0.072300
      3 C3          2.1620    1.1080    1.2720 ca        1 4VD     -0.098000
      4 C5          4.2460    0.1250    0.5910 ca        1 4VD     -0.166300
      5 C6          5.6270   -0.3600    0.8750 c3        1 4VD      0.179100
      6 C8          7.1640   -2.3350    0.6510 c         1 4VD      0.641100
      7 O9          7.5070   -2.8310    1.7290 o         1 4VD     -0.486100
      8 C11         9.2110   -2.6430   -0.6610 ca        1 4VD      0.032600
      9 C12         9.6450   -2.9130   -1.9780 ca        1 4VD     -0.160000
     10 C13        10.9410   -3.3720   -2.1920 ca        1 4VD     -0.074000
     11 C14        11.8160   -3.5800   -1.1310 ca        1 4VD     -0.146000
     12 C15        11.3800   -3.3160    0.1800 ca        1 4VD      0.163900
     13 C19         2.4520    0.3930   -1.0390 ca        1 4VD      0.087600
     14 C21         2.4070   -0.7270   -3.2540 c         1 4VD      0.745300
     15 C23         1.7200   -0.8120   -4.5390 cc        1 4VD     -0.315300
     16 C24         2.3570   -1.1100   -5.7860 cd        1 4VD      0.116600
     17 C26         0.2430   -0.7920   -6.2590 cc        1 4VD     -0.000300
     18 C27        -1.0440   -0.6640   -6.8680 cc        1 4VD     -0.084000
     19 C28        -2.1340   -0.4040   -6.0770 cd        1 4VD     -0.105000
     20 C4          3.4460    0.6680    1.5940 ca        1 4VD     -0.106000
     21 N7          5.7120   -1.8430    0.6480 n4        1 4VD     -0.674800
     22 N10         7.8960   -2.1230   -0.4860 n         1 4VD     -0.414100
     23 F16        12.2140   -3.5120    1.2240 f         1 4VD     -0.113900
     24 C17        10.0750   -2.8460    0.4250 ca        1 4VD     -0.171000
     25 C18         3.7720    0.0240   -0.7210 ca        1 4VD     -0.156000
     26 N20         1.9290    0.2010   -2.3240 n         1 4VD     -0.482100
     27 O22         3.4090   -1.4330   -3.0130 o         1 4VD     -0.626100
     28 N25         1.4680   -1.0850   -6.8210 nd        1 4VD     -0.275600
     29 C29        -1.9910   -0.2780   -4.6690 cd        1 4VD     -0.139000
     30 C30        -0.7530   -0.3950   -4.0710 cc        1 4VD     -0.099300
     31 N31         0.3650   -0.6140   -4.8410 na        1 4VD      0.049700
     32 H34         0.2810    2.2730   -1.0490 hc        1 4VD      0.060367
     33 H33        -0.2340    1.8140    0.6240 hc        1 4VD      0.060367
     34 H32        -0.3560    0.6030   -0.7150 hc        1 4VD      0.060367
     35 H35         1.5370    1.5630    2.0590 ha        1 4VD      0.160000
     36 H38         5.9300   -0.1560    1.9420 hx        1 4VD      0.111200
     37 H37         6.3660    0.1400    0.1840 hx        1 4VD      0.111200
     38 H41         8.9780   -2.7620   -2.8410 ha        1 4VD      0.148000
     39 H42        11.2770   -3.5790   -3.2230 ha        1 4VD      0.163000
     40 H43        12.8400   -3.9470   -1.3030 ha        1 4VD      0.174000
     41 H47         3.4190   -1.3300   -5.9260 h4        1 4VD      0.197000
     42 H48        -1.1130   -0.7880   -7.9600 ha        1 4VD      0.182000
     43 H49        -3.1370   -0.3000   -6.5210 ha        1 4VD      0.162000
     44 H36         3.8170    0.7630    2.6260 ha        1 4VD      0.150000
     45 H39         5.2290   -2.0820   -0.2280 hn        1 4VD      0.468800
     46 H40         7.4550   -1.7790   -1.3140 hn        1 4VD      0.349500
     47 H44         9.7650   -2.6570    1.4660 ha        1 4VD      0.178000
     48 H45         4.4480   -0.3380   -1.5140 ha        1 4VD      0.159000
     49 H46         1.1780    0.7990   -2.5900 hn        1 4VD      0.333500
     50 H50        -2.8780   -0.0940   -4.0450 ha        1 4VD      0.164000
     51 H51        -0.6240   -0.3440   -2.9770 h4        1 4VD      0.160000
     52 H72         5.2330   -2.3290    1.4200 hn        1 4VD      0.468800
@<TRIPOS>BOND
     1    1    2 1   
     2    1   32 1   
     3    1   33 1   
     4    1   34 1   
     5    2    3 ar  
     6    2   13 ar  
     7    3   20 ar  
     8    3   35 1   
     9    4    5 1   
    10    4   20 ar  
    11    4   25 ar  
    12    5   21 1   
    13    5   36 1   
    14    5   37 1   
    15    6    7 2   
    16    6   21 1   
    17    6   22 1   
    18    8    9 ar  
    19    8   22 1   
    20    8   24 ar  
    21    9   10 ar  
    22    9   38 1   
    23   10   11 ar  
    24   10   39 1   
    25   11   12 ar  
    26   11   40 1   
    27   12   23 1   
    28   12   24 ar  
    29   13   25 ar  
    30   13   26 1   
    31   14   15 1   
    32   14   26 1   
    33   14   27 2   
    34   15   16 2   
    35   15   31 1   
    36   16   28 1   
    37   16   41 1   
    38   17   18 1   
    39   17   28 2   
    40   17   31 1   
    41   18   19 2   
    42   18   42 1   
    43   19   29 1   
    44   19   43 1   
    45   20   44 1   
    46   21   45 1   
    47   21   52 1   
    48   22   46 1   
    49   24   47 1   
    50   25   48 1   
    51   26   49 1   
    52   29   30 2   
    53   29   50 1   
    54   30   31 1   
    55   30   51 1   
@<TRIPOS>SUBSTRUCTURE
     1 4VD         1 TEMP              0 ****  ****    0 ROOT
