@<TRIPOS>MOLECULE
4VE
   52    55     1     0     0
SMALL
bcc


@<TRIPOS>ATOM
      1 C1         -1.0000   -1.5770   -1.2090 c3        1 4VE     -0.209000
      2 C2          0.3880   -1.0160   -1.0290 cy        1 4VE      0.000000
      3 N4          0.6690   -0.4600    0.3300 nh        1 4VE     -0.173000
      4 C5          1.5200   -1.1610    1.1810 c2        1 4VE      0.119000
      5 C7          2.5580   -2.6420    2.4370 c2        1 4VE     -0.006000
      6 C8          3.0030   -3.9390    2.8810 c2        1 4VE     -0.154000
      7 C11         4.1390   -0.5310    5.0430 c1        1 4VE     -0.163000
      8 C12         3.5230   -0.9220    4.0930 c1        1 4VE     -0.105000
      9 C13         2.8110   -1.3830    2.9950 c2        1 4VE      0.006000
     10 C15         0.6180    0.4110   -1.6270 cy        1 4VE     -0.114000
     11 C16         1.0240    0.8850   -0.1950 cy        1 4VE     -0.008000
     12 C22         3.7090    1.1200   -4.8010 c2        1 4VE      0.266000
     13 C24         4.8110    1.3480   -5.6750 c2        1 4VE     -0.267000
     14 C25         6.1190    1.9280   -5.5330 c2        1 4VE     -0.094000
     15 C27         5.9140    1.2960   -7.6310 c2        1 4VE     -0.099000
     16 C28         1.6110   -1.0050   -9.7400 c1        1 4VE      0.124000
     17 C31         3.5450    0.3510   -7.4830 c2        1 4VE     -0.309000
     18 N32         4.7200    0.9540   -7.0440 na        1 4VE      0.038000
     19 N6          1.7520   -2.4870    1.2900 n2        1 4VE     -0.176000
     20 C9          3.7640   -4.1110    3.9850 c2        1 4VE      0.015000
     21 F10         4.1740   -5.3290    4.3890 f         1 4VE     -0.109000
     22 O14         2.1610   -0.4140    2.2020 os        1 4VE     -0.123000
     23 C17         2.4530    1.3870   -0.0620 c3        1 4VE     -0.137000
     24 C18         2.8760    2.1150   -1.2940 c2        1 4VE     -0.085000
     25 C20         2.7160    1.3260   -2.5380 c2        1 4VE      0.022000
     26 N21         3.7430    1.4820   -3.4950 n7        1 4VE     -0.217000
     27 O23         2.5820    0.5160   -5.3050 os        1 4VE     -0.067000
     28 N26         6.7730    1.8880   -6.7230 n2        1 4VE     -0.125000
     29 C29         0.6750   -1.1680   -8.8530 c2        1 4VE     -0.554000
     30 C30         2.5100    0.1480   -6.6010 c1        1 4VE     -0.108000
     31 C33         1.6530    0.4960   -2.6680 c2        1 4VE     -0.143000
     32 H35        -0.3290    0.8850   -1.9880 hc        1 4VE      0.135000
     33 H34        -1.1480   -1.8220   -2.2890 hc        1 4VE      0.093667
     34 H36        -1.1230   -2.5100   -0.6060 hc        1 4VE      0.093667
     35 H3         -1.7850   -0.8470   -0.8960 hc        1 4VE      0.093667
     36 H37         1.1520   -1.7630   -1.3750 h1        1 4VE      0.122000
     37 H38         2.6890   -4.8040    2.2710 ha        1 4VE      0.166000
     38 H39         4.1080   -3.2880    4.6370 h4        1 4VE      0.152000
     39 H40         4.6840   -0.1890    5.8870 ha        1 4VE      0.233000
     40 H41         0.3120    1.6330    0.2450 h1        1 4VE      0.132000
     41 H43         3.1640    0.5310    0.1100 hc        1 4VE      0.113500
     42 H45         3.4300    3.9290   -0.3240 ha        1 4VE      0.126000
     43 H44         3.6510    3.9180   -2.1620 ha        1 4VE      0.126000
     44 H47         6.5650    2.3450   -4.6290 h4        1 4VE      0.178000
     45 H48         6.1450    1.1160   -8.6870 h5        1 4VE      0.220000
     46 H51         3.4930    0.0540   -8.5420 h4        1 4VE      0.194000
     47 H42         2.5260    2.0520    0.8390 hc        1 4VE      0.113500
     48 H46         4.5720    1.9420   -3.1740 hn        1 4VE      0.258000
     49 H49         0.8610   -0.8280   -7.8040 ha        1 4VE      0.211000
     50 H50        -0.3160   -1.6130   -8.9970 ha        1 4VE      0.211000
     51 H52         1.4830   -0.1350   -3.5580 ha        1 4VE      0.177000
     52 C19         3.3420    3.3670   -1.2640 c2        1 4VE     -0.194000
@<TRIPOS>BOND
     1    1    2 1   
     2    1   33 1   
     3    1   34 1   
     4    1   35 1   
     5    2    3 1   
     6    2   10 1   
     7    2   36 1   
     8    3    4 1   
     9    3   11 1   
    10    4   19 1   
    11    4   22 1   
    12    5    6 1   
    13    5    9 1   
    14    5   19 1   
    15    6   20 1   
    16    6   37 1   
    17    7    8 1   
    18    7   39 1   
    19    8    9 1   
    20    9   22 1   
    21   10   11 1   
    22   10   31 1   
    23   10   32 1   
    24   11   23 1   
    25   11   40 1   
    26   12   13 1   
    27   12   26 1   
    28   12   27 1   
    29   13   14 1   
    30   13   18 1   
    31   14   28 1   
    32   14   44 1   
    33   15   18 1   
    34   15   28 1   
    35   15   45 1   
    36   16   29 1   
    37   17   18 1   
    38   17   30 1   
    39   17   46 1   
    40   20   21 1   
    41   20   38 1   
    42   23   24 1   
    43   23   41 1   
    44   23   47 1   
    45   24   25 1   
    46   24   52 1   
    47   25   26 1   
    48   25   31 1   
    49   26   48 1   
    50   27   30 1   
    51   29   49 1   
    52   29   50 1   
    53   31   51 1   
    54   42   52 1   
    55   43   52 1   
@<TRIPOS>SUBSTRUCTURE
     1 4VE         1 TEMP              0 ****  ****    0 ROOT
