@<TRIPOS>MOLECULE
4VF
   59    58     1     0     0
SMALL
bcc


@<TRIPOS>ATOM
      1 C2          0.1000   -1.4950   -0.3910 c2        1 4VF     -0.148000
      2 C3         -0.1150    0.3180    4.6350 c1        1 4VF      0.091000
      3 C12         4.2940    0.4420    3.1600 c2        1 4VF      0.284000
      4 C15         0.6440   -0.9950    0.6780 c1        1 4VF     -0.128000
      5 C16         1.1840   -0.5290    1.7720 c2        1 4VF     -0.065000
      6 C17         2.0740    0.6080    5.8330 c1        1 4VF      0.190000
      7 C18        -3.3520   -0.2070   -1.2740 c2        1 4VF     -0.022000
      8 C19        -4.5030   -0.8710   -1.5900 c2        1 4VF     -0.066000
      9 C20        -5.6260   -0.1070   -2.2210 c3        1 4VF     -0.103000
     10 C21        -6.9140   -0.8440   -2.3010 c2        1 4VF     -0.075000
     11 C22        -7.0480   -2.1460   -1.9780 c2        1 4VF     -0.141000
     12 C23        -5.8980   -2.8890   -1.5220 c2        1 4VF     -0.115000
     13 C24        -4.7040   -2.2870   -1.3420 c2        1 4VF     -0.128000
     14 C25         9.0540    0.4020    6.0370 c2        1 4VF     -0.150000
     15 C26         7.8900    1.1180    6.6170 c3        1 4VF     -0.173000
     16 C27         6.8390    0.1430    7.1250 c3        1 4VF     -0.027000
     17 C29         7.7600   -1.7010    5.9260 c3        1 4VF      0.002000
     18 C30         8.9910   -0.8930    5.7150 c2        1 4VF     -0.208000
     19 Cl1        -8.2400    0.0650   -2.8570 cl        1 4VF     -0.021000
     20 O28         6.6020   -0.9110    6.1960 os        1 4VF     -0.295000
     21 N5         -2.2610   -0.8030   -0.5920 n         1 4VF     -0.300000
     22 C31        -3.1880    1.2520   -1.6550 c3        1 4VF      0.005000
     23 C8          2.3290    0.4020    1.7840 c2        1 4VF      0.003000
     24 C6         -0.9880   -0.8250   -1.1610 c2        1 4VF      0.349000
     25 N13         2.9830    0.5080    3.0270 n2        1 4VF     -0.270000
     26 N14         4.8940    0.7370    4.4050 n8        1 4VF     -0.332000
     27 C4         -2.5000   -1.4530    0.6690 c3        1 4VF     -0.074000
     28 C10         5.9500   -0.1080    1.2380 c1        1 4VF      0.185000
     29 O7         -0.7620   -0.3250   -2.2790 o         1 4VF     -0.343000
     30 C9          2.6080    1.1490    0.6920 c2        1 4VF     -0.229000
     31 N1          0.9890    0.5560    5.3120 n2        1 4VF     -0.326000
     32 N11         5.1970    0.1450    2.1160 n2        1 4VF     -0.361000
     33 H1         -2.1910   -2.5320    0.6220 h1        1 4VF      0.086000
     34 H2         -0.7360    1.2270    4.4410 ha        1 4VF      0.047000
     35 H3          0.4540   -2.4360   -0.8500 ha        1 4VF      0.171000
     36 H4          0.7710   -0.8370    2.7570 ha        1 4VF      0.177000
     37 H5         -3.8360   -2.8800   -1.0120 ha        1 4VF      0.133000
     38 H6         -5.7840    0.8530   -1.6470 hc        1 4VF      0.127500
     39 H7         -5.3200    0.1860   -3.2680 hc        1 4VF      0.127500
     40 H8         -8.0090   -2.6760   -2.0520 ha        1 4VF      0.146000
     41 H9         -6.0330   -3.9650   -1.3350 ha        1 4VF      0.136000
     42 H10         5.7530    0.2610    4.5970 hn        1 4VF      0.228500
     43 H11         9.9630    1.0010    5.8770 ha        1 4VF      0.132000
     44 H12         8.2210    1.7760    7.4630 hc        1 4VF      0.103500
     45 H13         7.4420    1.7810    5.8270 hc        1 4VF      0.103500
     46 H14         5.8370    0.6400    7.2290 h1        1 4VF      0.092500
     47 H15         7.1490   -0.2930    8.1110 h1        1 4VF      0.092500
     48 H16         7.9130   -2.4180    6.7780 h1        1 4VF      0.097500
     49 H17         7.4850   -2.2730    4.9980 h1        1 4VF      0.097500
     50 H18         9.8460   -1.4370    5.2860 ha        1 4VF      0.137000
     51 H19        -3.5790    1.9910    0.0900 ho        1 4VF      0.200000
     52 H20        -3.6120    1.4350   -2.6810 h1        1 4VF      0.108500
     53 H21        -2.1060    1.5580   -1.6570 h1        1 4VF      0.108500
     54 H22         4.2640    0.7440    5.1830 hn        1 4VF      0.228500
     55 H23        -1.9010   -0.9490    1.4770 h1        1 4VF      0.086000
     56 H24        -3.5890   -1.3960    0.9310 h1        1 4VF      0.086000
     57 H25         3.4350    1.8690    0.6520 ha        1 4VF      0.130500
     58 H26         1.9970    1.0790   -0.2170 ha        1 4VF      0.130500
     59 O32        -3.9330    2.0990   -0.8000 oh        1 4VF     -0.325000
@<TRIPOS>BOND
     1    1    4 1   
     2    1   24 1   
     3    1   35 1   
     4    2   31 1   
     5    2   34 1   
     6    3   25 1   
     7    3   26 1   
     8    3   32 1   
     9    4    5 1   
    10    5   23 1   
    11    5   36 1   
    12    6   31 1   
    13    7    8 1   
    14    7   21 1   
    15    7   22 1   
    16    8    9 1   
    17    8   13 1   
    18    9   10 1   
    19    9   38 1   
    20    9   39 1   
    21   10   11 1   
    22   10   19 1   
    23   11   12 1   
    24   11   40 1   
    25   12   13 1   
    26   12   41 1   
    27   13   37 1   
    28   14   15 1   
    29   14   18 1   
    30   14   43 1   
    31   15   16 1   
    32   15   44 1   
    33   15   45 1   
    34   16   20 1   
    35   16   46 1   
    36   16   47 1   
    37   17   18 1   
    38   17   20 1   
    39   17   48 1   
    40   17   49 1   
    41   18   50 1   
    42   21   24 1   
    43   21   27 1   
    44   22   52 1   
    45   22   53 1   
    46   22   59 1   
    47   23   25 1   
    48   23   30 1   
    49   24   29 1   
    50   26   42 1   
    51   26   54 1   
    52   27   33 1   
    53   27   55 1   
    54   27   56 1   
    55   28   32 1   
    56   30   57 1   
    57   30   58 1   
    58   51   59 1   
@<TRIPOS>SUBSTRUCTURE
     1 4VF         1 TEMP              0 ****  ****    0 ROOT
