@<TRIPOS>MOLECULE
4VF
   59    63     1     0     0
SMALL
bcc


@<TRIPOS>ATOM
      1 C2          0.0220   -0.0490    0.0380 cc        1 4VF     -0.202900
      2 C3         -1.7610    0.1990    1.7400 c3        1 4VF      0.020300
      3 C12         4.8540    0.2280    3.5050 ca        1 4VF      0.864900
      4 C15         1.4240   -0.0950   -0.0070 cd        1 4VF     -0.071000
      5 C16         1.8910    0.0730    1.3410 cd        1 4VF     -0.265500
      6 C17         0.7490    0.2140    2.1700 cc        1 4VF     -0.054300
      7 C18        -3.3330   -0.1070   -1.7230 c3        1 4VF      0.154000
      8 C19        -4.4080   -1.0930   -1.3210 ca        1 4VF     -0.094300
      9 C20        -5.5790   -0.6900   -0.6760 ca        1 4VF     -0.117000
     10 C21        -6.5470   -1.6420   -0.3420 ca        1 4VF      0.009400
     11 C22        -6.3550   -2.9940   -0.6400 ca        1 4VF     -0.118000
     12 C23        -5.1800   -3.3890   -1.2780 ca        1 4VF     -0.126000
     13 C24        -4.2100   -2.4480   -1.6160 ca        1 4VF     -0.111000
     14 C25         6.3590    0.0620    5.4690 c3        1 4VF      0.206500
     15 C26         6.4980    0.6410    6.8900 c3        1 4VF     -0.130900
     16 C27         7.8410    0.2390    7.4720 c3        1 4VF      0.128400
     17 C29         7.8990   -1.7660    6.2110 c3        1 4VF      0.128400
     18 C30         6.5640   -1.4600    5.5570 c3        1 4VF     -0.130900
     19 CL1        -7.9740   -1.1470    0.4410 cl        1 4VF     -0.096400
     20 O28         8.0100   -1.1730    7.5000 os        1 4VF     -0.416600
     21 N5         -2.3000    0.0210   -0.7130 n         1 4VF     -0.471800
     22 C31        -3.9380    1.2340   -2.1980 c3        1 4VF      0.111400
     23 C8          3.2690    0.0990    1.7870 ca        1 4VF      0.579800
     24 C6         -0.9580   -0.1820   -1.0510 c         1 4VF      0.748100
     25 N13         3.5210    0.1930    3.1170 nb        1 4VF     -0.770000
     26 N14         5.0980    0.4680    4.8750 nh        1 4VF     -0.812900
     27 C4         -2.6490    0.6300    0.5490 c3        1 4VF      0.091000
     28 C10         5.6280    0.0320    1.3300 ca        1 4VF      0.461200
     29 O7         -0.6190   -0.4980   -2.2080 o         1 4VF     -0.637500
     30 C9          4.3160    0.0190    0.8350 ca        1 4VF     -0.413600
     31 N1         -0.3740    0.1420    1.3770 na        1 4VF     -0.045100
     32 N11         5.9330    0.1260    2.6330 nb        1 4VF     -0.749000
     33 H1         -2.0840   -0.8190    2.1050 h1        1 4VF      0.068200
     34 H2         -1.9040    0.9390    2.5760 h1        1 4VF      0.068200
     35 H3          2.0240   -0.2350   -0.9030 ha        1 4VF      0.172000
     36 H4          0.6980    0.3590    3.2510 h4        1 4VF      0.189000
     37 H5         -2.8270   -0.5330   -2.6520 h1        1 4VF      0.102700
     38 H6         -5.7410    0.3750   -0.4350 ha        1 4VF      0.166000
     39 H7         -7.1200   -3.7390   -0.3740 ha        1 4VF      0.148000
     40 H8         -5.0190   -4.4520   -1.5140 ha        1 4VF      0.140000
     41 H9         -3.2830   -2.7700   -2.1160 ha        1 4VF      0.147000
     42 H10         7.1930    0.4940    4.8390 h1        1 4VF      0.087700
     43 H11         6.4270    1.7580    6.8620 hc        1 4VF      0.058200
     44 H12         5.6760    0.2540    7.5460 hc        1 4VF      0.058200
     45 H13         7.9160    0.5430    8.5500 h1        1 4VF      0.050450
     46 H14         8.6790    0.7060    6.8870 h1        1 4VF      0.050450
     47 H15         8.0080   -2.8650    6.4080 h1        1 4VF      0.050450
     48 H16         8.7440   -1.4110    5.5620 h1        1 4VF      0.050450
     49 H17         6.5450   -1.9120    4.5330 hc        1 4VF      0.058200
     50 H18         5.7390   -1.9220    6.1590 hc        1 4VF      0.058200
     51 H19        -4.7470    2.8170   -1.4500 ho        1 4VF      0.407000
     52 H20        -3.1580    1.8110   -2.7650 h1        1 4VF      0.040200
     53 H21        -4.8040    1.0090   -2.8770 h1        1 4VF      0.040200
     54 H22         4.3070    0.2980    5.4630 hn        1 4VF      0.415800
     55 H23        -3.7160    0.3580    0.7970 h1        1 4VF      0.069700
     56 H24        -2.5990    1.7550    0.4470 h1        1 4VF      0.069700
     57 H25         6.4950   -0.0410    0.6470 h4        1 4VF      0.024100
     58 H26         4.1100   -0.0540   -0.2370 ha        1 4VF      0.155000
     59 O32        -4.3800    2.0000   -1.0900 oh        1 4VF     -0.612800
@<TRIPOS>BOND
     1    1    4 2   
     2    1   24 1   
     3    1   31 1   
     4    2   27 1   
     5    2   31 1   
     6    2   33 1   
     7    2   34 1   
     8    3   25 ar  
     9    3   26 1   
    10    3   32 ar  
    11    4    5 1   
    12    4   35 1   
    13    5    6 2   
    14    5   23 1   
    15    6   31 1   
    16    6   36 1   
    17    7    8 1   
    18    7   21 1   
    19    7   22 1   
    20    7   37 1   
    21    8    9 ar  
    22    8   13 ar  
    23    9   10 ar  
    24    9   38 1   
    25   10   11 ar  
    26   10   19 1   
    27   11   12 ar  
    28   11   39 1   
    29   12   13 ar  
    30   12   40 1   
    31   13   41 1   
    32   14   15 1   
    33   14   18 1   
    34   14   26 1   
    35   14   42 1   
    36   15   16 1   
    37   15   43 1   
    38   15   44 1   
    39   16   20 1   
    40   16   45 1   
    41   16   46 1   
    42   17   18 1   
    43   17   20 1   
    44   17   47 1   
    45   17   48 1   
    46   18   49 1   
    47   18   50 1   
    48   21   24 1   
    49   21   27 1   
    50   22   52 1   
    51   22   53 1   
    52   22   59 1   
    53   23   25 ar  
    54   23   30 ar  
    55   24   29 2   
    56   26   54 1   
    57   27   55 1   
    58   27   56 1   
    59   28   30 ar  
    60   28   32 ar  
    61   28   57 1   
    62   30   58 1   
    63   51   59 1   
@<TRIPOS>SUBSTRUCTURE
     1 4VF         1 TEMP              0 ****  ****    0 ROOT
