@<TRIPOS>MOLECULE
4VG
   62    66     1     0     0
SMALL
bcc


@<TRIPOS>ATOM
      1 C1         -0.1000    0.0890    0.0120 cc        1 4VG     -0.196900
      2 C3          1.3690    0.2230   -0.0920 c         1 4VG      0.766100
      3 C12        -5.8330   -1.1180   -1.0600 ca        1 4VG      0.864900
      4 C15        -0.3740    1.3860    2.1550 c3        1 4VG      0.033300
      5 C16         0.6030    0.6270    3.0510 c3        1 4VG     -0.114400
      6 C17         1.5100   -0.3380    2.2870 c3        1 4VG      0.099000
      7 C19         3.5280    0.5150    1.1340 c3        1 4VG      0.132000
      8 C20         4.4100   -0.5400    0.5010 ca        1 4VG     -0.106300
      9 C21         4.6520   -0.5640   -0.8740 ca        1 4VG     -0.094000
     10 C22         5.5030   -1.5360   -1.4110 ca        1 4VG      0.014400
     11 C23         6.1100   -2.4890   -0.5870 ca        1 4VG     -0.118000
     12 C24         5.8570   -2.4640    0.7830 ca        1 4VG     -0.127000
     13 C25         5.0120   -1.4980    1.3260 ca        1 4VG     -0.123000
     14 C26         3.9210    1.9330    0.6310 c3        1 4VG      0.132400
     15 C28        -8.3100   -0.9920   -1.0600 c3        1 4VG      0.206500
     16 C29        -9.4860   -1.0520   -0.0670 c3        1 4VG     -0.130900
     17 C30       -10.7950   -1.1250   -0.8350 c3        1 4VG      0.128400
     18 N2         -0.8860    0.6220    1.0510 na        1 4VG     -0.040100
     19 C8         -3.5050   -0.8770   -1.0450 ca        1 4VG      0.579800
     20 C6         -2.2120    0.3370    0.7890 cc        1 4VG     -0.064300
     21 C5         -2.2910   -0.3850   -0.4260 cd        1 4VG     -0.260500
     22 N13        -4.6940   -0.6190   -0.4430 nb        1 4VG     -0.770000
     23 N14        -7.0440   -0.9630   -0.3490 nh        1 4VG     -0.812900
     24 C4         -0.9500   -0.5310   -0.9180 cd        1 4VG     -0.085000
     25 C32        -9.9000    0.0810   -2.6680 c3        1 4VG      0.128400
     26 C10        -4.6390   -2.0390   -2.8180 ca        1 4VG      0.460200
     27 O7          1.9050    0.3440   -1.2120 o         1 4VG     -0.644500
     28 O31       -10.9570   -0.0230   -1.7200 os        1 4VG     -0.416600
     29 C9         -3.4290   -1.6030   -2.2590 ca        1 4VG     -0.412600
     30 N18         2.1110    0.2040    1.0890 n         1 4VG     -0.470800
     31 CL1         5.8020   -1.5580   -3.0840 cl        1 4VG     -0.090400
     32 C33        -8.5440    0.2050   -1.9980 c3        1 4VG     -0.130900
     33 N11        -5.8400   -1.8140   -2.2630 nb        1 4VG     -0.749000
     34 O27         3.0330    2.5380   -0.2730 oh        1 4VG     -0.597800
     35 H1         -1.2460    1.7400    2.7760 h1        1 4VG      0.071200
     36 H2          0.1500    2.2940    1.7330 h1        1 4VG      0.071200
     37 H3          0.0400    0.0280    3.8130 hc        1 4VG      0.058700
     38 H4          1.2190    1.3870    3.5980 hc        1 4VG      0.058700
     39 H5          2.3210   -0.6850    2.9890 h1        1 4VG      0.057200
     40 H6          0.9070   -1.2530    2.0090 h1        1 4VG      0.057200
     41 H7          3.8090    0.5360    2.2370 h1        1 4VG      0.055700
     42 H8          4.1520    0.1660   -1.5340 ha        1 4VG      0.169000
     43 H9          6.7790   -3.2510   -1.0150 ha        1 4VG      0.148000
     44 H10         6.3270   -3.2130    1.4380 ha        1 4VG      0.137000
     45 H11         4.8200   -1.4910    2.4100 ha        1 4VG      0.129000
     46 H12         3.9250    2.6320    1.5130 h1        1 4VG      0.048700
     47 H13         4.9550    1.8780    0.1970 h1        1 4VG      0.048700
     48 H14        -8.3360   -1.9370   -1.6810 h1        1 4VG      0.087700
     49 H16        -9.3930   -1.9530    0.5910 hc        1 4VG      0.058200
     50 H17       -10.8570   -2.0840   -1.4150 h1        1 4VG      0.050450
     51 H18       -11.6710   -1.0450   -0.1380 h1        1 4VG      0.050450
     52 H19        -3.0190    0.6550    1.4520 h4        1 4VG      0.187000
     53 H20        -7.0060   -0.2660    0.3680 hn        1 4VG      0.415800
     54 H21        -0.6320   -1.0180   -1.8360 ha        1 4VG      0.171000
     55 H22        -9.9210   -0.8120   -3.3490 h1        1 4VG      0.050450
     56 H23       -10.1480    1.0080   -3.2500 h1        1 4VG      0.050450
     57 H24        -4.6570   -2.6000   -3.7710 h4        1 4VG      0.024100
     58 H25        -2.4690   -1.8090   -2.7430 ha        1 4VG      0.155000
     59 H26        -7.7480    0.2400   -2.7850 hc        1 4VG      0.058200
     60 H27        -8.5020    1.1610   -1.4150 hc        1 4VG      0.058200
     61 H28         3.0860    2.0610   -1.1130 ho        1 4VG      0.426000
     62 H15        -9.4870   -0.1410    0.5850 hc        1 4VG      0.058200
@<TRIPOS>BOND
     1    1    2 1   
     2    1   18 1   
     3    1   24 2   
     4    2   27 2   
     5    2   30 1   
     6    3   22 ar  
     7    3   23 1   
     8    3   33 ar  
     9    4    5 1   
    10    4   18 1   
    11    4   35 1   
    12    4   36 1   
    13    5    6 1   
    14    5   37 1   
    15    5   38 1   
    16    6   30 1   
    17    6   39 1   
    18    6   40 1   
    19    7    8 1   
    20    7   14 1   
    21    7   30 1   
    22    7   41 1   
    23    8    9 ar  
    24    8   13 ar  
    25    9   10 ar  
    26    9   42 1   
    27   10   11 ar  
    28   10   31 1   
    29   11   12 ar  
    30   11   43 1   
    31   12   13 ar  
    32   12   44 1   
    33   13   45 1   
    34   14   34 1   
    35   14   46 1   
    36   14   47 1   
    37   15   16 1   
    38   15   23 1   
    39   15   32 1   
    40   15   48 1   
    41   16   17 1   
    42   16   49 1   
    43   16   62 1   
    44   17   28 1   
    45   17   50 1   
    46   17   51 1   
    47   18   20 1   
    48   19   21 1   
    49   19   22 ar  
    50   19   29 ar  
    51   20   21 2   
    52   20   52 1   
    53   21   24 1   
    54   23   53 1   
    55   24   54 1   
    56   25   28 1   
    57   25   32 1   
    58   25   55 1   
    59   25   56 1   
    60   26   29 ar  
    61   26   33 ar  
    62   26   57 1   
    63   29   58 1   
    64   32   59 1   
    65   32   60 1   
    66   34   61 1   
@<TRIPOS>SUBSTRUCTURE
     1 4VG         1 TEMP              0 ****  ****    0 ROOT
