@<TRIPOS>MOLECULE
4VG
   62    66     1     0     0
SMALL
bcc


@<TRIPOS>ATOM
      1 C1         -0.1000    0.0930    0.0100 cc        1 4VG     -0.196900
      2 C3          1.3680    0.2300   -0.0980 c         1 4VG      0.766100
      3 C12        -5.8340   -1.1190   -1.0520 ca        1 4VG      0.864900
      4 C15        -0.3700    1.3730    2.1630 c3        1 4VG      0.033300
      5 C16         0.6120    0.6100    3.0510 c3        1 4VG     -0.114400
      6 C17         1.5170   -0.3480    2.2760 c3        1 4VG      0.099000
      7 C19         3.5310    0.5160    1.1230 c3        1 4VG      0.132000
      8 C20         4.4120   -0.5330    0.4790 ca        1 4VG     -0.106300
      9 C21         4.6490   -0.5450   -0.8970 ca        1 4VG     -0.094000
     10 C22         5.5000   -1.5110   -1.4440 ca        1 4VG      0.014400
     11 C23         6.1110   -2.4700   -0.6300 ca        1 4VG     -0.118000
     12 C24         5.8620   -2.4580    0.7410 ca        1 4VG     -0.127000
     13 C25         5.0180   -1.4970    1.2940 ca        1 4VG     -0.123000
     14 C26         3.9190    1.9380    0.6310 c3        1 4VG      0.132400
     15 C28        -8.3120   -1.0010   -1.0420 c3        1 4VG      0.206500
     16 C29        -9.4830   -1.0740   -0.0450 c3        1 4VG     -0.130900
     17 C30       -10.7950   -1.1430   -0.8080 c3        1 4VG      0.128400
     18 N2         -0.8840    0.6160    1.0550 na        1 4VG     -0.040100
     19 C8         -3.5070   -0.8720   -1.0440 ca        1 4VG      0.579800
     20 C6         -2.2100    0.3310    0.7950 cc        1 4VG     -0.064300
     21 C5         -2.2920   -0.3820   -0.4250 cd        1 4VG     -0.260500
     22 N13        -4.6940   -0.6230   -0.4350 nb        1 4VG     -0.770000
     23 N14        -7.0430   -0.9740   -0.3360 nu        1 4VG     -0.812900
     24 C4         -0.9520   -0.5220   -0.9220 cd        1 4VG     -0.085000
     25 C32        -9.9110    0.0810   -2.6340 c3        1 4VG      0.128400
     26 C10        -4.6440   -2.0210   -2.8230 ca        1 4VG      0.460200
     27 O7          1.9010    0.3610   -1.2190 o         1 4VG     -0.644500
     28 O31       -10.9640   -0.0340   -1.6820 os        1 4VG     -0.416600
     29 C9         -3.4330   -1.5870   -2.2650 ca        1 4VG     -0.412600
     30 N18         2.1140    0.2040    1.0800 n         1 4VG     -0.470800
     31 Cl1         5.7940   -1.5200   -3.1190 cl        1 4VG     -0.090400
     32 C33        -8.5530    0.2040   -1.9680 c3        1 4VG     -0.130900
     33 N11        -5.8430   -1.8050   -2.2620 nb        1 4VG     -0.749000
     34 O27         3.0280    2.5500   -0.2660 oh        1 4VG     -0.597800
     35 H1         -1.2410    1.7210    2.7890 h1        1 4VG      0.071200
     36 H2          0.1510    2.2860    1.7460 h1        1 4VG      0.071200
     37 H3          0.0520    0.0040    3.8100 hc        1 4VG      0.058700
     38 H4          1.2280    1.3670    3.6000 hc        1 4VG      0.058700
     39 H5          0.9150   -1.2620    1.9930 h1        1 4VG      0.057200
     40 H6          2.3310   -0.6990    2.9730 h1        1 4VG      0.057200
     41 H7          3.8150    0.5280    2.2260 h1        1 4VG      0.055700
     42 H8          4.1470    0.1900   -1.5490 ha        1 4VG      0.169000
     43 H9          6.7790   -3.2280   -1.0670 ha        1 4VG      0.148000
     44 H10         6.3350   -3.2120    1.3880 ha        1 4VG      0.137000
     45 H11         4.8280   -1.4990    2.3780 ha        1 4VG      0.129000
     46 H12         4.9520    1.8890    0.1930 h1        1 4VG      0.048700
     47 H13         3.9250    2.6310    1.5180 h1        1 4VG      0.048700
     48 H14        -8.3370   -1.9400   -1.6720 h1        1 4VG      0.087700
     49 H16        -9.3860   -1.9810    0.6040 hc        1 4VG      0.058200
     50 H17       -10.8570   -2.0980   -1.3970 h1        1 4VG      0.050450
     51 H18       -11.6690   -1.0730   -0.1070 h1        1 4VG      0.050450
     52 H19        -3.0160    0.6430    1.4630 h4        1 4VG      0.187000
     53 H20        -7.0050   -0.2840    0.3880 hn        1 4VG      0.415800
     54 H21        -0.6360   -1.0020   -1.8450 ha        1 4VG      0.171000
     55 H22       -10.1650    1.0130   -3.2050 h1        1 4VG      0.050450
     56 H23        -9.9320   -0.8050   -3.3230 h1        1 4VG      0.050450
     57 H24        -4.6640   -2.5730   -3.7810 h4        1 4VG      0.024100
     58 H25        -2.4740   -1.7850   -2.7540 ha        1 4VG      0.155000
     59 H26        -8.5120    1.1540   -1.3760 hc        1 4VG      0.058200
     60 H27        -7.7610    0.2490   -2.7580 hc        1 4VG      0.058200
     61 H28         3.0790    2.0790   -1.1100 ho        1 4VG      0.426000
     62 H15        -9.4850   -0.1690    0.6150 hc        1 4VG      0.058200
@<TRIPOS>BOND
     1    1    2 1   
     2    1   18 1   
     3    1   24 2   
     4    2   27 2   
     5    2   30 1   
     6    3   22 ar  
     7    3   23 1   
     8    3   33 ar  
     9    4    5 1   
    10    4   18 1   
    11    4   35 1   
    12    4   36 1   
    13    5    6 1   
    14    5   37 1   
    15    5   38 1   
    16    6   30 1   
    17    6   39 1   
    18    6   40 1   
    19    7    8 1   
    20    7   14 1   
    21    7   30 1   
    22    7   41 1   
    23    8    9 ar  
    24    8   13 ar  
    25    9   10 ar  
    26    9   42 1   
    27   10   11 ar  
    28   10   31 1   
    29   11   12 ar  
    30   11   43 1   
    31   12   13 ar  
    32   12   44 1   
    33   13   45 1   
    34   14   34 1   
    35   14   46 1   
    36   14   47 1   
    37   15   16 1   
    38   15   23 1   
    39   15   32 1   
    40   15   48 1   
    41   16   17 1   
    42   16   49 1   
    43   16   62 1   
    44   17   28 1   
    45   17   50 1   
    46   17   51 1   
    47   18   20 1   
    48   19   21 1   
    49   19   22 ar  
    50   19   29 ar  
    51   20   21 2   
    52   20   52 1   
    53   21   24 1   
    54   23   53 1   
    55   24   54 1   
    56   25   28 1   
    57   25   32 1   
    58   25   55 1   
    59   25   56 1   
    60   26   29 ar  
    61   26   33 ar  
    62   26   57 1   
    63   29   58 1   
    64   32   59 1   
    65   32   60 1   
    66   34   61 1   
@<TRIPOS>SUBSTRUCTURE
     1 4VG         1 TEMP              0 ****  ****    0 ROOT
