@<TRIPOS>MOLECULE
4VJ
   62    66     1     0     0
SMALL
bcc


@<TRIPOS>ATOM
      1 O2          0.2630    0.3990   -0.2950 o         1 4VJ     -0.631500
      2 C11         4.5600   -0.1660   -0.1600 cc        1 4VJ     -0.259500
      3 C12         4.4920   -0.5230    1.2070 cd        1 4VJ     -0.065300
      4 C13         5.7310   -0.2670   -1.0080 ca        1 4VJ      0.578800
      5 C14         5.6150   -0.0110   -2.3970 ca        1 4VJ     -0.412600
      6 C15         6.7870   -0.1080   -3.1610 ca        1 4VJ      0.460200
      7 C16         8.0140   -0.6980   -1.2870 ca        1 4VJ      0.864900
      8 C17         2.6980   -0.5750    2.9750 c3        1 4VJ      0.034300
      9 C18         2.1540    0.6340    3.7310 c3        1 4VJ     -0.113400
     10 C19         1.4550    1.6680    2.8460 c3        1 4VJ      0.086000
     11 C20        -0.8920    1.4120    1.9880 c3        1 4VJ      0.110000
     12 C21        -1.5940    0.5440    3.0090 ca        1 4VJ     -0.091300
     13 C22        -2.6000   -0.3210    2.5610 ca        1 4VJ     -0.111000
     14 C23        -3.2830   -1.1260    3.4770 ca        1 4VJ      0.017400
     15 C24        -2.9680   -1.0860    4.8390 ca        1 4VJ     -0.120000
     16 C25        -1.9590   -0.2310    5.2770 ca        1 4VJ     -0.125000
     17 C26        -1.2760    0.5790    4.3700 ca        1 4VJ     -0.136000
     18 C27        -1.2530    2.9050    2.1930 c3        1 4VJ      0.117400
     19 C28        10.4800   -0.8980   -1.3420 c3        1 4VJ      0.208500
     20 C29        11.6440   -1.6510   -0.6630 c3        1 4VJ     -0.122400
     21 C30        12.8970   -0.8120   -0.9310 c3        1 4VJ      0.139100
     22 CL1        -4.5080   -2.1680    2.9280 cl        1 4VJ     -0.087400
     23 N3          7.9840   -0.4340   -2.6520 nb        1 4VJ     -0.748000
     24 N5          0.5300    1.1410    1.8730 n         1 4VJ     -0.471800
     25 C31        12.4340    0.5940   -1.3290 c3        1 4VJ     -0.077400
     26 C8          2.4450    0.2330    0.6040 cd        1 4VJ     -0.195900
     27 O34        13.7020   -0.6820    0.2310 oh        1 4VJ     -0.597800
     28 C32        10.9160    0.5840   -1.3590 c3        1 4VJ     -0.110400
     29 C10         3.2580    0.3040   -0.5390 cc        1 4VJ     -0.086000
     30 C9          1.0150    0.5880    0.6830 c         1 4VJ      0.744100
     31 N1          3.2110   -0.2800    1.6660 na        1 4VJ     -0.039100
     32 N7          9.2090   -1.1780   -0.7070 nh        1 4VJ     -0.809900
     33 O6         -1.0250    3.3960    3.4950 oh        1 4VJ     -0.602800
     34 N4          6.9180   -0.6000   -0.4410 nb        1 4VJ     -0.769000
     35 H1          5.2740   -0.9330    1.8500 h4        1 4VJ      0.187000
     36 H2          4.6550    0.2500   -2.8510 ha        1 4VJ      0.155000
     37 H3          6.7740    0.0910   -4.2490 h4        1 4VJ      0.024100
     38 H4          3.5240   -1.0480    3.5800 h1        1 4VJ      0.067200
     39 H5          1.8700   -1.3350    2.8580 h1        1 4VJ      0.067200
     40 H6          2.9900    1.1620    4.2600 hc        1 4VJ      0.058200
     41 H7          1.4440    0.2470    4.5090 hc        1 4VJ      0.058200
     42 H8          2.2510    2.2600    2.3030 h1        1 4VJ      0.069700
     43 H9          0.9080    2.3890    3.5210 h1        1 4VJ      0.069700
     44 H10        -1.3450    1.1570    0.9720 h1        1 4VJ      0.103700
     45 H11        -2.8500   -0.3740    1.4890 ha        1 4VJ      0.157000
     46 H12        -3.5070   -1.7230    5.5560 ha        1 4VJ      0.150000
     47 H13        -1.7020   -0.1940    6.3460 ha        1 4VJ      0.139000
     48 H14        -0.4790    1.2490    4.7310 ha        1 4VJ      0.142000
     49 H15        -0.6150    3.5530    1.5330 h1        1 4VJ      0.060700
     50 H16        -2.3330    3.0330    1.9120 h1        1 4VJ      0.060700
     51 H17        10.4130   -1.2580   -2.4120 h1        1 4VJ      0.086700
     52 H18        11.4890   -1.7500    0.4410 hc        1 4VJ      0.056700
     53 H19        11.7420   -2.6780   -1.0900 hc        1 4VJ      0.056700
     54 H20        13.5110   -1.2760   -1.7520 h1        1 4VJ      0.036700
     55 H21        12.8180    1.3450   -0.5930 hc        1 4VJ      0.059200
     56 H22        12.8520    0.8560   -2.3330 hc        1 4VJ      0.059200
     57 H23        13.9670   -1.5730    0.4880 ho        1 4VJ      0.399000
     58 H24        10.5230    1.0900   -2.2750 hc        1 4VJ      0.054700
     59 H25        10.5110    1.1310   -0.4700 hc        1 4VJ      0.054700
     60 H26         2.9400    0.6500   -1.5200 ha        1 4VJ      0.170000
     61 H27         9.2340   -1.0980    0.2910 hn        1 4VJ      0.415800
     62 H28        -1.6870    2.9980    4.0760 ho        1 4VJ      0.406000
@<TRIPOS>BOND
     1    1   30 2   
     2    2    3 2   
     3    2    4 1   
     4    2   29 1   
     5    3   31 1   
     6    3   35 1   
     7    4    5 ar  
     8    4   34 ar  
     9    5    6 ar  
    10    5   36 1   
    11    6   23 ar  
    12    6   37 1   
    13    7   23 ar  
    14    7   32 1   
    15    7   34 ar  
    16    8    9 1   
    17    8   31 1   
    18    8   38 1   
    19    8   39 1   
    20    9   10 1   
    21    9   40 1   
    22    9   41 1   
    23   10   24 1   
    24   10   42 1   
    25   10   43 1   
    26   11   12 1   
    27   11   18 1   
    28   11   24 1   
    29   11   44 1   
    30   12   13 ar  
    31   12   17 ar  
    32   13   14 ar  
    33   13   45 1   
    34   14   15 ar  
    35   14   22 1   
    36   15   16 ar  
    37   15   46 1   
    38   16   17 ar  
    39   16   47 1   
    40   17   48 1   
    41   18   33 1   
    42   18   49 1   
    43   18   50 1   
    44   19   20 1   
    45   19   28 1   
    46   19   32 1   
    47   19   51 1   
    48   20   21 1   
    49   20   52 1   
    50   20   53 1   
    51   21   25 1   
    52   21   27 1   
    53   21   54 1   
    54   24   30 1   
    55   25   28 1   
    56   25   55 1   
    57   25   56 1   
    58   26   29 2   
    59   26   30 1   
    60   26   31 1   
    61   27   57 1   
    62   28   58 1   
    63   28   59 1   
    64   29   60 1   
    65   32   61 1   
    66   33   62 1   
@<TRIPOS>SUBSTRUCTURE
     1 4VJ         1 TEMP              0 ****  ****    0 ROOT
