@<TRIPOS>MOLECULE
4VJ
   62    66     1     0     0
SMALL
bcc


@<TRIPOS>ATOM
      1 O2          0.2640    0.4100   -0.2930 o         1 4VJ     -0.631500
      2 C11         4.5590   -0.1620   -0.1610 cc        1 4VJ     -0.259500
      3 C12         4.4900   -0.5200    1.2060 cd        1 4VJ     -0.065300
      4 C13         5.7300   -0.2640   -1.0090 ca        1 4VJ      0.578800
      5 C14         5.6150   -0.0040   -2.3970 ca        1 4VJ     -0.412600
      6 C15         6.7860   -0.1020   -3.1620 ca        1 4VJ      0.460200
      7 C16         8.0110   -0.7010   -1.2900 ca        1 4VJ      0.864900
      8 C17         2.6980   -0.5710    2.9740 c3        1 4VJ      0.034300
      9 C18         2.1550    0.6380    3.7320 c3        1 4VJ     -0.113400
     10 C19         1.4580    1.6730    2.8490 c3        1 4VJ      0.086000
     11 C20        -0.8910    1.4220    1.9910 c3        1 4VJ      0.110000
     12 C21        -1.5930    0.5530    3.0110 ca        1 4VJ     -0.091300
     13 C22        -2.6000   -0.3110    2.5630 ca        1 4VJ     -0.111000
     14 C23        -3.2830   -1.1160    3.4790 ca        1 4VJ      0.017400
     15 C24        -2.9670   -1.0770    4.8410 ca        1 4VJ     -0.120000
     16 C25        -1.9580   -0.2230    5.2790 ca        1 4VJ     -0.125000
     17 C26        -1.2740    0.5860    4.3720 ca        1 4VJ     -0.136000
     18 C27        -1.2490    2.9140    2.1980 c3        1 4VJ      0.117400
     19 C28        10.4760   -0.9090   -1.3460 c3        1 4VJ      0.208500
     20 C29        11.6380   -1.6690   -0.6700 c3        1 4VJ     -0.122400
     21 C30        12.8940   -0.8340   -0.9360 c3        1 4VJ      0.139100
     22 Cl1        -4.5100   -2.1560    2.9290 cl        1 4VJ     -0.087400
     23 N3          7.9820   -0.4340   -2.6540 nb        1 4VJ     -0.748000
     24 N5          0.5320    1.1490    1.8750 n         1 4VJ     -0.471800
     25 C31        12.4370    0.5760   -1.3300 c3        1 4VJ     -0.077400
     26 C8          2.4450    0.2390    0.6040 cd        1 4VJ     -0.195900
     27 O34        13.7010   -0.7090    0.2260 oh        1 4VJ     -0.597800
     28 C32        10.9180    0.5720   -1.3590 c3        1 4VJ     -0.110400
     29 C10         3.2580    0.3110   -0.5390 cc        1 4VJ     -0.086000
     30 C9          1.0150    0.5970    0.6850 c         1 4VJ      0.744100
     31 N1          3.2110   -0.2760    1.6650 na        1 4VJ     -0.039100
     32 N7          9.2050   -1.1870   -0.7100 nu        1 4VJ     -0.809900
     33 O6         -1.0200    3.4040    3.5010 oh        1 4VJ     -0.602800
     34 N4          6.9160   -0.6020   -0.4430 nb        1 4VJ     -0.769000
     35 H1          5.2720   -0.9330    1.8490 h4        1 4VJ      0.187000
     36 H2          4.6550    0.2610   -2.8500 ha        1 4VJ      0.155000
     37 H3          6.7740    0.0990   -4.2490 h4        1 4VJ      0.024100
     38 H4          3.5220   -1.0460    3.5790 h1        1 4VJ      0.067200
     39 H5          1.8680   -1.3300    2.8570 h1        1 4VJ      0.067200
     40 H6          2.9920    1.1640    4.2620 hc        1 4VJ      0.058200
     41 H7          1.4450    0.2510    4.5100 hc        1 4VJ      0.058200
     42 H8          2.2540    2.2650    2.3060 h1        1 4VJ      0.069700
     43 H9          0.9120    2.3950    3.5240 h1        1 4VJ      0.069700
     44 H10        -1.3440    1.1680    0.9750 h1        1 4VJ      0.103700
     45 H11        -2.8500   -0.3620    1.4910 ha        1 4VJ      0.157000
     46 H12        -3.5070   -1.7150    5.5570 ha        1 4VJ      0.150000
     47 H13        -1.7000   -0.1880    6.3480 ha        1 4VJ      0.139000
     48 H14        -0.4760    1.2550    4.7340 ha        1 4VJ      0.142000
     49 H15        -0.6110    3.5620    1.5380 h1        1 4VJ      0.060700
     50 H16        -2.3290    3.0440    1.9180 h1        1 4VJ      0.060700
     51 H17        10.4080   -1.2660   -2.4170 h1        1 4VJ      0.086700
     52 H18        11.7320   -2.6950   -1.0990 hc        1 4VJ      0.056700
     53 H19        11.4830   -1.7690    0.4350 hc        1 4VJ      0.056700
     54 H20        13.5050   -1.2980   -1.7580 h1        1 4VJ      0.036700
     55 H21        12.8540    0.8390   -2.3330 hc        1 4VJ      0.059200
     56 H22        12.8230    1.3230   -0.5920 hc        1 4VJ      0.059200
     57 H23        13.9620   -1.6020    0.4800 ho        1 4VJ      0.399000
     58 H24        10.5160    1.1170   -0.4690 hc        1 4VJ      0.054700
     59 H25        10.5270    1.0810   -2.2740 hc        1 4VJ      0.054700
     60 H26         2.9400    0.6590   -1.5190 ha        1 4VJ      0.170000
     61 H27         9.2300   -1.1090    0.2870 hn        1 4VJ      0.415800
     62 H28        -1.6820    3.0060    4.0810 ho        1 4VJ      0.406000
@<TRIPOS>BOND
     1    1   30 2   
     2    2    3 2   
     3    2    4 1   
     4    2   29 1   
     5    3   31 1   
     6    3   35 1   
     7    4    5 ar  
     8    4   34 ar  
     9    5    6 ar  
    10    5   36 1   
    11    6   23 ar  
    12    6   37 1   
    13    7   23 ar  
    14    7   32 1   
    15    7   34 ar  
    16    8    9 1   
    17    8   31 1   
    18    8   38 1   
    19    8   39 1   
    20    9   10 1   
    21    9   40 1   
    22    9   41 1   
    23   10   24 1   
    24   10   42 1   
    25   10   43 1   
    26   11   12 1   
    27   11   18 1   
    28   11   24 1   
    29   11   44 1   
    30   12   13 ar  
    31   12   17 ar  
    32   13   14 ar  
    33   13   45 1   
    34   14   15 ar  
    35   14   22 1   
    36   15   16 ar  
    37   15   46 1   
    38   16   17 ar  
    39   16   47 1   
    40   17   48 1   
    41   18   33 1   
    42   18   49 1   
    43   18   50 1   
    44   19   20 1   
    45   19   28 1   
    46   19   32 1   
    47   19   51 1   
    48   20   21 1   
    49   20   52 1   
    50   20   53 1   
    51   21   25 1   
    52   21   27 1   
    53   21   54 1   
    54   24   30 1   
    55   25   28 1   
    56   25   55 1   
    57   25   56 1   
    58   26   29 2   
    59   26   30 1   
    60   26   31 1   
    61   27   57 1   
    62   28   58 1   
    63   28   59 1   
    64   29   60 1   
    65   32   61 1   
    66   33   62 1   
@<TRIPOS>SUBSTRUCTURE
     1 4VJ         1 TEMP              0 ****  ****    0 ROOT
