@<TRIPOS>MOLECULE
4VO
   64    70     1     0     0
SMALL
bcc


@<TRIPOS>ATOM
      1 CAP         1.5270   -0.0500    0.1330 c3        1 4VO     -0.072400
      2 CAO         2.0930    1.2320    0.7430 c3        1 4VO      0.167800
      3 NBB         1.5610    2.4260    0.1020 n3        1 4VO     -0.731600
      4 CAB         2.1800    3.6390    0.5820 c3        1 4VO      0.160100
      5 CAZ         0.0990    2.4580    0.1160 c3        1 4VO      0.199500
      6 CAQ        -0.5390    2.5160    1.5200 c3        1 4VO     -0.061100
      7 CAW        -0.7270    1.1900    2.1720 ca        1 4VO     -0.101300
      8 CAM        -1.1590    1.1910    3.5050 ca        1 4VO     -0.096000
      9 CAL        -1.3180    0.0070    4.2160 ca        1 4VO     -0.211000
     10 CAU        -1.0180   -1.2030    3.5790 ca        1 4VO      0.122100
     11 OAD        -1.1160   -2.4230    4.2120 oh        1 4VO     -0.498100
     12 CAN        -0.5900   -1.2280    2.2440 ca        1 4VO     -0.160000
     13 CAX        -0.4780   -0.0370    1.5220 ca        1 4VO     -0.021300
     14 CBF        -0.0110   -0.0550    0.0860 c3        1 4VO     -0.016700
     15 CBA        -0.5810   -1.2830   -0.7150 c3        1 4VO      0.155500
     16 NAS         0.3660   -1.9740   -1.5920 n3        1 4VO     -0.802200
     17 CBE        -1.6700   -0.7610   -1.7380 c3        1 4VO      0.179000
     18 OAT        -2.3980   -1.7930   -2.3900 os        1 4VO     -0.396600
     19 CAA        -3.0130   -2.7280   -1.5180 c3        1 4VO      0.111700
     20 CAF        -2.6020    0.2360   -1.1340 c2        1 4VO     -0.181200
     21 CAE        -2.0050    1.2900   -0.5640 c2        1 4VO     -0.156200
     22 CBD        -0.5000    1.2430   -0.6220 c3        1 4VO     -0.009800
     23 CAR        -0.1480    1.1850   -2.1220 c3        1 4VO     -0.065400
     24 CBC        -0.6780   -0.1110   -2.7720 c3        1 4VO     -0.036000
     25 CAC        -1.3040    0.1590   -4.1120 c3        1 4VO     -0.076100
     26 CAY         0.4840   -1.1730   -2.8300 c3        1 4VO      0.218800
     27 CAV         0.4790   -2.0220   -4.0720 ca        1 4VO     -0.070300
     28 CAJ        -0.3710   -3.1230   -4.2210 ca        1 4VO     -0.111000
     29 CAH        -0.3210   -3.8970   -5.3810 ca        1 4VO     -0.140000
     30 CAG         0.5740   -3.5780   -6.4010 ca        1 4VO     -0.130000
     31 CAI         1.4220   -2.4800   -6.2600 ca        1 4VO     -0.140000
     32 CAK         1.3780   -1.7080   -5.1010 ca        1 4VO     -0.111000
     33 H1          1.9580   -0.1340   -0.8980 hc        1 4VO      0.052700
     34 H2          1.8810   -0.9200    0.7430 hc        1 4VO      0.052700
     35 H3          3.2110    1.2330    0.5970 h1        1 4VO      0.037700
     36 H4          1.8940    1.2320    1.8550 h1        1 4VO      0.037700
     37 H6          3.2700    3.6020    0.3190 h1        1 4VO      0.032367
     38 H7          2.0920    3.7880    1.6930 h1        1 4VO      0.032367
     39 H8          1.7160    4.5210    0.0670 h1        1 4VO      0.032367
     40 H9         -0.2080    3.3910   -0.4430 h1        1 4VO      0.061700
     41 H10         0.0890    3.1620    2.1930 hc        1 4VO      0.052200
     42 H11        -1.5370    3.0260    1.4390 hc        1 4VO      0.052200
     43 H12        -1.3710    2.1510    4.0000 ha        1 4VO      0.131000
     44 H13        -1.6620    0.0210    5.2590 ha        1 4VO      0.134000
     45 H14        -1.4170   -2.2630    5.1180 ho        1 4VO      0.419000
     46 H15        -0.3320   -2.2000    1.7980 ha        1 4VO      0.152000
     47 H16        -1.0280   -2.0390   -0.0210 h1        1 4VO      0.083700
     48 H17         1.2570   -2.1190   -1.1630 hn        1 4VO      0.366800
     49 H19        -2.2540   -3.4560   -1.1400 h1        1 4VO      0.036700
     50 H20        -3.5220   -2.2200   -0.6630 h1        1 4VO      0.036700
     51 H21        -3.7620   -3.2510   -2.1650 h1        1 4VO      0.036700
     52 H22        -3.6810    0.0700   -1.2170 ha        1 4VO      0.147000
     53 H24        -2.5220    2.1390   -0.1110 ha        1 4VO      0.139000
     54 H26        -0.6160    2.0720   -2.6230 hc        1 4VO      0.059200
     55 H27         0.9580    1.2750   -2.2620 hc        1 4VO      0.059200
     56 H28        -0.5380    0.5470   -4.8260 hc        1 4VO      0.046367
     57 H29        -1.7410   -0.7840   -4.5270 hc        1 4VO      0.046367
     58 H30        -2.1230    0.9120   -4.0120 hc        1 4VO      0.046367
     59 H31         1.4680   -0.6090   -2.8410 h1        1 4VO      0.033700
     60 H32        -1.0900   -3.3680   -3.4230 ha        1 4VO      0.141500
     61 H33        -0.9930   -4.7610   -5.4890 ha        1 4VO      0.127500
     62 H34         0.6120   -4.1900   -7.3140 ha        1 4VO      0.127000
     63 H35         2.1280   -2.2240   -7.0620 ha        1 4VO      0.127500
     64 H36         2.0540   -0.8460   -4.9980 ha        1 4VO      0.141500
@<TRIPOS>BOND
     1    1    2 1   
     2    1   14 1   
     3    1   33 1   
     4    1   34 1   
     5    2    3 1   
     6    2   35 1   
     7    2   36 1   
     8    3    4 1   
     9    3    5 1   
    10    4   37 1   
    11    4   38 1   
    12    4   39 1   
    13    5    6 1   
    14    5   22 1   
    15    5   40 1   
    16    6    7 1   
    17    6   41 1   
    18    6   42 1   
    19    7    8 ar  
    20    7   13 ar  
    21    8    9 ar  
    22    8   43 1   
    23    9   10 ar  
    24    9   44 1   
    25   10   11 1   
    26   10   12 ar  
    27   11   45 1   
    28   12   13 ar  
    29   12   46 1   
    30   13   14 1   
    31   14   15 1   
    32   14   22 1   
    33   15   16 1   
    34   15   17 1   
    35   15   47 1   
    36   16   26 1   
    37   16   48 1   
    38   17   18 1   
    39   17   20 1   
    40   17   24 1   
    41   18   19 1   
    42   19   49 1   
    43   19   50 1   
    44   19   51 1   
    45   20   21 2   
    46   20   52 1   
    47   21   22 1   
    48   21   53 1   
    49   22   23 1   
    50   23   24 1   
    51   23   54 1   
    52   23   55 1   
    53   24   25 1   
    54   24   26 1   
    55   25   56 1   
    56   25   57 1   
    57   25   58 1   
    58   26   27 1   
    59   26   59 1   
    60   27   28 ar  
    61   27   32 ar  
    62   28   29 ar  
    63   28   60 1   
    64   29   30 ar  
    65   29   61 1   
    66   30   31 ar  
    67   30   62 1   
    68   31   32 ar  
    69   31   63 1   
    70   32   64 1   
@<TRIPOS>SUBSTRUCTURE
     1 4VO         1 TEMP              0 ****  ****    0 ROOT
