@<TRIPOS>MOLECULE
4VQ
   49    51     1     0     0
SMALL
bcc


@<TRIPOS>ATOM
      1 CAD        -4.5850    1.3700   -2.4900 c3        1 4VQ     -0.045800
      2 CAT        -4.2430    0.6530   -1.2400 ca        1 4VQ     -0.051300
      3 CAK        -2.9780    0.0620   -1.1090 ca        1 4VQ     -0.122000
      4 CBA        -5.1660    0.5650   -0.1860 ca        1 4VQ     -0.109600
      5 CAS        -6.5720    1.1530   -0.2510 c         1 4VQ      0.907200
      6 OAG        -6.8180    2.0620   -1.0920 o         1 4VQ     -0.825800
      7 OAF        -7.4250    0.6910    0.5600 o         1 4VQ     -0.825800
      8 CAI        -4.7940   -0.1010    0.9900 ca        1 4VQ     -0.108000
      9 CAH        -3.5410   -0.6880    1.1210 ca        1 4VQ     -0.170000
     10 CAV        -2.6290   -0.6200    0.0580 cp        1 4VQ     -0.188500
     11 CBB        -1.3170   -1.2760    0.1810 cp        1 4VQ      0.334500
     12 NAO        -0.1950   -0.5490    0.1230 nb        1 4VQ     -0.588000
     13 CAU        -1.2730   -2.7300    0.3800 ca        1 4VQ      0.560900
     14 NAE        -2.4290   -3.4750    0.2890 nh        1 4VQ     -0.945500
     15 NAN        -0.0720   -3.3590    0.5900 nb        1 4VQ     -0.733000
     16 CAJ         1.0290   -2.5910    0.5380 ca        1 4VQ      0.332900
     17 CAX         0.9960   -1.1980    0.2860 cp        1 4VQ      0.256500
     18 CAW         2.2510   -0.4360    0.2210 cp        1 4VQ     -0.048500
     19 CAM         3.3970   -1.0430   -0.3070 ca        1 4VQ     -0.207500
     20 CAL         2.3050    0.8790    0.6950 ca        1 4VQ     -0.207500
     21 CAY         3.5100    1.5900    0.6380 ca        1 4VQ      0.128600
     22 OAP         3.6630    2.8790    1.1120 os        1 4VQ     -0.322400
     23 CAA         2.4580    3.5840    1.3980 c3        1 4VQ      0.112200
     24 CBC         4.6740    0.9960    0.1070 ca        1 4VQ      0.034100
     25 OAR         5.8420    1.7150   -0.0730 os        1 4VQ     -0.312900
     26 CAC         6.5430    1.9770    1.1430 c3        1 4VQ      0.116700
     27 CAZ         4.6040   -0.3370   -0.3490 ca        1 4VQ      0.128600
     28 OAQ         5.7940   -0.8720   -0.8050 os        1 4VQ     -0.322400
     29 CAB         5.6810   -2.0620   -1.5780 c3        1 4VQ      0.112200
     30 HAD1       -5.5570    0.9900   -2.8950 hc        1 4VQ      0.047033
     31 HAD2       -4.7350    2.4580   -2.2670 hc        1 4VQ      0.047033
     32 HAD3       -3.7880    1.2550   -3.2640 hc        1 4VQ      0.047033
     33 HAK        -2.2530    0.1340   -1.9330 ha        1 4VQ      0.123000
     34 HAI        -5.5350   -0.1570    1.8060 ha        1 4VQ      0.157000
     35 HAH        -3.2590   -1.1890    2.0570 ha        1 4VQ      0.109000
     36 HAE1       -3.2910   -2.9780    0.3180 hn        1 4VQ      0.437300
     37 HAE2       -2.4240   -4.4120    0.6100 hn        1 4VQ      0.437300
     38 HAJ         1.9820   -3.1160    0.7230 h4        1 4VQ      0.019100
     39 HAM         3.3410   -2.0690   -0.6970 ha        1 4VQ      0.152500
     40 HAL         1.3970    1.3510    1.0980 ha        1 4VQ      0.152500
     41 HAA1        2.8120    4.6240    1.6110 h1        1 4VQ      0.044867
     42 HAA2        1.7690    3.5720    0.5190 h1        1 4VQ      0.044867
     43 HAA3        1.9570    3.1470    2.2960 h1        1 4VQ      0.044867
     44 HAC1        5.9010    2.5650    1.8430 h1        1 4VQ      0.037367
     45 HAC2        6.8660    1.0200    1.6180 h1        1 4VQ      0.037367
     46 HAC3        7.4280    2.5750    0.8140 h1        1 4VQ      0.037367
     47 HAB1        5.3820   -2.9200   -0.9280 h1        1 4VQ      0.044867
     48 HAB2        4.9510   -1.9330   -2.4130 h1        1 4VQ      0.044867
     49 HAB3        6.7160   -2.2130   -1.9760 h1        1 4VQ      0.044867
@<TRIPOS>BOND
     1    1    2 1   
     2    1   30 1   
     3    1   31 1   
     4    1   32 1   
     5    2    3 ar  
     6    2    4 ar  
     7    3   10 ar  
     8    3   33 1   
     9    4    5 1   
    10    4    8 ar  
    11    5    6 1   
    12    5    7 1   
    13    8    9 ar  
    14    8   34 1   
    15    9   10 ar  
    16    9   35 1   
    17   10   11 1   
    18   11   12 ar  
    19   11   13 ar  
    20   12   17 ar  
    21   13   14 1   
    22   13   15 ar  
    23   14   36 1   
    24   14   37 1   
    25   15   16 ar  
    26   16   17 ar  
    27   16   38 1   
    28   17   18 1   
    29   18   19 ar  
    30   18   20 ar  
    31   19   27 ar  
    32   19   39 1   
    33   20   21 ar  
    34   20   40 1   
    35   21   22 1   
    36   21   24 ar  
    37   22   23 1   
    38   23   41 1   
    39   23   42 1   
    40   23   43 1   
    41   24   25 1   
    42   24   27 ar  
    43   25   26 1   
    44   26   44 1   
    45   26   45 1   
    46   26   46 1   
    47   27   28 1   
    48   28   29 1   
    49   29   47 1   
    50   29   48 1   
    51   29   49 1   
@<TRIPOS>SUBSTRUCTURE
     1 4VQ         1 TEMP              0 ****  ****    0 ROOT
