@<TRIPOS>MOLECULE
4VQ
   49    51     1     0     0
SMALL
bcc


@<TRIPOS>ATOM
      1 CAD         0.0670    1.1790    0.1590 c3        1 4VQ     -0.045800
      2 CAT         1.4310    0.6110    0.0560 ca        1 4VQ     -0.051300
      3 CAK         2.2060    0.4640    1.2150 ca        1 4VQ     -0.122000
      4 CBA         1.9520    0.2130   -1.1850 ca        1 4VQ     -0.109600
      5 CAS         1.1920    0.3620   -2.5000 c         1 4VQ      0.907200
      6 OAG        -0.0630    0.4870   -2.4730 o         1 4VQ     -0.825800
      7 OAF         1.8780    0.3450   -3.5630 o         1 4VQ     -0.825800
      8 CAI         3.2380   -0.3430   -1.2370 ca        1 4VQ     -0.108000
      9 CAH         4.0070   -0.4900   -0.0880 ca        1 4VQ     -0.170000
     10 CAV         3.4940   -0.0690    1.1470 cp        1 4VQ     -0.188500
     11 CBB         4.3240   -0.1870    2.3580 cp        1 4VQ      0.334500
     12 NAO         3.9240   -0.9610    3.3730 nb        1 4VQ     -0.588000
     13 CAU         5.5920    0.5490    2.4160 ca        1 4VQ      0.560900
     14 NAE         5.9130    1.4530    1.4250 nv        1 4VQ     -0.945500
     15 NAN         6.4320    0.3890    3.4890 nb        1 4VQ     -0.733000
     16 CAJ         6.0000   -0.4080    4.4800 ca        1 4VQ      0.332900
     17 CAX         4.7490   -1.0720    4.4560 cp        1 4VQ      0.256500
     18 CAW         4.3420   -1.9070    5.5950 cp        1 4VQ     -0.048500
     19 CAM         4.7190   -1.5330    6.8910 ca        1 4VQ     -0.207500
     20 CAL         3.5960   -3.0720    5.3870 ca        1 4VQ     -0.207500
     21 CAY         3.2250   -3.8650    6.4780 ca        1 4VQ      0.128600
     22 OAP         2.5180   -5.0470    6.3640 os        1 4VQ     -0.322400
     23 CAA         1.9100   -5.2880    5.0970 c3        1 4VQ      0.112200
     24 CBC         3.5930   -3.5030    7.7910 ca        1 4VQ      0.034100
     25 OAR         3.1360   -4.2000    8.8950 os        1 4VQ     -0.312900
     26 CAC         3.7760   -5.4640    9.0750 c3        1 4VQ      0.116700
     27 CAZ         4.3610   -2.3350    7.9800 ca        1 4VQ      0.128600
     28 OAQ         4.7310   -2.0710    9.2850 os        1 4VQ     -0.322400
     29 CAB         5.1920   -0.7490    9.5420 c3        1 4VQ      0.112200
     30 HAD1       -0.0510    2.0230   -0.5670 hc        1 4VQ      0.047033
     31 HAD2       -0.6850    0.4010   -0.1300 hc        1 4VQ      0.047033
     32 HAD3       -0.1510    1.5430    1.1920 hc        1 4VQ      0.047033
     33 HAK         1.7960    0.7720    2.1890 ha        1 4VQ      0.123000
     34 HAI         3.6260   -0.6500   -2.2230 ha        1 4VQ      0.157000
     35 HAH         5.0050   -0.9460   -0.1440 ha        1 4VQ      0.109000
     36 HAE1        6.8410    1.7970    1.3690 hn        1 4VQ      0.437300
     37 HAE2        5.3800    1.4110    0.5860 hn        1 4VQ      0.437300
     38 HAJ         6.6970   -0.5320    5.3270 h4        1 4VQ      0.019100
     39 HAM         5.2860   -0.6050    7.0480 ha        1 4VQ      0.152500
     40 HAL         3.2960   -3.3520    4.3660 ha        1 4VQ      0.152500
     41 HAA1        1.2750   -4.4230    4.7870 h1        1 4VQ      0.044867
     42 HAA2        1.2830   -6.1960    5.2800 h1        1 4VQ      0.044867
     43 HAA3        2.6910   -5.4980    4.3270 h1        1 4VQ      0.044867
     44 HAC1        3.2730   -5.8870    9.9800 h1        1 4VQ      0.037367
     45 HAC2        4.8680   -5.3240    9.2580 h1        1 4VQ      0.037367
     46 HAC3        3.6070   -6.1160    8.1840 h1        1 4VQ      0.037367
     47 HAB1        4.4640    0.0110    9.1700 h1        1 4VQ      0.044867
     48 HAB2        5.2680   -0.7130   10.6580 h1        1 4VQ      0.044867
     49 HAB3        6.1960   -0.5900    9.0770 h1        1 4VQ      0.044867
@<TRIPOS>BOND
     1    1    2 1   
     2    1   30 1   
     3    1   31 1   
     4    1   32 1   
     5    2    3 ar  
     6    2    4 ar  
     7    3   10 ar  
     8    3   33 1   
     9    4    5 1   
    10    4    8 ar  
    11    5    6 1   
    12    5    7 1   
    13    8    9 ar  
    14    8   34 1   
    15    9   10 ar  
    16    9   35 1   
    17   10   11 1   
    18   11   12 ar  
    19   11   13 ar  
    20   12   17 ar  
    21   13   14 1   
    22   13   15 ar  
    23   14   36 1   
    24   14   37 1   
    25   15   16 ar  
    26   16   17 ar  
    27   16   38 1   
    28   17   18 1   
    29   18   19 ar  
    30   18   20 ar  
    31   19   27 ar  
    32   19   39 1   
    33   20   21 ar  
    34   20   40 1   
    35   21   22 1   
    36   21   24 ar  
    37   22   23 1   
    38   23   41 1   
    39   23   42 1   
    40   23   43 1   
    41   24   25 1   
    42   24   27 ar  
    43   25   26 1   
    44   26   44 1   
    45   26   45 1   
    46   26   46 1   
    47   27   28 1   
    48   28   29 1   
    49   29   47 1   
    50   29   48 1   
    51   29   49 1   
@<TRIPOS>SUBSTRUCTURE
     1 4VQ         1 TEMP              0 ****  ****    0 ROOT
