@<TRIPOS>MOLECULE
4VQ
   49    41     1     0     0
SMALL
bcc


@<TRIPOS>ATOM
      1 CAD         0.3160    0.4410   -6.1340 c3        1 4VQ     -0.188000
      2 CAT        -0.2450    1.1230   -4.8910 c2        1 4VQ     -0.056000
      3 CAK         0.4880    1.1340   -3.7070 c1        1 4VQ     -0.143000
      4 CBA        -1.5070    1.7540   -4.9430 c2        1 4VQ     -0.068000
      5 CAS        -2.3220    1.7280   -6.2450 c2        1 4VQ      0.358000
      6 OAG        -3.0550    0.7620   -6.4990 o         1 4VQ     -0.557000
      7 OAF        -2.2690    2.6800   -7.0200 o         1 4VQ     -0.557000
      8 CAI        -2.0240    2.3930   -3.8020 c1        1 4VQ     -0.120000
      9 CAH        -1.2990    2.4060   -2.6220 c1        1 4VQ     -0.146000
     10 CAV        -0.0370    1.7780   -2.5600 c1        1 4VQ     -0.029000
     11 CBB         0.7140    1.7400   -1.2630 c1        1 4VQ     -0.033000
     12 NAO         0.4230    0.8100   -0.3650 n1        1 4VQ     -0.067000
     13 CAU         1.7430    2.6880   -1.0040 c1        1 4VQ      0.096000
     14 NAE         2.0010    3.7290   -1.9390 n2        1 4VQ     -0.336000
     15 NAN         2.4230    2.6400    0.1560 n2        1 4VQ     -0.201000
     16 CAJ         2.1260    1.6920    1.0710 c1        1 4VQ     -0.067000
     17 CAX         1.1050    0.7550    0.8070 c1        1 4VQ     -0.110000
     18 CAW         0.7410   -0.1740    1.7860 c1        1 4VQ     -0.029000
     19 CAM        -0.0510    0.2170    2.8510 c1        1 4VQ     -0.163000
     20 CAL         1.1670   -1.4860    1.6860 c1        1 4VQ     -0.146000
     21 CAY         0.7980   -2.4130    2.6570 c1        1 4VQ      0.063000
     22 OAP         1.3470   -3.7370    2.6280 os        1 4VQ     -0.215000
     23 CAA         0.5650   -4.6900    1.8230 c3        1 4VQ     -0.078000
     24 CBC         0.0040   -2.0200    3.7260 c1        1 4VQ     -0.009000
     25 OAR        -0.3460   -2.9470    4.7130 o         1 4VQ     -0.216000
     26 CAC         0.5960   -3.0080    5.8350 c3        1 4VQ     -0.071000
     27 CAZ        -0.4200   -0.7140    3.8260 c2        1 4VQ      0.064000
     28 OAQ        -1.2520   -0.3130    4.9260 os        1 4VQ     -0.226000
     29 CAB        -2.6730   -0.3840    4.6520 c3        1 4VQ     -0.073000
     30 HAD1       -0.2800   -0.2970   -6.3980 hc        1 4VQ      0.087333
     31 HAD2        1.2320    0.0770   -5.9370 hc        1 4VQ      0.087333
     32 HAD3        0.3700    1.0750   -6.8450 hc        1 4VQ      0.087333
     33 HAK         1.3770    0.6860   -3.6650 ha        1 4VQ      0.119000
     34 HAI        -2.8900    2.8250   -3.8400 ha        1 4VQ      0.145000
     35 HAH        -1.6770    2.8690   -1.7980 ha        1 4VQ      0.143000
     36 HAE1        1.5790    3.7250   -2.7680 hn        1 4VQ      0.227000
     37 HAE2        2.5770    4.4530   -1.7010 hn        1 4VQ      0.227000
     38 HAJ         2.6400    1.6330    1.8990 ha        1 4VQ      0.160000
     39 HAM        -0.3620    1.1670    2.9230 ha        1 4VQ      0.148000
     40 HAL         1.7890   -1.7260    1.0260 ha        1 4VQ      0.143000
     41 HAA1        0.9890   -5.6030    1.8750 h1        1 4VQ      0.087333
     42 HAA2       -0.3960   -4.7370    2.1850 h1        1 4VQ      0.087333
     43 HAA3        0.5470   -4.3880    0.8760 h1        1 4VQ      0.087333
     44 HAC1        1.0490   -3.9310    5.8560 h1        1 4VQ      0.079667
     45 HAC2        0.1280   -2.8670    6.6480 h1        1 4VQ      0.079667
     46 HAC3        1.2810   -2.3110    5.7260 h1        1 4VQ      0.079667
     47 HAB1       -2.9340    0.3730    4.0890 h1        1 4VQ      0.081667
     48 HAB2       -2.8860   -1.2570    4.1680 h1        1 4VQ      0.081667
     49 HAB3       -3.1900   -0.3490    5.5310 h1        1 4VQ      0.081667
@<TRIPOS>BOND
     1    1    2 1   
     2    1   30 1   
     3    1   31 1   
     4    1   32 1   
     5    2    3 1   
     6    2    4 1   
     7    3   33 1   
     8    4    5 1   
     9    4    8 1   
    10    5    6 1   
    11    5    7 1   
    12    8   34 1   
    13    9   10 1   
    14    9   35 1   
    15   11   13 1   
    16   12   17 1   
    17   13   15 1   
    18   14   36 1   
    19   14   37 1   
    20   15   16 1   
    21   16   38 1   
    22   18   20 1   
    23   19   27 1   
    24   19   39 1   
    25   20   40 1   
    26   21   22 1   
    27   21   24 1   
    28   22   23 1   
    29   23   41 1   
    30   23   42 1   
    31   23   43 1   
    32   24   27 1   
    33   25   26 1   
    34   26   44 1   
    35   26   45 1   
    36   26   46 1   
    37   27   28 1   
    38   28   29 1   
    39   29   47 1   
    40   29   48 1   
    41   29   49 1   
@<TRIPOS>SUBSTRUCTURE
     1 4VQ         1 TEMP              0 ****  ****    0 ROOT
