@<TRIPOS>MOLECULE
4VQ
   50    52     1     0     0
SMALL
bcc


@<TRIPOS>ATOM
      1 CAD         0.0650    1.1890    0.1100 c3        1 4VQ     -0.059800
      2 CAT         1.4440    0.6600    0.0150 ca        1 4VQ     -0.044300
      3 CAK         2.1470    0.3210    1.1790 ca        1 4VQ     -0.094000
      4 CBA         2.0580    0.4970   -1.2370 ca        1 4VQ     -0.083600
      5 CAS         1.4300    0.9910   -2.5500 c         1 4VQ      0.910200
      6 OAG         2.2500    1.4040   -3.4120 o         1 4VQ     -0.792800
      7 OAF         0.1800    0.9580   -2.6590 o         1 4VQ     -0.792800
      8 CAI         3.3310   -0.0900   -1.3140 ca        1 4VQ     -0.100000
      9 CAH         4.0300   -0.4260   -0.1660 ca        1 4VQ     -0.199000
     10 CAV         3.4550   -0.1670    1.0930 cp        1 4VQ     -0.276500
     11 CBB         4.2660   -0.3520    2.2950 cp        1 4VQ      0.496500
     12 NAO         3.8460   -1.1170    3.3370 nb        1 4VQ     -0.613000
     13 CAU         5.5290    0.3280    2.3750 ca        1 4VQ      0.253900
     14 NAE         5.9410    1.2090    1.2730 n4        1 4VQ     -0.799300
     15 NAN         6.3720    0.2040    3.4460 nb        1 4VQ     -0.612000
     16 CAJ         5.9440   -0.5730    4.4380 ca        1 4VQ      0.285900
     17 CAX         4.6620   -1.2350    4.4070 cp        1 4VQ      0.439500
     18 CAW         4.2590   -2.0550    5.5570 cp        1 4VQ     -0.131500
     19 CAM         4.6460   -1.6610    6.8460 ca        1 4VQ     -0.184500
     20 CAL         3.5030   -3.2130    5.3610 ca        1 4VQ     -0.184500
     21 CAY         3.1380   -3.9980    6.4640 ca        1 4VQ      0.129600
     22 OAP         2.4340   -5.1760    6.3720 os        1 4VQ     -0.308400
     23 CAA         1.8170   -5.4460    5.1150 c3        1 4VQ      0.108700
     24 CBC         3.5020   -3.6100    7.7720 ca        1 4VQ      0.081100
     25 OAR         2.9980   -4.3180    8.8430 os        1 4VQ     -0.306900
     26 CAC         3.9840   -5.0390    9.5870 c3        1 4VQ      0.114700
     27 CAZ         4.2700   -2.4360    7.9460 ca        1 4VQ      0.129600
     28 OAQ         4.6270   -2.1510    9.2480 os        1 4VQ     -0.308400
     29 CAB         5.1450   -0.8460    9.4890 c3        1 4VQ      0.108700
     30 HAD1       -0.0130    2.1570   -0.4490 hc        1 4VQ      0.062367
     31 HAD2       -0.6400    0.4770   -0.3940 hc        1 4VQ      0.062367
     32 HAD3       -0.2490    1.3400    1.1710 hc        1 4VQ      0.062367
     33 HAK         1.6760    0.4580    2.1640 ha        1 4VQ      0.138000
     34 HAI         3.7620   -0.2530   -2.3170 ha        1 4VQ      0.173000
     35 HAH         4.9990   -0.9430   -0.2370 ha        1 4VQ      0.108000
     36 HAE1        5.0920    1.4810    0.7410 hn        1 4VQ      0.470800
     37 HAE2        6.5680    0.6950    0.6450 hn        1 4VQ      0.470800
     38 HAJ         6.6290   -0.6990    5.2970 h4        1 4VQ      0.059100
     39 HAM         5.2180   -0.7340    6.9930 ha        1 4VQ      0.153000
     40 HAL         3.1950   -3.5110    4.3470 ha        1 4VQ      0.153000
     41 HAA1        2.5930   -5.6610    4.3400 h1        1 4VQ      0.050700
     42 HAA2        1.1650   -4.5970    4.7980 h1        1 4VQ      0.050700
     43 HAA3        1.2050   -6.3600    5.3240 h1        1 4VQ      0.050700
     44 HAC1        4.4730   -5.8040    8.9390 h1        1 4VQ      0.047367
     45 HAC2        4.7410   -4.3370   10.0130 h1        1 4VQ      0.047367
     46 HAC3        3.3870   -5.5260   10.3980 h1        1 4VQ      0.047367
     47 HAB1        6.1540   -0.7370    9.0210 h1        1 4VQ      0.050700
     48 HAB2        4.4470   -0.0620    9.1100 h1        1 4VQ      0.050700
     49 HAB3        5.2220   -0.8030   10.6050 h1        1 4VQ      0.050700
     50 HAE3        6.4190    2.0420    1.6290 hn        1 4VQ      0.470800
@<TRIPOS>BOND
     1    1    2 1   
     2    1   30 1   
     3    1   31 1   
     4    1   32 1   
     5    2    3 ar  
     6    2    4 ar  
     7    3   10 ar  
     8    3   33 1   
     9    4    5 1   
    10    4    8 ar  
    11    5    6 1   
    12    5    7 1   
    13    8    9 ar  
    14    8   34 1   
    15    9   10 ar  
    16    9   35 1   
    17   10   11 1   
    18   11   12 ar  
    19   11   13 ar  
    20   12   17 ar  
    21   13   14 1   
    22   13   15 ar  
    23   14   36 1   
    24   14   37 1   
    25   14   50 1   
    26   15   16 ar  
    27   16   17 ar  
    28   16   38 1   
    29   17   18 1   
    30   18   19 ar  
    31   18   20 ar  
    32   19   27 ar  
    33   19   39 1   
    34   20   21 ar  
    35   20   40 1   
    36   21   22 1   
    37   21   24 ar  
    38   22   23 1   
    39   23   41 1   
    40   23   42 1   
    41   23   43 1   
    42   24   25 1   
    43   24   27 ar  
    44   25   26 1   
    45   26   44 1   
    46   26   45 1   
    47   26   46 1   
    48   27   28 1   
    49   28   29 1   
    50   29   47 1   
    51   29   48 1   
    52   29   49 1   
@<TRIPOS>SUBSTRUCTURE
     1 4VQ         1 TEMP              0 ****  ****    0 ROOT
