@<TRIPOS>MOLECULE
4VQ
   49    51     1     0     0
SMALL
bcc


@<TRIPOS>ATOM
      1 CAD         0.0660    1.1890    0.1670 c3        1 4VQ     -0.045800
      2 CAT         1.4270    0.6140    0.0600 ca        1 4VQ     -0.051300
      3 CAK         2.2050    0.4650    1.2170 ca        1 4VQ     -0.122000
      4 CBA         1.9420    0.2120   -1.1830 ca        1 4VQ     -0.109600
      5 CAS         1.1780    0.3620   -2.4950 c         1 4VQ      0.907200
      6 OAG        -0.0770    0.4940   -2.4630 o         1 4VQ     -0.825800
      7 OAF         1.8590    0.3410   -3.5600 o         1 4VQ     -0.825800
      8 CAI         3.2240   -0.3500   -1.2380 ca        1 4VQ     -0.108000
      9 CAH         3.9970   -0.4990   -0.0920 ca        1 4VQ     -0.170000
     10 CAV         3.4900   -0.0740    1.1450 cp        1 4VQ     -0.188500
     11 CBB         4.3240   -0.1940    2.3530 cp        1 4VQ      0.334500
     12 NAO         3.9240   -0.9650    3.3700 nb        1 4VQ     -0.588000
     13 CAU         5.5960    0.5360    2.4050 ca        1 4VQ      0.560900
     14 NAE         5.9180    1.4370    1.4110 nh        1 4VQ     -0.944500
     15 NAN         6.4400    0.3730    3.4750 nb        1 4VQ     -0.733000
     16 CAJ         6.0070   -0.4210    4.4680 ca        1 4VQ      0.332900
     17 CAX         4.7520   -1.0790    4.4510 cp        1 4VQ      0.256500
     18 CAW         4.3450   -1.9090    5.5920 cp        1 4VQ     -0.048500
     19 CAM         4.7300   -1.5360    6.8860 ca        1 4VQ     -0.207500
     20 CAL         3.5930   -3.0710    5.3880 ca        1 4VQ     -0.207500
     21 CAY         3.2210   -3.8610    6.4830 ca        1 4VQ      0.128600
     22 OAP         2.5080   -5.0390    6.3720 os        1 4VQ     -0.322400
     23 CAA         1.8930   -5.2780    5.1090 c3        1 4VQ      0.112200
     24 CBC         3.5970   -3.4990    7.7940 ca        1 4VQ      0.034100
     25 OAR         3.1400   -4.1920    8.9000 os        1 4VQ     -0.312900
     26 CAC         3.7740   -5.4590    9.0790 c3        1 4VQ      0.116700
     27 CAZ         4.3720   -2.3340    7.9770 ca        1 4VQ      0.128600
     28 OAQ         4.7490   -2.0710    9.2810 os        1 4VQ     -0.322400
     29 CAB         5.2180   -0.7510    9.5340 c3        1 4VQ      0.112200
     30 HAD1       -0.6910    0.4140   -0.1180 hc        1 4VQ      0.047033
     31 HAD2       -0.0510    2.0330   -0.5600 hc        1 4VQ      0.047033
     32 HAD3       -0.1470    1.5550    1.2010 hc        1 4VQ      0.047033
     33 HAK         1.8000    0.7760    2.1910 ha        1 4VQ      0.123000
     34 HAI         3.6080   -0.6610   -2.2240 ha        1 4VQ      0.157000
     35 HAH         4.9920   -0.9600   -0.1510 ha        1 4VQ      0.109000
     36 HAE1        5.3820    1.3960    0.5740 hn        1 4VQ      0.437300
     37 HAE2        6.8470    1.7750    1.3520 hn        1 4VQ      0.437300
     38 HAJ         6.7060   -0.5470    5.3130 h4        1 4VQ      0.019100
     39 HAM         5.3030   -0.6110    7.0390 ha        1 4VQ      0.152500
     40 HAL         3.2870   -3.3510    4.3690 ha        1 4VQ      0.152500
     41 HAA1        1.2620   -4.4100    4.8000 h1        1 4VQ      0.044867
     42 HAA2        2.6700   -5.4930    4.3350 h1        1 4VQ      0.044867
     43 HAA3        1.2620   -6.1820    5.2960 h1        1 4VQ      0.044867
     44 HAC1        4.8680   -5.3240    9.2570 h1        1 4VQ      0.037367
     45 HAC2        3.2730   -5.8780    9.9870 h1        1 4VQ      0.037367
     46 HAC3        3.5990   -6.1110    8.1900 h1        1 4VQ      0.037367
     47 HAB1        4.4930    0.0130    9.1640 h1        1 4VQ      0.044867
     48 HAB2        6.2210   -0.5990    9.0640 h1        1 4VQ      0.044867
     49 HAB3        5.2980   -0.7140   10.6500 h1        1 4VQ      0.044867
@<TRIPOS>BOND
     1    1    2 1   
     2    1   30 1   
     3    1   31 1   
     4    1   32 1   
     5    2    3 ar  
     6    2    4 ar  
     7    3   10 ar  
     8    3   33 1   
     9    4    5 1   
    10    4    8 ar  
    11    5    6 1   
    12    5    7 1   
    13    8    9 ar  
    14    8   34 1   
    15    9   10 ar  
    16    9   35 1   
    17   10   11 1   
    18   11   12 ar  
    19   11   13 ar  
    20   12   17 ar  
    21   13   14 1   
    22   13   15 ar  
    23   14   36 1   
    24   14   37 1   
    25   15   16 ar  
    26   16   17 ar  
    27   16   38 1   
    28   17   18 1   
    29   18   19 ar  
    30   18   20 ar  
    31   19   27 ar  
    32   19   39 1   
    33   20   21 ar  
    34   20   40 1   
    35   21   22 1   
    36   21   24 ar  
    37   22   23 1   
    38   23   41 1   
    39   23   42 1   
    40   23   43 1   
    41   24   25 1   
    42   24   27 ar  
    43   25   26 1   
    44   26   44 1   
    45   26   45 1   
    46   26   46 1   
    47   27   28 1   
    48   28   29 1   
    49   29   47 1   
    50   29   48 1   
    51   29   49 1   
@<TRIPOS>SUBSTRUCTURE
     1 4VQ         1 TEMP              0 ****  ****    0 ROOT
