@<TRIPOS>MOLECULE
4VR
   38    40     1     0     0
SMALL
bcc


@<TRIPOS>ATOM
      1 C1          0.0040   -0.0280   -0.0210 c3        1 4VR     -0.096100
      2 C2          1.5040   -0.1730    0.0090 c3        1 4VR     -0.081400
      3 C3          2.0470    0.1070    1.3970 c3        1 4VR     -0.059200
      4 C4          3.5490    0.0890    1.4340 cc        1 4VR      0.186800
      5 C5          4.2580    1.2150    1.7450 cd        1 4VR     -0.328200
      6 C6          5.7230    1.2620    1.8040 c         1 4VR      0.632500
      7 O7          6.3840    2.2660    2.0870 o         1 4VR     -0.556500
      8 N8          6.3550    0.0130    1.5020 n         1 4VR     -0.061500
      9 N9          7.6670   -0.2900    1.4500 nc        1 4VR     -0.528800
     10 C10         7.7100   -1.6280    1.0900 cd        1 4VR      0.740900
     11 N11         8.8830   -2.3470    0.8040 nu        1 4VR     -0.790900
     12 C12        10.1010   -1.8630    1.4310 c3        1 4VR      0.224100
     13 C13        11.2450   -2.8220    1.2830 ca        1 4VR     -0.093300
     14 C14        11.6090   -3.3090    0.0230 ca        1 4VR     -0.116000
     15 C15        12.6940   -4.1730   -0.1100 ca        1 4VR     -0.106500
     16 C16        13.4280   -4.5530    1.0180 ca        1 4VR     -0.021900
     17 Br1        14.8890   -5.7110    0.8410 br        1 4VR     -0.087100
     18 C18        13.0700   -4.0650    2.2780 ca        1 4VR     -0.106500
     19 C19        11.9800   -3.2060    2.4090 ca        1 4VR     -0.116000
     20 N20         6.4050   -2.2120    0.9200 nd        1 4VR     -0.734000
     21 C21         5.5790   -1.1560    1.1760 cc        1 4VR      0.652400
     22 N22         4.1860   -1.1150    1.1650 na        1 4VR     -0.712700
     23 H1         -0.4770   -0.7350    0.6970 hc        1 4VR      0.041033
     24 H2         -0.2980    1.0120    0.2530 hc        1 4VR      0.041033
     25 H3         -0.3820   -0.2480   -1.0460 hc        1 4VR      0.041033
     26 H4          1.7840   -1.2120   -0.3110 hc        1 4VR      0.048200
     27 H5          1.9670    0.5370   -0.7260 hc        1 4VR      0.048200
     28 H6          1.6430   -0.6490    2.1240 hc        1 4VR      0.072200
     29 H7          1.6940    1.1170    1.7390 hc        1 4VR      0.072200
     30 H8          3.7550    2.1660    1.9700 ha        1 4VR      0.180000
     31 H10         8.7580   -3.3380    0.8760 hn        1 4VR      0.415800
     32 H11         9.9420   -1.6360    2.5270 h1        1 4VR      0.065200
     33 H12        10.3760   -0.8900    0.9230 h1        1 4VR      0.065200
     34 H13        11.0380   -3.0070   -0.8680 ha        1 4VR      0.146500
     35 H14        12.9690   -4.5490   -1.1080 ha        1 4VR      0.148500
     36 H15        13.6420   -4.3560    3.1730 ha        1 4VR      0.148500
     37 H16        11.7040   -2.8270    3.4050 ha        1 4VR      0.146500
     38 H9          3.6790   -1.9250    0.8900 hn        1 4VR      0.479800
@<TRIPOS>BOND
     1    1    2 1   
     2    1   23 1   
     3    1   24 1   
     4    1   25 1   
     5    2    3 1   
     6    2   26 1   
     7    2   27 1   
     8    3    4 1   
     9    3   28 1   
    10    3   29 1   
    11    4    5 2   
    12    4   22 1   
    13    5    6 1   
    14    5   30 1   
    15    6    7 2   
    16    6    8 1   
    17    8    9 1   
    18    8   21 1   
    19    9   10 2   
    20   10   11 1   
    21   10   20 1   
    22   11   12 1   
    23   11   31 1   
    24   12   13 1   
    25   12   32 1   
    26   12   33 1   
    27   13   14 ar  
    28   13   19 ar  
    29   14   15 ar  
    30   14   34 1   
    31   15   16 ar  
    32   15   35 1   
    33   16   17 1   
    34   16   18 ar  
    35   18   19 ar  
    36   18   36 1   
    37   19   37 1   
    38   20   21 2   
    39   21   22 1   
    40   22   38 1   
@<TRIPOS>SUBSTRUCTURE
     1 4VR         1 TEMP              0 ****  ****    0 ROOT
