@<TRIPOS>MOLECULE
4VR
   38    40     1     0     0
SMALL
bcc


@<TRIPOS>ATOM
      1 C1          0.0020   -0.0340   -0.0150 c3        1 4VR     -0.096100
      2 C2          1.5020   -0.1800    0.0120 c3        1 4VR     -0.081400
      3 C3          2.0480    0.1110    1.3970 c3        1 4VR     -0.059200
      4 C4          3.5500    0.0930    1.4310 cc        1 4VR      0.186800
      5 C5          4.2600    1.2210    1.7310 cd        1 4VR     -0.328200
      6 C6          5.7250    1.2680    1.7870 c         1 4VR      0.632500
      7 O7          6.3880    2.2740    2.0600 o         1 4VR     -0.556500
      8 N8          6.3570    0.0160    1.4920 n         1 4VR     -0.061500
      9 N9          7.6680   -0.2870    1.4400 nc        1 4VR     -0.528800
     10 C10         7.7100   -1.6280    1.0890 cd        1 4VR      0.740900
     11 N11         8.8820   -2.3490    0.8060 nh        1 4VR     -0.790900
     12 C12        10.1020   -1.8610    1.4260 c3        1 4VR      0.224100
     13 C13        11.2450   -2.8220    1.2830 ca        1 4VR     -0.093300
     14 C14        11.6060   -3.3180    0.0260 ca        1 4VR     -0.116000
     15 C15        12.6910   -4.1830   -0.1030 ca        1 4VR     -0.106500
     16 C16        13.4270   -4.5550    1.0260 ca        1 4VR     -0.021900
     17 BR1        14.8860   -5.7160    0.8540 br        1 4VR     -0.087100
     18 C18        13.0710   -4.0590    2.2830 ca        1 4VR     -0.106500
     19 C19        11.9820   -3.1990    2.4100 ca        1 4VR     -0.116000
     20 N20         6.4050   -2.2130    0.9260 nd        1 4VR     -0.734000
     21 C21         5.5790   -1.1550    1.1770 cc        1 4VR      0.652400
     22 N22         4.1870   -1.1130    1.1700 na        1 4VR     -0.712700
     23 H1         -0.3870   -0.2630   -1.0370 hc        1 4VR      0.041033
     24 H2         -0.4770   -0.7350    0.7100 hc        1 4VR      0.041033
     25 H3         -0.2990    1.0080    0.2520 hc        1 4VR      0.041033
     26 H4          1.9640    0.5250   -0.7290 hc        1 4VR      0.048200
     27 H5          1.7810   -1.2200   -0.3000 hc        1 4VR      0.048200
     28 H6          1.6460   -0.6390    2.1310 hc        1 4VR      0.072200
     29 H7          1.6970    1.1250    1.7320 hc        1 4VR      0.072200
     30 H8          3.7590    2.1740    1.9500 ha        1 4VR      0.180000
     31 H10         8.7570   -3.3400    0.8850 hn        1 4VR      0.415800
     32 H11        10.3760   -0.8930    0.9110 h1        1 4VR      0.065200
     33 H12         9.9460   -1.6260    2.5210 h1        1 4VR      0.065200
     34 H13        11.0340   -3.0210   -0.8670 ha        1 4VR      0.146500
     35 H14        12.9640   -4.5660   -1.0990 ha        1 4VR      0.148500
     36 H15        13.6450   -4.3440    3.1790 ha        1 4VR      0.148500
     37 H16        11.7080   -2.8130    3.4040 ha        1 4VR      0.146500
     38 H9          3.6790   -1.9250    0.9020 hn        1 4VR      0.479800
@<TRIPOS>BOND
     1    1    2 1   
     2    1   23 1   
     3    1   24 1   
     4    1   25 1   
     5    2    3 1   
     6    2   26 1   
     7    2   27 1   
     8    3    4 1   
     9    3   28 1   
    10    3   29 1   
    11    4    5 2   
    12    4   22 1   
    13    5    6 1   
    14    5   30 1   
    15    6    7 2   
    16    6    8 1   
    17    8    9 1   
    18    8   21 1   
    19    9   10 2   
    20   10   11 1   
    21   10   20 1   
    22   11   12 1   
    23   11   31 1   
    24   12   13 1   
    25   12   32 1   
    26   12   33 1   
    27   13   14 ar  
    28   13   19 ar  
    29   14   15 ar  
    30   14   34 1   
    31   15   16 ar  
    32   15   35 1   
    33   16   17 1   
    34   16   18 ar  
    35   18   19 ar  
    36   18   36 1   
    37   19   37 1   
    38   20   21 2   
    39   21   22 1   
    40   22   38 1   
@<TRIPOS>SUBSTRUCTURE
     1 4VR         1 TEMP              0 ****  ****    0 ROOT
