@<TRIPOS>MOLECULE
4VS
   25    26     1     0     0
SMALL
bcc


@<TRIPOS>ATOM
      1 N3         -1.6310    0.2260   -1.9970 n1        1 4VS     -0.383800
      2 C9         -0.9280    0.1470   -1.0720 cg        1 4VS      0.273800
      3 C8         -0.0830    0.0530    0.0340 cc        1 4VS     -0.251300
      4 C6          1.3700   -0.0710    0.0470 cc        1 4VS      0.389600
      5 C7          2.2210   -0.1110   -1.1580 c3        1 4VS     -0.134400
      6 N2          1.8270   -0.1380    1.3240 nd        1 4VS     -0.467800
      7 C10        -0.4520    0.0550    1.4010 cd        1 4VS      0.175300
      8 N1          0.7600   -0.0640    2.1450 n         1 4VS      0.078300
      9 C5          0.7290   -0.0890    3.5850 c         1 4VS      0.632500
     10 O           1.7680   -0.1910    4.2400 o         1 4VS     -0.545500
     11 C4         -0.6170    0.0180    4.1550 cc        1 4VS     -0.329200
     12 N4         -1.6870    0.1400    2.0140 na        1 4VS     -0.601400
     13 C3         -1.7530    0.1310    3.4010 cd        1 4VS      0.186800
     14 C2         -3.1070    0.2230    4.0460 c3        1 4VS     -0.059200
     15 C1         -3.8530    1.4740    3.6570 c3        1 4VS     -0.100100
     16 H1          2.8260    0.8280   -1.2350 hc        1 4VS      0.062033
     17 H2          1.5800   -0.2020   -2.0700 hc        1 4VS      0.062033
     18 H3          2.9240   -0.9810   -1.1210 hc        1 4VS      0.062033
     19 H4         -0.6560    0.0030    5.2530 ha        1 4VS      0.182000
     20 H6         -3.7080   -0.6860    3.7670 hc        1 4VS      0.073200
     21 H7         -2.9690    0.1990    5.1620 hc        1 4VS      0.073200
     22 H8         -4.7930    1.5510    4.2570 hc        1 4VS      0.047367
     23 H9         -4.1320    1.4640    2.5760 hc        1 4VS      0.047367
     24 H10        -3.2340    2.3840    3.8530 hc        1 4VS      0.047367
     25 H5         -2.5000    0.2540    1.4530 hn        1 4VS      0.478800
@<TRIPOS>BOND
     1    1    2 3   
     2    2    3 1   
     3    3    4 1   
     4    3    7 2   
     5    4    5 1   
     6    4    6 2   
     7    5   16 1   
     8    5   17 1   
     9    5   18 1   
    10    6    8 1   
    11    7    8 1   
    12    7   12 1   
    13    8    9 1   
    14    9   10 2   
    15    9   11 1   
    16   11   13 2   
    17   11   19 1   
    18   12   13 1   
    19   12   25 1   
    20   13   14 1   
    21   14   15 1   
    22   14   20 1   
    23   14   21 1   
    24   15   22 1   
    25   15   23 1   
    26   15   24 1   
@<TRIPOS>SUBSTRUCTURE
     1 4VS         1 TEMP              0 ****  ****    0 ROOT
