@<TRIPOS>MOLECULE
4VS
   25    26     1     0     0
SMALL
bcc


@<TRIPOS>ATOM
      1 N3         -1.5600    0.5160   -2.0270 n1        1 4VS     -0.383800
      2 C9         -0.8660    0.3500   -1.1050 cg        1 4VS      0.273800
      3 C8         -0.0340    0.1520   -0.0040 cc        1 4VS     -0.251300
      4 C6          1.4160   -0.0070    0.0100 cc        1 4VS      0.389600
      5 C7          2.2730    0.0030   -1.1910 c3        1 4VS     -0.134400
      6 N2          1.8610   -0.1760    1.2820 nd        1 4VS     -0.467800
      7 C10        -0.4140    0.0640    1.3570 cd        1 4VS      0.175300
      8 N1          0.7880   -0.1370    2.0990 n         1 4VS      0.078300
      9 C5          0.7450   -0.2620    3.5330 c         1 4VS      0.632500
     10 O           1.7760   -0.4360    4.1860 o         1 4VS     -0.545500
     11 C4         -0.6030   -0.1640    4.1010 cc        1 4VS     -0.329200
     12 N4         -1.6520    0.1340    1.9660 na        1 4VS     -0.601400
     13 C3         -1.7290    0.0280    3.3490 cd        1 4VS      0.186800
     14 C2         -3.0860    0.1070    3.9900 c3        1 4VS     -0.059200
     15 C1         -3.8000    1.4000    3.6850 c3        1 4VS     -0.100100
     16 H1          1.6970    0.4050   -2.0620 hc        1 4VS      0.062367
     17 H2          3.1800    0.6380   -1.0330 hc        1 4VS      0.062367
     18 H3          2.6080   -1.0380   -1.4310 hc        1 4VS      0.062367
     19 H4         -0.6510   -0.2560    5.1950 ha        1 4VS      0.182000
     20 H6         -2.9580    0.0020    5.1020 hc        1 4VS      0.073200
     21 H7         -3.7050   -0.7650    3.6440 hc        1 4VS      0.073200
     22 H8         -4.7420    1.4570    4.2830 hc        1 4VS      0.047367
     23 H9         -4.0710    1.4720    2.6040 hc        1 4VS      0.047367
     24 H10        -3.1620    2.2780    3.9490 hc        1 4VS      0.047367
     25 H5         -2.4570    0.3080    1.4100 hn        1 4VS      0.478800
@<TRIPOS>BOND
     1    1    2 3   
     2    2    3 1   
     3    3    4 1   
     4    3    7 2   
     5    4    5 1   
     6    4    6 2   
     7    5   16 1   
     8    5   17 1   
     9    5   18 1   
    10    6    8 1   
    11    7    8 1   
    12    7   12 1   
    13    8    9 1   
    14    9   10 2   
    15    9   11 1   
    16   11   13 2   
    17   11   19 1   
    18   12   13 1   
    19   12   25 1   
    20   13   14 1   
    21   14   15 1   
    22   14   20 1   
    23   14   21 1   
    24   15   22 1   
    25   15   23 1   
    26   15   24 1   
@<TRIPOS>SUBSTRUCTURE
     1 4VS         1 TEMP              0 ****  ****    0 ROOT
