@<TRIPOS>MOLECULE
4VT
   29    31     1     0     0
SMALL
bcc


@<TRIPOS>ATOM
      1 O1         -0.0480    1.3800   -0.2440 o         1 4VT     -0.545500
      2 C2          1.0480    0.8410   -0.0800 c         1 4VT      0.634500
      3 C3          1.6830    0.6050    1.2200 cc        1 4VT     -0.336200
      4 C4          2.9020    0.0010    1.3670 cd        1 4VT      0.191800
      5 C5          3.5000   -0.1850    2.7360 c3        1 4VT     -0.009900
      6 C6          4.3140   -1.4250    2.8680 ca        1 4VT     -0.113300
      7 C7          3.7250   -2.6080    3.3260 ca        1 4VT     -0.126000
      8 C8          4.4920   -3.7650    3.4630 ca        1 4VT     -0.122500
      9 C9          5.8500   -3.7460    3.1450 ca        1 4VT     -0.116000
     10 C10         6.4420   -2.5670    2.6920 ca        1 4VT     -0.122500
     11 C11         5.6780   -1.4100    2.5540 ca        1 4VT     -0.126000
     12 N12         3.6340   -0.4110    0.2620 na        1 4VT     -0.594400
     13 C13         3.0890   -0.2490   -0.9970 cc        1 4VT      0.175300
     14 C14         3.5790   -0.5910   -2.2830 cd        1 4VT     -0.249300
     15 C15         2.5420   -0.1330   -3.1930 cd        1 4VT      0.370200
     16 N16         1.5210    0.4330   -2.5180 nc        1 4VT     -0.462800
     17 N17         1.8210    0.3770   -1.2040 n         1 4VT      0.072300
     18 C18         4.7810   -1.2210   -2.6010 ch        1 4VT      0.272800
     19 N19         5.7840   -1.7470   -2.8720 n1        1 4VT     -0.379800
     20 H1          1.1060    0.9530    2.0870 ha        1 4VT      0.181000
     21 H2          2.6630   -0.1960    3.4870 hc        1 4VT      0.083200
     22 H3          4.1380    0.7170    2.9560 hc        1 4VT      0.083200
     23 H4          2.6550   -2.6270    3.5810 ha        1 4VT      0.137000
     24 H5          4.0240   -4.6920    3.8240 ha        1 4VT      0.140500
     25 H6          6.4540   -4.6600    3.2530 ha        1 4VT      0.140000
     26 H7          7.5140   -2.5490    2.4430 ha        1 4VT      0.140500
     27 H8          6.1530   -0.4780    2.2100 ha        1 4VT      0.137000
     28 H9          4.4730   -0.9400    0.3660 hn        1 4VT      0.484800
     29 H10         2.5500   -0.2150   -4.2820 h4        1 4VT      0.060100
@<TRIPOS>BOND
     1    1    2 2   
     2    2    3 1   
     3    2   17 1   
     4    3    4 2   
     5    3   20 1   
     6    4    5 1   
     7    4   12 1   
     8    5    6 1   
     9    5   21 1   
    10    5   22 1   
    11    6    7 ar  
    12    6   11 ar  
    13    7    8 ar  
    14    7   23 1   
    15    8    9 ar  
    16    8   24 1   
    17    9   10 ar  
    18    9   25 1   
    19   10   11 ar  
    20   10   26 1   
    21   11   27 1   
    22   12   13 1   
    23   12   28 1   
    24   13   14 2   
    25   13   17 1   
    26   14   15 1   
    27   14   18 1   
    28   15   16 2   
    29   15   29 1   
    30   16   17 1   
    31   18   19 3   
@<TRIPOS>SUBSTRUCTURE
     1 4VT         1 TEMP              0 ****  ****    0 ROOT
