@<TRIPOS>MOLECULE
4VT
   29    31     1     0     0
SMALL
bcc


@<TRIPOS>ATOM
      1 O1          0.0350    1.3940   -0.2670 o         1 4VT     -0.545500
      2 C2          1.1190    0.8330   -0.0980 c         1 4VT      0.634500
      3 C3          1.7380    0.5720    1.2040 cc        1 4VT     -0.336200
      4 C4          2.9440   -0.0560    1.3560 cd        1 4VT      0.191800
      5 C5          3.5260   -0.2670    2.7280 c3        1 4VT     -0.009900
      6 C6          4.3160   -1.5230    2.8540 ca        1 4VT     -0.113300
      7 C7          3.7020   -2.7010    3.2950 ca        1 4VT     -0.126000
      8 C8          4.4470   -3.8720    3.4260 ca        1 4VT     -0.122500
      9 C9          5.8080   -3.8750    3.1200 ca        1 4VT     -0.116000
     10 C10         6.4250   -2.7020    2.6850 ca        1 4VT     -0.122500
     11 C11         5.6830   -1.5300    2.5530 ca        1 4VT     -0.126000
     12 N12         3.6790   -0.4690    0.2540 na        1 4VT     -0.594400
     13 C13         3.1480   -0.2840   -1.0090 cc        1 4VT      0.175300
     14 C14         3.6440   -0.6210   -2.2930 cd        1 4VT     -0.249300
     15 C15         2.6240   -0.1340   -3.2080 cd        1 4VT      0.370200
     16 N16         1.6070    0.4430   -2.5360 nc        1 4VT     -0.462800
     17 N17         1.8950    0.3670   -1.2200 n         1 4VT      0.072300
     18 C18         4.8370   -1.2700   -2.6070 ch        1 4VT      0.272800
     19 N19         5.8330   -1.8110   -2.8750 n1        1 4VT     -0.379800
     20 H1          1.1590    0.9210    2.0710 ha        1 4VT      0.181000
     21 H2          4.1780    0.6200    2.9650 hc        1 4VT      0.083200
     22 H3          2.6820   -0.2710    3.4720 hc        1 4VT      0.083200
     23 H4          2.6290   -2.7030    3.5390 ha        1 4VT      0.137000
     24 H5          3.9580   -4.7950    3.7720 ha        1 4VT      0.140500
     25 H6          6.3940   -4.8010    3.2230 ha        1 4VT      0.140000
     26 H7          7.4990   -2.7010    2.4460 ha        1 4VT      0.140500
     27 H8          6.1780   -0.6030    2.2230 ha        1 4VT      0.137000
     28 H9          4.5070   -1.0150    0.3590 hn        1 4VT      0.484800
     29 H10         2.6400   -0.2060   -4.2980 h4        1 4VT      0.060100
@<TRIPOS>BOND
     1    1    2 2   
     2    2    3 1   
     3    2   17 1   
     4    3    4 2   
     5    3   20 1   
     6    4    5 1   
     7    4   12 1   
     8    5    6 1   
     9    5   21 1   
    10    5   22 1   
    11    6    7 ar  
    12    6   11 ar  
    13    7    8 ar  
    14    7   23 1   
    15    8    9 ar  
    16    8   24 1   
    17    9   10 ar  
    18    9   25 1   
    19   10   11 ar  
    20   10   26 1   
    21   11   27 1   
    22   12   13 1   
    23   12   28 1   
    24   13   14 2   
    25   13   17 1   
    26   14   15 1   
    27   14   18 1   
    28   15   16 2   
    29   15   29 1   
    30   16   17 1   
    31   18   19 3   
@<TRIPOS>SUBSTRUCTURE
     1 4VT         1 TEMP              0 ****  ****    0 ROOT
