@<TRIPOS>MOLECULE
4VU
   30    28     1     0     0
SMALL
bcc


@<TRIPOS>ATOM
      1 C1         -0.8270   -2.1480   -1.2370 c2        1 4VU     -0.548000
      2 N1          0.5540   -0.1260    5.2520 n3        1 4VU     -0.162000
      3 C2          2.0410   -0.9390   -0.1070 c1        1 4VU      0.003000
      4 N2          2.3370   -0.5230    0.9510 n2        1 4VU     -0.373000
      5 C4          2.2030    0.2390    3.6590 c1        1 4VU     -0.149000
      6 C5          2.1150    1.3920    4.4190 c2        1 4VU     -0.426000
      7 C6         -1.6080   -2.2510   -0.2040 c1        1 4VU      0.117000
      8 C7          0.9690    1.2960    5.2930 c1        1 4VU      0.111000
      9 C9         -0.5720   -0.5750    6.0300 c3        1 4VU     -0.052000
     10 C10        -3.0790   -0.6690    4.3970 c3        1 4VU     -0.221500
     11 C11        -1.2270   -1.8850    5.6080 c3        1 4VU     -0.177000
     12 C12        -2.1190   -1.8380    4.3750 c3        1 4VU     -0.110000
     13 C14        -1.3350   -1.8630    3.0810 c3        1 4VU     -0.221500
     14 H1          0.2240   -1.7850   -1.1490 ha        1 4VU      0.213500
     15 H3         -1.0950   -2.3940   -2.2750 ha        1 4VU      0.213500
     16 H4          2.5420   -0.1720    1.8650 hn        1 4VU      0.331000
     17 H5          2.6730    2.3150    4.2710 ha        1 4VU      0.184000
     18 H6         -2.5470    0.2940    4.2020 hc        1 4VU      0.082500
     19 H17        -1.3390    0.2550    6.0240 h1        1 4VU      0.126000
     20 H16        -0.1990   -0.6850    7.0920 h1        1 4VU      0.126000
     21 H8         -3.5930   -0.6010    5.3850 hc        1 4VU      0.082500
     22 H7         -3.8520   -0.8010    3.6010 hc        1 4VU      0.082500
     23 H10        -1.8640   -2.1990    6.4810 hc        1 4VU      0.094000
     24 H11        -0.4490   -2.6820    5.4660 hc        1 4VU      0.094000
     25 H9         -2.7360   -2.7860    4.4070 hc        1 4VU      0.096000
     26 H12        -0.7820   -0.9060    2.9220 hc        1 4VU      0.082500
     27 H13         1.1940   -1.8260    4.0680 h4        1 4VU      0.189000
     28 H15        -0.6050   -2.7080    3.0800 hc        1 4VU      0.082500
     29 H14        -2.0250   -2.0020    2.2080 hc        1 4VU      0.082500
     30 C13         1.2900   -0.7690    4.3520 c2        1 4VU      0.048000
@<TRIPOS>BOND
     1    1    7 1   
     2    1   14 1   
     3    1   15 1   
     4    2    8 1   
     5    2    9 1   
     6    2   30 1   
     7    3    4 1   
     8    4   16 1   
     9    5    6 1   
    10    5   30 1   
    11    6    8 1   
    12    6   17 1   
    13    9   11 1   
    14    9   19 1   
    15    9   20 1   
    16   10   12 1   
    17   10   18 1   
    18   10   21 1   
    19   10   22 1   
    20   11   12 1   
    21   11   23 1   
    22   11   24 1   
    23   12   13 1   
    24   12   25 1   
    25   13   26 1   
    26   13   28 1   
    27   13   29 1   
    28   27   30 1   
@<TRIPOS>SUBSTRUCTURE
     1 4VU         1 TEMP              0 ****  ****    0 ROOT
