@<TRIPOS>MOLECULE
4VU
   30    26     1     0     0
SMALL
bcc


@<TRIPOS>ATOM
      1 C1         -0.8460   -1.4940    0.2540 c2        1 4VU     -0.538000
      2 N1          0.6850   -1.1230    5.0330 n3        1 4VU      0.066000
      3 C2          1.1470    1.1170   -0.2500 c1        1 4VU      0.058000
      4 N2          1.9340    1.6430    0.4480 n2        1 4VU     -0.361000
      5 C4          2.6750    1.4350    3.2370 c1        1 4VU      0.097000
      6 C5          2.2220    0.6070    4.1580 c2        1 4VU     -0.360000
      7 C6         -1.1180   -1.5410    1.5230 c1        1 4VU      0.111000
      8 C7          1.0840   -0.2520    4.0480 c2        1 4VU     -0.212000
      9 C9         -0.4210   -1.8880    4.8380 c2        1 4VU     -0.365000
     10 C10        -2.4720    1.3060    3.0060 c3        1 4VU     -0.273000
     11 C11        -0.9400   -2.8900    5.7940 c3        1 4VU     -0.149000
     12 C12        -1.9810   -3.7920    5.3450 c1        1 4VU     -0.075000
     13 C14        -2.5270   -3.8720    4.0150 c3        1 4VU     -0.269000
     14 H1         -1.0220   -2.3050   -0.4690 ha        1 4VU      0.213500
     15 H3         -0.3900   -0.5980   -0.2240 ha        1 4VU      0.213500
     16 H4          2.5770    2.0560    1.0560 hn        1 4VU      0.304000
     17 H5          2.7910    0.5720    5.1220 ha        1 4VU      0.220000
     18 H6         -1.9660    0.3350    2.7980 hc        1 4VU      0.068500
     19 H17         0.4700   -0.2400    3.1320 h4        1 4VU      0.166000
     20 H16        -0.9640   -1.7390    3.8840 h4        1 4VU      0.195000
     21 H8         -1.7560    2.0010    3.4940 hc        1 4VU      0.068500
     22 H7         -3.3390    1.1330    3.6810 hc        1 4VU      0.068500
     23 H10        -2.8290    1.7500    2.0520 hc        1 4VU      0.068500
     24 H11        -0.1180   -3.5740    6.1720 hc        1 4VU      0.133500
     25 H9         -1.3590   -2.3740    6.7130 hc        1 4VU      0.133500
     26 H12        -2.0150   -3.2940    3.2010 hc        1 4VU      0.111667
     27 H13         1.0900   -1.8910    6.9400 ha        1 4VU      0.046000
     28 H15        -2.5640   -4.9540    3.7160 hc        1 4VU      0.111667
     29 H14        -3.5940   -3.5160    4.0850 hc        1 4VU      0.111667
     30 C13         1.4480   -1.1550    6.1840 c1        1 4VU      0.038000
@<TRIPOS>BOND
     1    1    7 1   
     2    1   14 1   
     3    1   15 1   
     4    2    8 1   
     5    2    9 1   
     6    2   30 1   
     7    3    4 1   
     8    4   16 1   
     9    5    6 1   
    10    6    8 1   
    11    6   17 1   
    12    8   19 1   
    13    9   11 1   
    14    9   20 1   
    15   10   18 1   
    16   10   21 1   
    17   10   22 1   
    18   10   23 1   
    19   11   12 1   
    20   11   24 1   
    21   11   25 1   
    22   12   13 1   
    23   13   26 1   
    24   13   28 1   
    25   13   29 1   
    26   27   30 1   
@<TRIPOS>SUBSTRUCTURE
     1 4VU         1 TEMP              0 ****  ****    0 ROOT
