@<TRIPOS>MOLECULE
4VV
   51    52     1     0     0
SMALL
bcc


@<TRIPOS>ATOM
      1 C1          0.0370   -0.1460   -0.0170 c3        1 4VV      0.212800
      2 C2          1.5580   -0.3120   -0.0540 c3        1 4VV     -0.111400
      3 C3          2.0970   -0.3390    1.3620 c3        1 4VV     -0.079400
      4 N6         -1.8530   -3.2470   -2.7520 ny        1 4VV     -0.369300
      5 C7          6.1430   -0.1260    4.2530 c3        1 4VV      0.212800
      6 C9          8.2720   -2.2710    4.9380 c2        1 4VV     -0.274000
      7 C10         9.7160    0.7930    3.9310 c2        1 4VV      0.492200
      8 C11         8.2550    1.2580    3.9830 c3        1 4VV      0.074500
      9 C12        -0.4460    1.2450   -2.0870 c3        1 4VV      0.074500
     10 C14        -1.0170   -0.9990   -2.1540 ce        1 4VV      0.396600
     11 C4          3.6110   -0.3970    1.3740 c3        1 4VV     -0.078400
     12 C5          4.1410   -0.3320    2.7920 c3        1 4VV     -0.079400
     13 O2         -0.8550   -4.1040   -3.1270 oh        1 4VV     -0.374300
     14 C13        -1.3130   -2.2960   -1.7950 c2        1 4VV     -0.274000
     15 N5         -1.2170   -0.4850   -3.5000 ne        1 4VV     -0.603300
     16 C15        -0.8920    0.7820   -3.4790 c2        1 4VV      0.492200
     17 N1         -0.6160    0.0230   -1.2850 nh        1 4VV     -0.659400
     18 C6          5.6560   -0.3030    2.8130 c3        1 4VV     -0.111400
     19 N2          7.5590    0.0420    4.4310 nh        1 4VV     -0.659400
     20 N4          9.8440   -0.4710    4.2440 ne        1 4VV     -0.603300
     21 C8          8.5100   -0.9800    4.5220 ce        1 4VV      0.396600
     22 N3          9.3540   -3.2230    5.1280 ny        1 4VV     -0.369300
     23 O1          9.3630   -4.0920    4.0720 oh        1 4VV     -0.374300
     24 H1         -0.4200   -1.0420    0.4930 h1        1 4VV      0.076700
     25 H2         -0.2160    0.7700    0.5950 h1        1 4VV      0.076700
     26 H3          1.8330   -1.2600   -0.5840 hc        1 4VV      0.054700
     27 H4          2.0270    0.5370   -0.6170 hc        1 4VV      0.054700
     28 H5          1.6820   -1.2270    1.9080 hc        1 4VV      0.050700
     29 H6          1.7550    0.5790    1.9120 hc        1 4VV      0.050700
     30 H7         -2.6010   -3.7840   -2.2730 hn        1 4VV      0.469300
     31 H8          5.6560    0.7950    4.6920 h1        1 4VV      0.076700
     32 H9          5.8190   -1.0160    4.8650 h1        1 4VV      0.076700
     33 H10         7.2690   -2.7000    5.0740 hx        1 4VV      0.205000
     34 H11        10.5530    1.4570    3.6720 h4        1 4VV      0.092800
     35 H12         8.1150    2.0790    4.7390 h1        1 4VV      0.115200
     36 H13         7.8960    1.6050    2.9770 h1        1 4VV      0.115200
     37 H14         0.6190    1.6030   -2.0910 h1        1 4VV      0.115200
     38 H15        -1.1170    2.0560   -1.6920 h1        1 4VV      0.115200
     39 H16         3.9580   -1.3430    0.8820 hc        1 4VV      0.048200
     40 H17         4.0250    0.4600    0.7790 hc        1 4VV      0.048200
     41 H18         3.7720   -1.2180    3.3730 hc        1 4VV      0.050700
     42 H19         3.7400    0.5870    3.2980 hc        1 4VV      0.050700
     43 H20        -1.1650   -4.6410   -3.8890 ho        1 4VV      0.456000
     44 H21        -1.0950   -2.7280   -0.8080 hx        1 4VV      0.205000
     45 H22        -0.9420    1.4510   -4.3500 h4        1 4VV      0.092800
     46 H23         6.0230    0.5410    2.1720 hc        1 4VV      0.054700
     47 H24         6.0610   -1.2540    2.3790 hc        1 4VV      0.054700
     48 H25        10.2670   -2.7360    5.2070 hn        1 4VV      0.469300
     49 H26        10.1830   -4.6310    4.1090 ho        1 4VV      0.456000
     50 H62        -2.2440   -2.7600   -3.5800 hn        1 4VV      0.469300
     51 H32         9.1580   -3.7490    6.0010 hn        1 4VV      0.469300
@<TRIPOS>BOND
     1    1    2 1   
     2    1   17 1   
     3    1   24 1   
     4    1   25 1   
     5    2    3 1   
     6    2   26 1   
     7    2   27 1   
     8    3   11 1   
     9    3   28 1   
    10    3   29 1   
    11    4   13 1   
    12    4   14 1   
    13    4   30 1   
    14    4   50 1   
    15    5   18 1   
    16    5   19 1   
    17    5   31 1   
    18    5   32 1   
    19    6   21 2   
    20    6   22 1   
    21    6   33 1   
    22    7    8 1   
    23    7   20 2   
    24    7   34 1   
    25    8   19 1   
    26    8   35 1   
    27    8   36 1   
    28    9   16 1   
    29    9   17 1   
    30    9   37 1   
    31    9   38 1   
    32   10   14 2   
    33   10   15 1   
    34   10   17 1   
    35   11   12 1   
    36   11   39 1   
    37   11   40 1   
    38   12   18 1   
    39   12   41 1   
    40   12   42 1   
    41   13   43 1   
    42   14   44 1   
    43   15   16 2   
    44   16   45 1   
    45   18   46 1   
    46   18   47 1   
    47   19   21 1   
    48   20   21 1   
    49   22   23 1   
    50   22   48 1   
    51   22   51 1   
    52   23   49 1   
@<TRIPOS>SUBSTRUCTURE
     1 4VV         1 TEMP              0 ****  ****    0 ROOT
