@<TRIPOS>MOLECULE
4VV
   51    52     1     0     0
SMALL
bcc


@<TRIPOS>ATOM
      1 C1          0.0440   -0.1350   -0.0300 c3        1 4VV      0.213300
      2 C2          1.5640   -0.3100   -0.0620 c3        1 4VV     -0.111400
      3 C3          2.1000   -0.3300    1.3550 c3        1 4VV     -0.079400
      4 N6         -1.8590   -3.2460   -2.7440 n4        1 4VV     -0.369300
      5 C7          6.1410   -0.1180    4.2540 c3        1 4VV      0.213300
      6 C9          8.2560   -2.2710    4.9570 c2        1 4VV     -0.274000
      7 C10         9.7190    0.7790    3.9350 c2        1 4VV      0.492200
      8 C11         8.2610    1.2530    3.9790 c3        1 4VV      0.074500
      9 C12        -0.4260    1.2420   -2.1120 c3        1 4VV      0.074500
     10 C14        -1.0110   -0.9980   -2.1630 ce        1 4VV      0.396600
     11 C4          3.6140   -0.3960    1.3710 c3        1 4VV     -0.078400
     12 C5          4.1410   -0.3240    2.7890 c3        1 4VV     -0.079400
     13 O2         -0.8660   -4.1130   -3.1100 oh        1 4VV     -0.374300
     14 C13        -1.3160   -2.2900   -1.7940 c2        1 4VV     -0.274000
     15 N5         -1.2050   -0.4940   -3.5130 ne        1 4VV     -0.603300
     16 C15        -0.8730    0.7710   -3.5010 c2        1 4VV      0.492200
     17 N1         -0.6050    0.0270   -1.3010 nh        1 4VV     -0.659400
     18 C6          5.6560   -0.3030    2.8130 c3        1 4VV     -0.111400
     19 N2          7.5560    0.0430    4.4330 nh        1 4VV     -0.659400
     20 N4          9.8400   -0.4830    4.2550 ne        1 4VV     -0.603300
     21 C8          8.5020   -0.9830    4.5340 ce        1 4VV      0.396600
     22 N3          9.3330   -3.2260    5.1560 n4        1 4VV     -0.369300
     23 O1          9.3400   -4.1030    4.1060 oh        1 4VV     -0.374300
     24 H1         -0.2050    0.7870    0.5740 h1        1 4VV      0.076700
     25 H2         -0.4190   -1.0240    0.4850 h1        1 4VV      0.076700
     26 H3          2.0400    0.5330   -0.6300 hc        1 4VV      0.054700
     27 H4          1.8360   -1.2630   -0.5860 hc        1 4VV      0.054700
     28 H5          1.7620    0.5930    1.8980 hc        1 4VV      0.050700
     29 H6          1.6790   -1.2120    1.9060 hc        1 4VV      0.050700
     30 H7         -2.2450   -2.7630   -3.5770 hn        1 4VV      0.469300
     31 H8          5.8110   -1.0030    4.8700 h1        1 4VV      0.076700
     32 H9          5.6580    0.8080    4.6860 h1        1 4VV      0.076700
     33 H10         7.2510   -2.6940    5.0940 hx        1 4VV      0.205000
     34 H11        10.5600    1.4380    3.6730 h4        1 4VV      0.092800
     35 H12         7.9060    1.5950    2.9700 h1        1 4VV      0.115200
     36 H13         8.1230    2.0790    4.7300 h1        1 4VV      0.115200
     37 H14         0.6410    1.5930   -2.1170 h1        1 4VV      0.115200
     38 H15        -1.0930    2.0610   -1.7250 h1        1 4VV      0.115200
     39 H16         4.0340    0.4550    0.7700 hc        1 4VV      0.048200
     40 H17         3.9570   -1.3470    0.8850 hc        1 4VV      0.048200
     41 H18         3.7660   -1.2050    3.3750 hc        1 4VV      0.050700
     42 H19         3.7440    0.6000    3.2880 hc        1 4VV      0.050700
     43 H20        -1.1770   -4.6540   -3.8680 ho        1 4VV      0.456000
     44 H21        -1.1010   -2.7160   -0.8030 hx        1 4VV      0.205000
     45 H22        -0.9160    1.4330   -4.3780 h4        1 4VV      0.092800
     46 H23         6.0570   -1.2590    2.3870 hc        1 4VV      0.054700
     47 H24         6.0290    0.5360    2.1680 hc        1 4VV      0.054700
     48 H25        10.2480   -2.7440    5.2340 hn        1 4VV      0.469300
     49 H26        10.1570   -4.6460    4.1490 ho        1 4VV      0.456000
     50 H62        -2.6110   -3.7740   -2.2620 hn        1 4VV      0.469300
     51 H32         9.1330   -3.7460    6.0320 hn        1 4VV      0.469300
@<TRIPOS>BOND
     1    1    2 1   
     2    1   17 1   
     3    1   24 1   
     4    1   25 1   
     5    2    3 1   
     6    2   26 1   
     7    2   27 1   
     8    3   11 1   
     9    3   28 1   
    10    3   29 1   
    11    4   13 1   
    12    4   14 1   
    13    4   30 1   
    14    4   50 1   
    15    5   18 1   
    16    5   19 1   
    17    5   31 1   
    18    5   32 1   
    19    6   21 2   
    20    6   22 1   
    21    6   33 1   
    22    7    8 1   
    23    7   20 2   
    24    7   34 1   
    25    8   19 1   
    26    8   35 1   
    27    8   36 1   
    28    9   16 1   
    29    9   17 1   
    30    9   37 1   
    31    9   38 1   
    32   10   14 2   
    33   10   15 1   
    34   10   17 1   
    35   11   12 1   
    36   11   39 1   
    37   11   40 1   
    38   12   18 1   
    39   12   41 1   
    40   12   42 1   
    41   13   43 1   
    42   14   44 1   
    43   15   16 2   
    44   16   45 1   
    45   18   46 1   
    46   18   47 1   
    47   19   21 1   
    48   20   21 1   
    49   22   23 1   
    50   22   48 1   
    51   22   51 1   
    52   23   49 1   
@<TRIPOS>SUBSTRUCTURE
     1 4VV         1 TEMP              0 ****  ****    0 ROOT
