@<TRIPOS>MOLECULE
4VW
   54    56     1     0     0
SMALL
bcc


@<TRIPOS>ATOM
      1 C1         -4.1200   -2.4440    0.6400 ca        1 4VW     -0.056500
      2 C2         -2.9360   -1.3250   -1.1450 ca        1 4VW     -0.056500
      3 C3          2.3050   -0.6200    1.5390 ca        1 4VW     -0.146000
      4 C4         -4.6680   -3.3430   -0.2660 ca        1 4VW     -0.205000
      5 C5         -3.4850   -2.2160   -2.0630 ca        1 4VW     -0.205000
      6 C6          2.6950   -1.9050    1.1270 ca        1 4VW     -0.136000
      7 C7         -3.2450   -1.4370    0.2140 ca        1 4VW     -0.170600
      8 C8          1.4260   -0.0370   -0.6770 ca        1 4VW     -0.092600
      9 C9          1.6990    0.2970    0.6740 ca        1 4VW     -0.059300
     10 C10        -4.3590   -3.2420   -1.6420 ca        1 4VW      0.125600
     11 C11         2.4460   -2.2170   -0.1920 ca        1 4VW      0.032100
     12 C12         1.8210   -1.3000   -1.0750 ca        1 4VW      0.067100
     13 C13        -2.6960   -0.5110    1.2480 c         1 4VW      0.665700
     14 C15         2.2580   -3.2200   -2.2240 c3        1 4VW      0.319200
     15 C18         1.4150    1.6710    1.1800 c3        1 4VW     -0.028100
     16 C19        -0.1920    3.4710    1.8080 c3        1 4VW     -0.062400
     17 C20        -0.9320    1.0570    1.9080 c3        1 4VW      0.101000
     18 C21        -0.4470    4.5600    0.7720 c3        1 4VW     -0.068700
     19 C22        -0.0530    2.0870    1.1790 c3        1 4VW     -0.095700
     20 N23        -4.9670   -4.0970   -2.5770 nh        1 4VW     -0.812200
     21 N24        -1.4560    0.0380    1.0330 n         1 4VW     -0.543900
     22 O25        -0.5330    0.7480   -1.7680 o         1 4VW     -0.823300
     23 O26        -3.3310   -0.2990    2.3110 o         1 4VW     -0.667100
     24 O27         1.3600    1.8840   -2.1070 o         1 4VW     -0.823300
     25 O28         2.7290   -3.4030   -0.8720 os        1 4VW     -0.354900
     26 O29         1.6990   -1.8990   -2.3330 os        1 4VW     -0.316900
     27 H1         -4.3740   -2.5120    1.7100 ha        1 4VW      0.176000
     28 H4         -5.3490   -4.1280    0.0930 ha        1 4VW      0.127500
     29 H2         -2.2510   -0.5350   -1.5190 ha        1 4VW      0.176000
     30 H5         -3.2270   -2.1070   -3.1270 ha        1 4VW      0.127500
     31 H3          2.4890   -0.3340    2.5860 ha        1 4VW      0.119000
     32 H6          3.1670   -2.6130    1.8170 ha        1 4VW      0.132000
     33 H181        1.8210    1.7720    2.2230 hc        1 4VW      0.048700
     34 H182        1.9730    2.3970    0.5220 hc        1 4VW      0.048700
     35 H231       -5.2070   -4.9870   -2.1960 hn        1 4VW      0.373800
     36 H232       -4.4510   -4.1790   -3.4270 hn        1 4VW      0.373800
     37 H24        -1.0380   -0.0310    0.1210 hn        1 4VW      0.360500
     38 H151        3.1310   -3.3000   -2.9190 h2        1 4VW      0.051200
     39 H152        1.4540   -3.9700   -2.4260 h2        1 4VW      0.051200
     40 H161       -0.9430    6.6730    0.7240 hc        1 4VW      0.034200
     41 H162       -1.5980    5.7800    2.1580 hc        1 4VW      0.034200
     42 H163        0.1640    6.1930    2.0740 hc        1 4VW      0.034200
     43 H21        -1.3630    4.2750    0.1800 hc        1 4VW      0.057700
     44 H171        0.8330    3.7800   -0.8150 hc        1 4VW      0.034200
     45 H172        0.5320    5.5690   -0.8790 hc        1 4VW      0.034200
     46 H173        1.6630    4.8910    0.3630 hc        1 4VW      0.034200
     47 H22        -0.3910    2.1590    0.1000 hc        1 4VW      0.114700
     48 H191        0.7350    3.7300    2.3860 hc        1 4VW      0.029200
     49 H192       -1.0410    3.4810    2.5420 hc        1 4VW      0.029200
     50 H201       -0.3210    0.5510    2.7110 h1        1 4VW      0.039700
     51 H202       -1.7950    1.5720    2.4220 h1        1 4VW      0.039700
     52 C14         0.7100    0.9330   -1.6030 c         1 4VW      0.927200
     53 C16        -0.7220    5.8760    1.4730 c3        1 4VW     -0.097600
     54 C17         0.7120    4.7070   -0.1920 c3        1 4VW     -0.097600
@<TRIPOS>BOND
     1    1    4 ar  
     2    1    7 ar  
     3    1   27 1   
     4    2    5 ar  
     5    2    7 ar  
     6    2   29 1   
     7    3    6 ar  
     8    3    9 ar  
     9    3   31 1   
    10    4   10 ar  
    11    4   28 1   
    12    5   10 ar  
    13    5   30 1   
    14    6   11 ar  
    15    6   32 1   
    16    7   13 1   
    17    8    9 ar  
    18    8   12 ar  
    19    8   52 1   
    20    9   15 1   
    21   10   20 1   
    22   11   12 ar  
    23   11   25 1   
    24   12   26 1   
    25   13   21 1   
    26   13   23 2   
    27   14   25 1   
    28   14   26 1   
    29   14   38 1   
    30   14   39 1   
    31   15   19 1   
    32   15   33 1   
    33   15   34 1   
    34   16   18 1   
    35   16   19 1   
    36   16   48 1   
    37   16   49 1   
    38   17   19 1   
    39   17   21 1   
    40   17   50 1   
    41   17   51 1   
    42   18   43 1   
    43   18   53 1   
    44   18   54 1   
    45   19   47 1   
    46   20   35 1   
    47   20   36 1   
    48   21   37 1   
    49   22   52 1   
    50   24   52 1   
    51   40   53 1   
    52   41   53 1   
    53   42   53 1   
    54   44   54 1   
    55   45   54 1   
    56   46   54 1   
@<TRIPOS>SUBSTRUCTURE
     1 4VW         1 TEMP              0 ****  ****    0 ROOT
