@<TRIPOS>MOLECULE
4VW
   56    53     1     0     0
SMALL
bcc


@<TRIPOS>ATOM
      1 C1         -0.2210   -0.3270    0.0100 c1        1 4VW     -0.023000
      2 C2          0.2850   -1.9250    6.0270 c1        1 4VW     -0.235000
      3 C3         -6.8350   -2.3610    4.7130 ca        1 4VW     -0.027000
      4 C4          0.7540   -0.9330    0.6490 c2        1 4VW     -0.201000
      5 C5          1.4710   -2.0230    6.1560 c1        1 4VW     -0.235000
      6 C6         -6.8990   -3.6750    4.2720 ca        1 4VW     -0.124000
      7 C7         -1.1510    0.2760   -0.6650 c2        1 4VW     -0.102000
      8 C8         -4.5440   -2.0050    3.8220 ca        1 4VW      0.086000
      9 C9         -5.7020   -1.5060    4.4970 ca        1 4VW     -0.160000
     10 C10         0.7340   -1.2320    2.0670 c2        1 4VW      0.160000
     11 C11        -5.7700   -4.1390    3.6030 ca        1 4VW      0.097000
     12 C12        -4.6310   -3.3150    3.3930 ca        1 4VW     -0.078000
     13 C13        -2.2680   -0.4370   -1.3740 c2        1 4VW      0.335000
     14 C15        -4.2200   -5.3450    2.5010 c1        1 4VW      0.235000
     15 C18        -5.8210   -0.1930    4.9960 c2        1 4VW      0.202000
     16 C19        -5.1500    2.0940    5.4130 c2        1 4VW      0.103000
     17 C20        -4.3270   -1.7410   -1.1510 c3        1 4VW     -0.083000
     18 C21        -4.2350    3.2470    5.2240 c3        1 4VW     -0.131000
     19 C22        -4.9530    0.8910    4.7930 c2        1 4VW     -0.272000
     20 N23        -0.2350   -0.9280    2.8820 n3        1 4VW     -0.172000
     21 N24        -3.1770   -1.1000   -0.5890 n         1 4VW     -0.368000
     22 O25        -3.0610   -0.6700    2.4920 o         1 4VW     -0.554000
     23 O26        -2.3180   -0.4010   -2.6160 o         1 4VW     -0.326000
     24 O27        -2.4080   -1.2110    4.5360 o         1 4VW     -0.554000
     25 O28        -5.4830   -5.3770    3.0410 os        1 4VW     -0.145000
     26 O29        -3.6920   -4.1150    2.7070 os        1 4VW     -0.140000
     27 H1         -1.1520    1.3730   -0.8170 ha        1 4VW      0.205000
     28 H4          1.6610   -1.2660    0.1060 ha        1 4VW      0.195000
     29 H2         -0.7760   -1.8470    5.9430 ha        1 4VW      0.238000
     30 H5          2.5210   -2.1150    6.2890 ha        1 4VW      0.238000
     31 H3         -7.7070   -1.9510    5.2520 ha        1 4VW      0.160000
     32 H6         -7.7790   -4.3140    4.4400 ha        1 4VW      0.194000
     33 H181       -4.0790    0.7770    4.1160 ha        1 4VW      0.206000
     34 H182       -6.7290    0.0090    5.6120 ha        1 4VW      0.144000
     35 H231       -1.1020   -0.4820    2.5760 hn        1 4VW      0.304000
     36 H232       -0.2440   -1.1980    3.8600 hn        1 4VW      0.304000
     37 H24        -3.1440   -0.9970    0.4030 hn        1 4VW      0.261000
     38 H151       -5.1230   -4.6370    0.3870 ha        1 4VW      0.003250
     39 H152       -4.7560   -5.1280    0.0940 ha        1 4VW      0.003250
     40 H161       -5.7980    4.5880    4.5180 hc        1 4VW      0.096833
     41 H162       -4.2950    5.4070    5.1130 hc        1 4VW      0.096833
     42 H163       -6.0010    2.2550    6.1040 ha        1 4VW      0.145000
     43 H21        -5.4630    4.6930    6.3000 hc        1 4VW      0.096833
     44 H171       -3.5910    3.2280    7.3130 hc        1 4VW      0.096833
     45 H172       -2.4790    4.0860    6.1690 hc        1 4VW      0.096833
     46 H173       -2.5370    2.2700    6.1790 hc        1 4VW      0.096833
     47 H22        -3.7350    3.1660    4.2130 hc        1 4VW      0.127000
     48 H191       -1.9440    1.5080    3.5220 ha        1 4VW      0.003250
     49 H192       -1.8870    1.1320    4.0830 ha        1 4VW      0.003250
     50 H201       -4.4360   -2.7630   -0.6980 h1        1 4VW      0.090667
     51 H202       -5.2550   -1.1460   -0.9330 h1        1 4VW      0.090667
     52 C16        -4.9970    4.5560    5.2940 c3        1 4VW     -0.216000
     53 C17        -3.1470    3.1990    6.2890 c3        1 4VW     -0.216000
     54 H233        1.6300   -1.7600    2.4750 h4        1 4VW      0.190000
     55 H242       -4.2150   -1.8420   -2.2640 h1        1 4VW      0.090667
     56 C14        -3.2590   -1.2420    3.6060 c2        1 4VW      0.364000
@<TRIPOS>BOND
     1    1    4 1   
     2    1    7 1   
     3    2    5 1   
     4    2   29 1   
     5    3    6 1   
     6    3    9 1   
     7    3   31 1   
     8    4   10 1   
     9    4   28 1   
    10    5   30 1   
    11    6   11 1   
    12    6   32 1   
    13    7   13 1   
    14    7   27 1   
    15    8    9 1   
    16    8   12 1   
    17    8   56 1   
    18    9   15 1   
    19   10   20 1   
    20   10   54 1   
    21   11   12 1   
    22   11   25 1   
    23   12   26 1   
    24   13   21 1   
    25   13   23 1   
    26   14   25 1   
    27   14   26 1   
    28   15   19 1   
    29   15   34 1   
    30   16   18 1   
    31   16   19 1   
    32   16   42 1   
    33   17   21 1   
    34   17   50 1   
    35   17   51 1   
    36   17   55 1   
    37   18   47 1   
    38   18   52 1   
    39   18   53 1   
    40   19   33 1   
    41   20   35 1   
    42   20   36 1   
    43   21   37 1   
    44   22   56 1   
    45   24   56 1   
    46   38   39 1   
    47   40   52 1   
    48   41   52 1   
    49   43   52 1   
    50   44   53 1   
    51   45   53 1   
    52   46   53 1   
    53   48   49 1   
@<TRIPOS>SUBSTRUCTURE
     1 4VW         1 TEMP              0 ****  ****    0 ROOT
