@<TRIPOS>MOLECULE
4VW
   55    54     1     0     0
SMALL
bcc


@<TRIPOS>ATOM
      1 C1          0.3430   -0.0160    0.5120 c1        1 4VW     -0.226000
      2 C2         -0.7900    1.1530    2.1600 c2        1 4VW     -0.142000
      3 C3         -4.9810   -1.6690    3.0080 ca        1 4VW     -0.098000
      4 C4          1.3200   -0.1260    1.2300 c1        1 4VW     -0.135000
      5 C5          0.2890    1.0160    2.9480 c2        1 4VW     -0.219000
      6 C6         -5.0100   -3.0230    3.0670 ca        1 4VW     -0.111000
      7 C7         -0.9220    0.6580    0.7110 c3        1 4VW      0.042000
      8 C8         -6.1500   -1.3790    5.2190 ca        1 4VW     -0.168000
      9 C9         -5.5080   -0.7770    4.0430 ca        1 4VW     -0.014000
     10 C10         1.6440    0.3290    2.5780 c3        1 4VW      0.136000
     11 C11        -5.6140   -3.5820    4.2280 ca        1 4VW     -0.052000
     12 C12        -6.1500   -2.8070    5.2350 ca        1 4VW     -0.003000
     13 C13        -2.1850   -0.1840    0.5580 c2        1 4VW      0.314000
     14 C15        -6.4290   -4.9640    5.8020 c1        1 4VW      0.150000
     15 C18        -5.3700    0.5590    3.8650 c2        1 4VW     -0.168000
     16 C19        -5.5140    3.0040    4.3460 c3        1 4VW     -0.152000
     17 C20        -3.1970   -2.2630   -0.2900 c3        1 4VW     -0.089000
     18 C21        -4.0340    3.3090    4.4340 c3        1 4VW     -0.160000
     19 C22        -5.8370    1.5950    4.8060 c3        1 4VW     -0.140000
     20 N23         2.1020   -0.6830    3.4960 n8        1 4VW     -0.331000
     21 N24        -2.0820   -1.3920   -0.0790 ns        1 4VW     -0.360000
     22 O25        -3.6510   -5.4420    1.1850 o         1 4VW     -0.307000
     23 O26        -3.2770    0.2590    0.9810 o         1 4VW     -0.405000
     24 O27        -7.2030   -0.0770    7.1020 o         1 4VW     -0.108000
     25 O28        -5.7980   -4.9270    4.6000 os        1 4VW     -0.157000
     26 O29        -6.6570   -3.6870    6.2100 os        1 4VW     -0.157000
     27 H1         -1.0360    1.5480    0.0260 hc        1 4VW      0.149000
     28 H4          2.4370    1.1380    2.5460 h1        1 4VW      0.130000
     29 H2         -1.7060    1.6570    2.5130 ha        1 4VW      0.160000
     30 H5          0.2920    1.4280    3.9690 ha        1 4VW      0.140000
     31 H3         -4.5270   -1.1660    2.1320 ha        1 4VW      0.174000
     32 H6         -4.5990   -3.6750    2.2810 ha        1 4VW      0.173000
     33 H181       -5.3770    1.4230    5.8200 hc        1 4VW      0.087000
     34 H182       -4.8700    0.9240    2.9470 ha        1 4VW      0.161000
     35 H231        1.5280   -1.5020    3.4640 hn        1 4VW      0.159000
     36 H232        2.1280   -0.3230    4.4290 hn        1 4VW      0.159000
     37 H24        -1.1830   -1.7140   -0.3560 hn        1 4VW      0.243000
     38 H151       -4.4690   -5.3800    7.2530 ha        1 4VW      0.002500
     39 H152       -4.2210   -4.8610    6.8950 ha        1 4VW      0.002500
     40 H161       -2.6390    4.9210    4.0510 hc        1 4VW      0.073000
     41 H162       -4.0470    4.8560    2.9120 hc        1 4VW      0.073000
     42 H163       -4.2790    5.4580    4.6030 hc        1 4VW      0.073000
     43 H21        -3.4640    2.5750    3.8030 hc        1 4VW      0.079000
     44 H171       -4.6540   -6.1120    2.8420 h4        1 4VW      0.084000
     45 H172       -3.6860    3.1760    5.4920 hc        1 4VW      0.079000
     46 H173       -3.8130   -7.4020    1.7520 h4        1 4VW      0.084000
     47 H22        -6.9530    1.5050    4.9340 hc        1 4VW      0.087000
     48 H191       -5.8650    3.1450    3.2900 hc        1 4VW      0.086000
     49 H192       -6.0810    3.7310    4.9860 hc        1 4VW      0.086000
     50 H201       -3.1260   -3.1670    0.3760 h1        1 4VW      0.092333
     51 H202       -4.1570   -1.7240   -0.0700 h1        1 4VW      0.092333
     52 C16        -3.7340    4.7130    3.9750 c3        1 4VW     -0.212000
     53 C17        -4.0450   -6.3320    1.9370 c2        1 4VW      0.142000
     54 H242       -3.2050   -2.6040   -1.3600 h1        1 4VW      0.092333
     55 C14        -6.7030   -0.6710    6.2070 c1        1 4VW      0.308000
@<TRIPOS>BOND
     1    1    4 1   
     2    1    7 1   
     3    2    5 1   
     4    2    7 1   
     5    2   29 1   
     6    3    6 1   
     7    3    9 1   
     8    3   31 1   
     9    4   10 1   
    10    5   10 1   
    11    5   30 1   
    12    6   11 1   
    13    6   32 1   
    14    7   13 1   
    15    7   27 1   
    16    8    9 1   
    17    8   12 1   
    18    8   55 1   
    19    9   15 1   
    20   10   20 1   
    21   10   28 1   
    22   11   12 1   
    23   11   25 1   
    24   12   26 1   
    25   13   21 1   
    26   13   23 1   
    27   14   25 1   
    28   14   26 1   
    29   15   19 1   
    30   15   34 1   
    31   16   18 1   
    32   16   19 1   
    33   16   48 1   
    34   16   49 1   
    35   17   21 1   
    36   17   50 1   
    37   17   51 1   
    38   17   54 1   
    39   18   43 1   
    40   18   45 1   
    41   18   52 1   
    42   19   33 1   
    43   19   47 1   
    44   20   35 1   
    45   20   36 1   
    46   21   37 1   
    47   22   53 1   
    48   24   55 1   
    49   38   39 1   
    50   40   52 1   
    51   41   52 1   
    52   42   52 1   
    53   44   53 1   
    54   46   53 1   
@<TRIPOS>SUBSTRUCTURE
     1 4VW         1 TEMP              0 ****  ****    0 ROOT
