@<TRIPOS>MOLECULE
4VW
   54    50     1     0     0
SMALL
bcc


@<TRIPOS>ATOM
      1 C1          3.7000   -1.6730   -2.6170 c1        1 4VW      0.001500
      2 C2          4.8100   -2.5120   -0.6150 c1        1 4VW     -0.077000
      3 C3         -1.0780    1.3660    3.2350 c1        1 4VW     -0.089500
      4 C4          4.7880   -2.1030   -3.3990 c1        1 4VW     -0.142500
      5 C5          5.8840   -2.9380   -1.3800 c1        1 4VW     -0.077000
      6 C6         -1.5340    2.1310    4.3090 c1        1 4VW     -0.078500
      7 C7          3.7090   -1.8760   -1.2310 cg        1 4VW     -0.119200
      8 C8         -3.0700    1.9120    1.9770 cg        1 4VW     -0.042200
      9 C9         -1.8480    1.2590    2.0710 c1        1 4VW     -0.025100
     10 C10         5.8790   -2.7340   -2.7890 c1        1 4VW      0.100800
     11 C11        -2.7790    2.7990    4.2190 c1        1 4VW      0.016600
     12 C12        -3.5410    2.6870    3.0550 c1        1 4VW      0.051600
     13 C13         2.8240   -1.5960   -0.0190 c         1 4VW      0.615300
     14 C14        -3.8670    1.8440    0.6750 c         1 4VW      0.876800
     15 C15        -4.7000    4.0030    4.5360 c3        1 4VW      0.319200
     16 C16        -0.8140    0.2390   -3.1360 c3        1 4VW     -0.097600
     17 C17        -3.1080    0.6440   -2.1870 c3        1 4VW     -0.097600
     18 C18        -1.6190   -0.2020    1.5750 c3        1 4VW     -0.064300
     19 C19        -1.3850   -0.7030   -0.8850 c3        1 4VW     -0.062400
     20 C20         0.4920   -1.1160    0.7480 c3        1 4VW      0.095000
     21 C21        -1.5870    0.4940   -1.8640 c3        1 4VW     -0.066700
     22 C22        -0.6500   -0.2010    0.4300 c3        1 4VW     -0.095700
     23 N23         6.9910   -3.1740   -3.5520 n3        1 4VW     -0.786400
     24 N24         1.5400   -0.9130   -0.1920 n         1 4VW     -0.540900
     25 O25        -3.6490    2.6860   -0.2420 o         1 4VW     -0.824800
     26 O26         3.2040   -1.9490    1.1370 o         1 4VW     -0.671100
     27 O27        -4.7170    0.9550    0.5130 o         1 4VW     -0.824800
     28 O28        -3.4460    3.7100    5.0960 os        1 4VW     -0.338400
     29 O29        -4.7330    3.4410    3.2380 os        1 4VW     -0.300400
     30 H1          2.8850   -1.2020   -3.0700 ha        1 4VW      0.151500
     31 H4          4.7800   -1.9570   -4.3920 ha        1 4VW      0.077500
     32 H2          4.8150   -2.6550    0.3640 ha        1 4VW      0.076000
     33 H5          6.6760   -3.3970   -0.9310 ha        1 4VW      0.076000
     34 H3         -0.2460    0.9190    3.2920 ha        1 4VW      0.061500
     35 H6         -0.9300    2.3110    5.0790 ha        1 4VW      0.074500
     36 H181       -1.2470   -0.7550    2.3230 hc        1 4VW      0.051200
     37 H182       -2.4680   -0.5820    1.2810 hc        1 4VW      0.051200
     38 H231        7.8040   -3.2630   -3.1600 hn        1 4VW      0.374300
     39 H232        6.8830   -3.3890   -4.4350 hn        1 4VW      0.374300
     40 H24         1.4390   -0.3070   -0.8570 hn        1 4VW      0.360500
     41 H151       -4.8120    5.0380    4.4650 h2        1 4VW      0.052700
     42 H152       -5.4410    3.5680    5.1130 h2        1 4VW      0.052700
     43 H161       -0.8340   -0.7000   -3.3430 hc        1 4VW      0.035200
     44 H162        0.1010    0.5200   -3.0130 hc        1 4VW      0.035200
     45 H163       -1.2060    0.7360   -3.8550 hc        1 4VW      0.035200
     46 H21        -1.2620    1.3140   -1.4490 hc        1 4VW      0.043700
     47 H171       -3.6110    0.5590   -1.3800 hc        1 4VW      0.035200
     48 H172       -3.2790    1.5570   -2.5960 hc        1 4VW      0.035200
     49 H173       -3.3880   -0.0650   -2.8260 hc        1 4VW      0.035200
     50 H22        -0.2990    0.7380    0.2820 hc        1 4VW      0.112700
     51 H191       -0.8120   -1.4260   -1.3420 hc        1 4VW      0.030200
     52 H192       -2.2680   -1.0840   -0.6450 hc        1 4VW      0.030200
     53 H201        0.1880   -2.0380    0.7000 h1        1 4VW      0.043200
     54 H202        0.8350   -0.9170    1.6920 h1        1 4VW      0.043200
@<TRIPOS>BOND
     1    1    7 3   
     2    1   30 1   
     3    2    5 3   
     4    2   32 1   
     5    3    9 3   
     6    3   34 1   
     7    4   10 3   
     8    4   31 1   
     9    5   33 1   
    10    6   11 3   
    11    6   35 1   
    12    7   13 1   
    13    8   12 3   
    14    8   14 1   
    15    9   18 1   
    16   10   23 1   
    17   11   28 1   
    18   12   29 1   
    19   13   24 1   
    20   13   26 2   
    21   14   25 1   
    22   14   27 1   
    23   15   28 1   
    24   15   29 1   
    25   15   41 1   
    26   15   42 1   
    27   16   21 1   
    28   16   43 1   
    29   16   44 1   
    30   16   45 1   
    31   17   21 1   
    32   17   47 1   
    33   17   48 1   
    34   17   49 1   
    35   18   22 1   
    36   18   36 1   
    37   18   37 1   
    38   19   21 1   
    39   19   22 1   
    40   19   51 1   
    41   19   52 1   
    42   20   22 1   
    43   20   24 1   
    44   20   53 1   
    45   20   54 1   
    46   21   46 1   
    47   22   50 1   
    48   23   38 1   
    49   23   39 1   
    50   24   40 1   
@<TRIPOS>SUBSTRUCTURE
     1 4VW         1 TEMP              0 ****  ****    0 ROOT
