@<TRIPOS>MOLECULE
4VW
   55    53     1     0     0
SMALL
bcc


@<TRIPOS>ATOM
      1 C1          1.8200   -0.0130   -0.2480 c1        1 4VW      0.225000
      2 C2         -1.1010   -0.4390    1.9560 c2        1 4VW     -0.035000
      3 C3         -7.7550   -1.5170    3.9010 ca        1 4VW     -0.051000
      4 C4          1.4020    0.7410    0.7440 c2        1 4VW     -0.471000
      5 C5          0.1280   -0.1880    2.6620 c2        1 4VW     -0.243000
      6 C6         -8.2030   -2.6620    4.5400 ca        1 4VW     -0.135000
      7 C7         -1.5930    0.2950    0.9460 c2        1 4VW     -0.265000
      8 C8         -5.3750   -2.2350    3.9420 ca        1 4VW      0.082000
      9 C9         -6.3730   -1.2650    3.6270 ca        1 4VW     -0.174000
     10 C10         1.2700    0.3580    2.1590 c2        1 4VW      0.106000
     11 C11        -7.2160   -3.5860    4.8770 ca        1 4VW      0.058000
     12 C12        -5.8490   -3.3730    4.5770 ca        1 4VW     -0.067000
     13 C13        -2.9000    0.0080    0.3100 c2        1 4VW      0.347000
     14 C15        -6.0500   -5.3730    5.5890 c1        1 4VW      0.193000
     15 C18        -6.0710   -0.0250    3.0120 c2        1 4VW      0.208000
     16 C19        -4.5970    1.7260    2.2220 c2        1 4VW      0.115000
     17 C20        -4.3900   -1.6650   -0.6920 c3        1 4VW     -0.093000
     18 C21        -1.8850    2.0380    5.0200 c3        1 4VW     -0.205000
     19 C22        -4.8370    0.6340    3.0110 c2        1 4VW     -0.298000
     20 N23         2.3770    0.6550    2.9610 n3        1 4VW     -0.333000
     21 N24        -3.1180   -1.2600   -0.1740 n         1 4VW     -0.312000
     22 O25        -3.6370   -2.5190    2.3580 o         1 4VW     -0.517500
     23 O26        -3.7570    0.9270    0.1620 o         1 4VW     -0.473000
     24 O27        -3.1030   -1.6020    4.3330 o         1 4VW     -0.517500
     25 O28        -7.3070   -4.8290    5.5000 os        1 4VW     -0.159000
     26 O29        -5.1640   -4.5180    5.0390 os        1 4VW     -0.112000
     27 H1         -1.0870    1.1810    0.5360 ha        1 4VW      0.141000
     28 H4          1.1140    1.7940    0.5310 ha        1 4VW      0.208000
     29 H2         -1.6930   -1.2910    2.3710 ha        1 4VW      0.191000
     30 H5          0.0950   -0.5030    3.7230 ha        1 4VW      0.151000
     31 H3         -8.4960   -0.7540    3.6070 ha        1 4VW      0.143000
     32 H6         -9.2630   -2.8390    4.7640 ha        1 4VW      0.173000
     33 H181       -4.0120    0.2380    3.6490 ha        1 4VW      0.225000
     34 H182       -6.9220    0.4900    2.5140 ha        1 4VW      0.130000
     35 H231        3.2510    0.6490    2.4870 hn        1 4VW      0.192000
     36 H232        2.3930    0.1850    3.8390 hn        1 4VW      0.192000
     37 H24        -2.5740   -1.9910    0.2420 hn        1 4VW      0.251000
     38 H151       -6.4600   -6.5160    3.4740 ha        1 4VW      0.003500
     39 H152       -6.0700   -7.0010    3.7440 ha        1 4VW      0.003500
     40 H161       -1.4280    2.9820    5.4040 hc        1 4VW      0.064000
     41 H162       -2.9200    2.7420    7.4870 hc        1 4VW      0.064000
     42 H163       -3.6160    1.1160    7.8780 hc        1 4VW      0.064000
     43 H21        -2.7200    0.1810    5.7390 hc        1 4VW      0.101500
     44 H171       -1.1380    1.5160    4.3720 hc        1 4VW      0.064000
     45 H172       -1.4020    0.8680    6.7660 hc        1 4VW      0.101500
     46 H173       -4.2470    2.0570    6.4660 hc        1 4VW      0.064000
     47 H22        -3.6160    2.2300    2.2370 ha        1 4VW      0.150500
     48 H191       -5.3460    2.1470    1.5330 ha        1 4VW      0.150500
     49 H192       -2.7670    2.3080    4.3880 hc        1 4VW      0.064000
     50 H201       -4.2180   -2.3690   -1.5490 h1        1 4VW      0.084667
     51 H202       -4.9910   -2.1970    0.0960 h1        1 4VW      0.084667
     52 C16        -3.3260    1.8000    7.0450 c3        1 4VW     -0.205000
     53 C17        -2.3040    1.1410    6.1560 c3        1 4VW     -0.181000
     54 H242       -4.9640   -0.7730   -1.0570 h1        1 4VW      0.084667
     55 C14        -3.9080   -2.1160    3.5180 c2        1 4VW      0.366000
@<TRIPOS>BOND
     1    1    4 1   
     2    2    5 1   
     3    2    7 1   
     4    2   29 1   
     5    3    6 1   
     6    3    9 1   
     7    3   31 1   
     8    4   10 1   
     9    4   28 1   
    10    5   10 1   
    11    5   30 1   
    12    6   11 1   
    13    6   32 1   
    14    7   13 1   
    15    7   27 1   
    16    8    9 1   
    17    8   12 1   
    18    8   55 1   
    19    9   15 1   
    20   10   20 1   
    21   11   12 1   
    22   11   25 1   
    23   12   26 1   
    24   13   21 1   
    25   13   23 1   
    26   14   25 1   
    27   14   26 1   
    28   15   19 1   
    29   15   34 1   
    30   16   19 1   
    31   16   47 1   
    32   16   48 1   
    33   17   21 1   
    34   17   50 1   
    35   17   51 1   
    36   17   54 1   
    37   18   40 1   
    38   18   44 1   
    39   18   49 1   
    40   18   53 1   
    41   19   33 1   
    42   20   35 1   
    43   20   36 1   
    44   21   37 1   
    45   22   55 1   
    46   24   55 1   
    47   38   39 1   
    48   41   52 1   
    49   42   52 1   
    50   43   53 1   
    51   45   53 1   
    52   46   52 1   
    53   52   53 1   
@<TRIPOS>SUBSTRUCTURE
     1 4VW         1 TEMP              0 ****  ****    0 ROOT
