@<TRIPOS>MOLECULE
4VY
   23    23     1     0     0
SMALL
bcc


@<TRIPOS>ATOM
      1 C1          0.1970   -0.0060    0.0620 c3        1 4VY      0.184100
      2 N2          1.6150    0.2480    0.0340 nh        1 4VY     -0.751300
      3 C3          2.3270   -0.0580    1.2540 c3        1 4VY      0.204800
      4 C4          2.2310   -1.5080    1.7550 c3        1 4VY      0.097400
      5 O5          2.9600   -2.3280    0.8620 oh        1 4VY     -0.588800
      6 C6          2.2670    0.1410   -1.2110 ca        1 4VY      0.677200
      7 C7          1.5090   -0.0140   -2.4150 ca        1 4VY     -0.309300
      8 C8          2.1630   -0.0140   -3.6420 ca        1 4VY     -0.033000
      9 C9          3.5520    0.1280   -3.6870 ca        1 4VY     -0.206200
     10 C10         4.2310    0.2650   -2.4580 ca        1 4VY      0.468200
     11 N11         3.6370    0.2730   -1.2620 nb        1 4VY     -0.709000
     12 Br          4.4830    0.1310   -5.2980 br        1 4VY     -0.079100
     13 H11C       -0.0650   -1.0380   -0.2990 h1        1 4VY      0.041033
     14 H12C       -0.1760    0.1080    1.1150 h1        1 4VY      0.041033
     15 H13C       -0.3260    0.7500   -0.5820 h1        1 4VY      0.041033
     16 H31C        1.8860    0.5980    2.0610 h1        1 4VY      0.075700
     17 H32C        3.4160    0.2050    1.1460 h1        1 4VY      0.075700
     18 H41C        2.6790   -1.5590    2.7840 h1        1 4VY      0.024200
     19 H42C        1.1620   -1.8510    1.8060 h1        1 4VY      0.024200
     20 H5          2.9350   -3.2210    1.2240 ho        1 4VY      0.399000
     21 H7          0.4180   -0.1370   -2.3950 ha        1 4VY      0.144000
     22 H8          1.5790   -0.1320   -4.5680 ha        1 4VY      0.146000
     23 H10         5.3320    0.3760   -2.4270 h4        1 4VY      0.032100
@<TRIPOS>BOND
     1    1    2 1   
     2    1   13 1   
     3    1   14 1   
     4    1   15 1   
     5    2    3 1   
     6    2    6 1   
     7    3    4 1   
     8    3   16 1   
     9    3   17 1   
    10    4    5 1   
    11    4   18 1   
    12    4   19 1   
    13    5   20 1   
    14    6    7 ar  
    15    6   11 ar  
    16    7    8 ar  
    17    7   21 1   
    18    8    9 ar  
    19    8   22 1   
    20    9   10 ar  
    21    9   12 1   
    22   10   11 ar  
    23   10   23 1   
@<TRIPOS>SUBSTRUCTURE
     1 4VY         1 TEMP              0 ****  ****    0 ROOT
