@<TRIPOS>MOLECULE
4VY
   23    23     1     0     0
SMALL
bcc


@<TRIPOS>ATOM
      1 C1          0.1910   -0.0040    0.0450 c3        1 4VY      0.184100
      2 N2          1.6100    0.2470    0.0300 nh        1 4VY     -0.751300
      3 C3          2.3100   -0.0630    1.2570 c3        1 4VY      0.204800
      4 C4          2.2050   -1.5140    1.7530 c3        1 4VY      0.097400
      5 O5          2.9410   -2.3330    0.8650 oh        1 4VY     -0.588800
      6 C6          2.2720    0.1420   -1.2090 ca        1 4VY      0.677200
      7 C7          1.5260   -0.0090   -2.4210 ca        1 4VY     -0.309300
      8 C8          2.1910   -0.0070   -3.6400 ca        1 4VY     -0.033000
      9 C9          3.5810    0.1320   -3.6720 ca        1 4VY     -0.206200
     10 C10         4.2480    0.2650   -2.4370 ca        1 4VY      0.468200
     11 N11         3.6440    0.2710   -1.2460 nb        1 4VY     -0.709000
     12 BR          4.5270    0.1380   -5.2750 br        1 4VY     -0.079100
     13 H11C       -0.0700   -1.0340   -0.3220 h1        1 4VY      0.041033
     14 H12C       -0.1920    0.1090    1.0940 h1        1 4VY      0.041033
     15 H13C       -0.3250    0.7550   -0.6030 h1        1 4VY      0.041033
     16 H31C        3.4000    0.1980    1.1590 h1        1 4VY      0.075700
     17 H32C        1.8620    0.5920    2.0600 h1        1 4VY      0.075700
     18 H41C        2.6440   -1.5690    2.7860 h1        1 4VY      0.024200
     19 H42C        1.1360   -1.8550    1.7930 h1        1 4VY      0.024200
     20 H5          2.9110   -3.2280    1.2240 ho        1 4VY      0.399000
     21 H7          0.4350   -0.1300   -2.4100 ha        1 4VY      0.144000
     22 H8          1.6160   -0.1220   -4.5730 ha        1 4VY      0.146000
     23 H10         5.3500    0.3730   -2.3950 h4        1 4VY      0.032100
@<TRIPOS>BOND
     1    1    2 1   
     2    1   13 1   
     3    1   14 1   
     4    1   15 1   
     5    2    3 1   
     6    2    6 1   
     7    3    4 1   
     8    3   16 1   
     9    3   17 1   
    10    4    5 1   
    11    4   18 1   
    12    4   19 1   
    13    5   20 1   
    14    6    7 ar  
    15    6   11 ar  
    16    7    8 ar  
    17    7   21 1   
    18    8    9 ar  
    19    8   22 1   
    20    9   10 ar  
    21    9   12 1   
    22   10   11 ar  
    23   10   23 1   
@<TRIPOS>SUBSTRUCTURE
     1 4VY         1 TEMP              0 ****  ****    0 ROOT
