@<TRIPOS>MOLECULE
4W4
   43    45     1     0     0
SMALL
bcc


@<TRIPOS>ATOM
      1 C1          0.0020    0.3230    0.0500 c3        1 4W4     -0.095100
      2 C2          1.4550   -0.0730    0.0930 c3        1 4W4     -0.080400
      3 C3          2.0320    0.1030    1.4840 c3        1 4W4     -0.082400
      4 C4          3.4980   -0.2800    1.5070 c3        1 4W4     -0.059200
      5 C5          4.0750   -0.2370    2.8930 cc        1 4W4      0.183800
      6 C6          4.5740   -1.3630    3.4870 cd        1 4W4     -0.325200
      7 C7          5.1640   -1.3780    4.8300 c         1 4W4      0.630500
      8 O8          5.6170   -2.3810    5.3890 o         1 4W4     -0.549500
      9 N9          5.1770   -0.0940    5.4800 n         1 4W4      0.085300
     10 N10         5.6540    0.2120    6.7070 nc        1 4W4     -0.528800
     11 C11         5.4600    1.5630    6.8870 cd        1 4W4      0.602200
     12 N12         5.8960    2.3210    7.9650 nh        1 4W4     -0.809900
     13 C13         6.2800    1.6260    9.1780 c3        1 4W4      0.240100
     14 C14         6.5250    2.5690   10.3170 ca        1 4W4     -0.147300
     15 C15         5.5970    2.6830   11.3540 ca        1 4W4     -0.086000
     16 C16         5.8240    3.5330   12.4330 ca        1 4W4     -0.144000
     17 C17         7.0000    4.2890   12.4780 ca        1 4W4      0.049400
     18 CL1         7.2820    5.3300   13.7900 cl        1 4W4     -0.078400
     19 C19         7.9490    4.2000   11.4590 ca        1 4W4     -0.170000
     20 C20         7.7090    3.3350   10.3730 ca        1 4W4      0.162900
     21 F21         8.6330    3.2440    9.3900 f         1 4W4     -0.121900
     22 C22         4.8010    2.1430    5.7060 cd        1 4W4     -0.284300
     23 C23         4.4270    3.4690    5.5060 ch        1 4W4      0.273800
     24 N24         4.1120    4.5790    5.3440 n1        1 4W4     -0.387800
     25 C25         4.6460    1.0490    4.8220 cc        1 4W4      0.197300
     26 N26         4.1030    0.9860    3.5530 na        1 4W4     -0.602400
     27 H1         -0.1250    1.3950    0.3360 hc        1 4W4      0.038033
     28 H2         -0.5990   -0.3010    0.7560 hc        1 4W4      0.038033
     29 H3         -0.4060    0.1820   -0.9800 hc        1 4W4      0.038033
     30 H4          1.5640   -1.1430   -0.2240 hc        1 4W4      0.043200
     31 H5          2.0380    0.5500   -0.6350 hc        1 4W4      0.043200
     32 H6          1.9030    1.1700    1.8050 hc        1 4W4      0.048700
     33 H7          1.4620   -0.5350    2.2100 hc        1 4W4      0.048700
     34 H8          4.0830    0.4080    0.8380 hc        1 4W4      0.072700
     35 H9          3.6210   -1.3210    1.1020 hc        1 4W4      0.072700
     36 H10         4.5590   -2.3370    2.9780 ha        1 4W4      0.181000
     37 H12         5.3640    3.1560    8.1010 hn        1 4W4      0.419800
     38 H13         5.4980    0.8690    9.4850 h1        1 4W4      0.068200
     39 H14         7.2320    1.0600    8.9530 h1        1 4W4      0.068200
     40 H15         4.6710    2.0860   11.3200 ha        1 4W4      0.146000
     41 H16         5.0830    3.6080   13.2430 ha        1 4W4      0.154000
     42 H17         8.8770    4.7910   11.4880 ha        1 4W4      0.166000
     43 H11         3.7430    1.8130    3.1360 hn        1 4W4      0.478800
@<TRIPOS>BOND
     1    1    2 1   
     2    1   27 1   
     3    1   28 1   
     4    1   29 1   
     5    2    3 1   
     6    2   30 1   
     7    2   31 1   
     8    3    4 1   
     9    3   32 1   
    10    3   33 1   
    11    4    5 1   
    12    4   34 1   
    13    4   35 1   
    14    5    6 2   
    15    5   26 1   
    16    6    7 1   
    17    6   36 1   
    18    7    8 2   
    19    7    9 1   
    20    9   10 1   
    21    9   25 1   
    22   10   11 2   
    23   11   12 1   
    24   11   22 1   
    25   12   13 1   
    26   12   37 1   
    27   13   14 1   
    28   13   38 1   
    29   13   39 1   
    30   14   15 ar  
    31   14   20 ar  
    32   15   16 ar  
    33   15   40 1   
    34   16   17 ar  
    35   16   41 1   
    36   17   18 1   
    37   17   19 ar  
    38   19   20 ar  
    39   19   42 1   
    40   20   21 1   
    41   22   23 1   
    42   22   25 2   
    43   23   24 3   
    44   25   26 1   
    45   26   43 1   
@<TRIPOS>SUBSTRUCTURE
     1 4W4         1 TEMP              0 ****  ****    0 ROOT
