@<TRIPOS>MOLECULE
4W4
   43    45     1     0     0
SMALL
bcc


@<TRIPOS>ATOM
      1 C1         -0.0140    0.3090    0.0700 c3        1 4W4     -0.095100
      2 C2          1.4570   -0.0170    0.0860 c3        1 4W4     -0.080400
      3 C3          2.0400    0.1410    1.4760 c3        1 4W4     -0.082400
      4 C4          3.5230   -0.1720    1.4730 c3        1 4W4     -0.059200
      5 C5          4.1130   -0.1470    2.8540 cc        1 4W4      0.183800
      6 C6          4.6690   -1.2660    3.4070 cd        1 4W4     -0.325200
      7 C7          5.2740   -1.2960    4.7440 c         1 4W4      0.630500
      8 O8          5.7790   -2.2940    5.2660 o         1 4W4     -0.549500
      9 N9          5.2340   -0.0350    5.4340 n         1 4W4      0.085300
     10 N10         5.7090    0.2540    6.6670 nc        1 4W4     -0.528800
     11 C11         5.4540    1.5880    6.8920 cd        1 4W4      0.602200
     12 N12         5.8660    2.3300    7.9900 nu        1 4W4     -0.809900
     13 C13         6.2940    1.6150    9.1760 c3        1 4W4      0.240100
     14 C14         6.5080    2.5330   10.3430 ca        1 4W4     -0.147300
     15 C15         5.5830    2.5730   11.3890 ca        1 4W4     -0.086000
     16 C16         5.7820    3.3980   12.4930 ca        1 4W4     -0.144000
     17 C17         6.9250    4.2030   12.5540 ca        1 4W4      0.049400
     18 Cl1         7.1710    5.2140   13.8960 cl        1 4W4     -0.078400
     19 C19         7.8680    4.1880   11.5260 ca        1 4W4     -0.170000
     20 C20         7.6570    3.3480   10.4160 ca        1 4W4      0.162900
     21 F21         8.5760    3.3280    9.4240 f         1 4W4     -0.121900
     22 C22         4.7570    2.1740    5.7360 cd        1 4W4     -0.284300
     23 C23         4.3190    3.4860    5.5830 ch        1 4W4      0.273800
     24 N24         3.9510    4.5850    5.4600 n1        1 4W4     -0.387800
     25 C25         4.6430    1.1030    4.8190 cc        1 4W4      0.197300
     26 N26         4.0910    1.0550    3.5530 na        1 4W4     -0.602400
     27 H1         -0.4250    0.1820   -0.9610 hc        1 4W4      0.038033
     28 H2         -0.1890    1.3640    0.3920 hc        1 4W4      0.038033
     29 H3         -0.5760   -0.3660    0.7600 hc        1 4W4      0.038033
     30 H4          1.6140   -1.0710   -0.2680 hc        1 4W4      0.043200
     31 H5          2.0020    0.6560   -0.6270 hc        1 4W4      0.043200
     32 H6          1.8650    1.1900    1.8330 hc        1 4W4      0.048700
     33 H7          1.5090   -0.5460    2.1860 hc        1 4W4      0.048700
     34 H8          3.6910   -1.1920    1.0330 hc        1 4W4      0.072700
     35 H9          4.0680    0.5650    0.8220 hc        1 4W4      0.072700
     36 H10         4.6950   -2.2230    2.8670 ha        1 4W4      0.181000
     37 H12         5.2970    3.1350    8.1570 hn        1 4W4      0.419800
     38 H13         7.2690    1.1030    8.9240 h1        1 4W4      0.068200
     39 H14         5.5510    0.8140    9.4660 h1        1 4W4      0.068200
     40 H15         4.6840    1.9380   11.3430 ha        1 4W4      0.146000
     41 H16         5.0450    3.4160   13.3090 ha        1 4W4      0.154000
     42 H17         8.7690    4.8170   11.5680 ha        1 4W4      0.166000
     43 H11         3.6880    1.8770    3.1670 hn        1 4W4      0.478800
@<TRIPOS>BOND
     1    1    2 1   
     2    1   27 1   
     3    1   28 1   
     4    1   29 1   
     5    2    3 1   
     6    2   30 1   
     7    2   31 1   
     8    3    4 1   
     9    3   32 1   
    10    3   33 1   
    11    4    5 1   
    12    4   34 1   
    13    4   35 1   
    14    5    6 2   
    15    5   26 1   
    16    6    7 1   
    17    6   36 1   
    18    7    8 2   
    19    7    9 1   
    20    9   10 1   
    21    9   25 1   
    22   10   11 2   
    23   11   12 1   
    24   11   22 1   
    25   12   13 1   
    26   12   37 1   
    27   13   14 1   
    28   13   38 1   
    29   13   39 1   
    30   14   15 ar  
    31   14   20 ar  
    32   15   16 ar  
    33   15   40 1   
    34   16   17 ar  
    35   16   41 1   
    36   17   18 1   
    37   17   19 ar  
    38   19   20 ar  
    39   19   42 1   
    40   20   21 1   
    41   22   23 1   
    42   22   25 2   
    43   23   24 3   
    44   25   26 1   
    45   26   43 1   
@<TRIPOS>SUBSTRUCTURE
     1 4W4         1 TEMP              0 ****  ****    0 ROOT
