@<TRIPOS>MOLECULE
4W6
   42    44     1     0     0
SMALL
bcc


@<TRIPOS>ATOM
      1 C1          0.7490    0.9230   -0.3180 c3        1 4W6     -0.097100
      2 C2          2.1020    0.2780   -0.1570 c3        1 4W6     -0.081400
      3 C3          2.6650    0.5450    1.2260 c3        1 4W6     -0.061200
      4 C4          4.0640    0.0220    1.3820 cc        1 4W6      0.190800
      5 C5          5.1100    0.8660    1.6400 cd        1 4W6     -0.330200
      6 C6          6.4920    0.4150    1.8210 c         1 4W6      0.634500
      7 O7          7.4550    1.1510    2.0450 o         1 4W6     -0.545500
      8 N8          6.6620   -1.0130    1.7090 n         1 4W6      0.080300
      9 N9          7.7910   -1.7370    1.8380 nc        1 4W6     -0.467800
     10 C10         7.4650   -3.0420    1.6550 cd        1 4W6      0.390600
     11 C11         8.4150   -4.1760    1.7060 c3        1 4W6     -0.181700
     12 C12         9.2910   -4.1170    2.9510 c         1 4W6      0.667100
     13 O13         8.8500   -4.5200    4.0460 o         1 4W6     -0.600100
     14 N14        10.6060   -3.7100    2.8350 n         1 4W6     -0.458800
     15 C15        11.1390   -2.9860    1.6970 c3        1 4W6      0.085000
     16 C16        12.3910   -2.2260    2.1690 c3        1 4W6     -0.089900
     17 C17        12.5580   -2.5420    3.6510 c3        1 4W6     -0.089900
     18 C18        11.4240   -3.5090    4.0220 c3        1 4W6      0.085000
     19 C19         6.0380   -3.1790    1.3880 cd        1 4W6     -0.237300
     20 C20         5.3140   -4.3460    1.1460 ch        1 4W6      0.270800
     21 N21         4.7100   -5.3200    0.9400 n1        1 4W6     -0.373800
     22 C22         5.5420   -1.8530    1.4360 cc        1 4W6      0.176300
     23 N23         4.2670   -1.3480    1.2690 na        1 4W6     -0.600400
     24 H1          0.8210    2.0310   -0.1930 hc        1 4W6      0.042033
     25 H2          0.3410    0.7090   -1.3350 hc        1 4W6      0.042033
     26 H3          0.0300    0.5300    0.4410 hc        1 4W6      0.042033
     27 H4          2.8060    0.6790   -0.9330 hc        1 4W6      0.048700
     28 H5          2.0100   -0.8270   -0.3290 hc        1 4W6      0.048700
     29 H6          2.0030    0.0770    2.0040 hc        1 4W6      0.074200
     30 H7          2.6750    1.6510    1.4190 hc        1 4W6      0.074200
     31 H8          4.9630    1.9510    1.7290 ha        1 4W6      0.183000
     32 H10         9.0290   -4.1940    0.7650 hc        1 4W6      0.089200
     33 H11         7.8320   -5.1370    1.7590 hc        1 4W6      0.089200
     34 H12        10.3820   -2.2690    1.2760 h1        1 4W6      0.053200
     35 H13        11.4080   -3.7240    0.8910 h1        1 4W6      0.053200
     36 H14        12.2580   -1.1280    2.0060 hc        1 4W6      0.052700
     37 H15        13.2840   -2.5550    1.5850 hc        1 4W6      0.052700
     38 H16        13.5500   -3.0140    3.8520 hc        1 4W6      0.052700
     39 H17        12.4900   -1.6120    4.2670 hc        1 4W6      0.052700
     40 H18        11.8330   -4.5050    4.3470 h1        1 4W6      0.053200
     41 H19        10.7970   -3.1040    4.8640 h1        1 4W6      0.053200
     42 H9          3.5160   -1.9750    1.0910 hn        1 4W6      0.479800
@<TRIPOS>BOND
     1    1    2 1   
     2    1   24 1   
     3    1   25 1   
     4    1   26 1   
     5    2    3 1   
     6    2   27 1   
     7    2   28 1   
     8    3    4 1   
     9    3   29 1   
    10    3   30 1   
    11    4    5 2   
    12    4   23 1   
    13    5    6 1   
    14    5   31 1   
    15    6    7 2   
    16    6    8 1   
    17    8    9 1   
    18    8   22 1   
    19    9   10 2   
    20   10   11 1   
    21   10   19 1   
    22   11   12 1   
    23   11   32 1   
    24   11   33 1   
    25   12   13 2   
    26   12   14 1   
    27   14   15 1   
    28   14   18 1   
    29   15   16 1   
    30   15   34 1   
    31   15   35 1   
    32   16   17 1   
    33   16   36 1   
    34   16   37 1   
    35   17   18 1   
    36   17   38 1   
    37   17   39 1   
    38   18   40 1   
    39   18   41 1   
    40   19   20 1   
    41   19   22 2   
    42   20   21 3   
    43   22   23 1   
    44   23   42 1   
@<TRIPOS>SUBSTRUCTURE
     1 4W6         1 TEMP              0 ****  ****    0 ROOT
