@<TRIPOS>MOLECULE
4W6
   42    44     1     0     0
SMALL
bcc


@<TRIPOS>ATOM
      1 C1          0.0720    0.0050   -0.1690 c3        1 4W6     -0.097100
      2 C2          1.5660   -0.1700   -0.0690 c3        1 4W6     -0.081400
      3 C3          2.0530    0.1400    1.3330 c3        1 4W6     -0.060200
      4 C4          3.5500    0.0930    1.4400 cc        1 4W6      0.188800
      5 C5          4.2700    1.2060    1.7760 cd        1 4W6     -0.329200
      6 C6          5.7290    1.2190    1.9170 c         1 4W6      0.634500
      7 O7          6.4030    2.2100    2.2060 o         1 4W6     -0.542500
      8 N8          6.3530   -0.0580    1.6770 n         1 4W6      0.081300
      9 N9          7.6580   -0.3830    1.7500 nc        1 4W6     -0.444800
     10 C10         7.7680   -1.7020    1.4500 cd        1 4W6      0.393600
     11 C11         9.0430   -2.4550    1.4200 c3        1 4W6     -0.178700
     12 C12         9.5860   -2.6990    2.8200 c         1 4W6      0.666100
     13 O13         8.8770   -2.6050    3.8390 o         1 4W6     -0.587100
     14 N14        10.9310   -3.0120    2.9340 n         1 4W6     -0.472800
     15 C15        11.7590   -3.4150    1.8160 c3        1 4W6      0.088500
     16 C16        12.9710   -4.1740    2.3830 c3        1 4W6     -0.090900
     17 C17        12.7950   -4.2020    3.8980 c3        1 4W6     -0.090900
     18 C18        11.5060   -3.4220    4.2030 c3        1 4W6      0.088500
     19 C19         6.4580   -2.2730    1.1610 cd        1 4W6     -0.239300
     20 C20         6.1520   -3.5870    0.8080 ch        1 4W6      0.274800
     21 N21         5.9000   -4.6850    0.5110 n1        1 4W6     -0.383800
     22 C22         5.5590   -1.1920    1.3260 cc        1 4W6      0.177300
     23 N23         4.1860   -1.1180    1.1960 na        1 4W6     -0.601400
     24 H1         -0.2190    1.0590    0.0610 hc        1 4W6      0.041367
     25 H2         -0.2740   -0.2380   -1.2030 hc        1 4W6      0.041367
     26 H3         -0.4550   -0.6690    0.5480 hc        1 4W6      0.041367
     27 H4          2.0760    0.5080   -0.8030 hc        1 4W6      0.048700
     28 H5          1.8360   -1.2240   -0.3460 hc        1 4W6      0.048700
     29 H6          1.6040   -0.5880    2.0630 hc        1 4W6      0.073700
     30 H7          1.7060    1.1660    1.6310 hc        1 4W6      0.073700
     31 H8          3.7800    2.1720    1.9650 ha        1 4W6      0.182000
     32 H10         8.8650   -3.4560    0.9380 hc        1 4W6      0.085200
     33 H11         9.7970   -1.8960    0.8000 hc        1 4W6      0.085200
     34 H12        11.1820   -4.0660    1.1020 h1        1 4W6      0.049700
     35 H13        12.0930   -2.4990    1.2530 h1        1 4W6      0.049700
     36 H14        13.0090   -5.2090    1.9640 hc        1 4W6      0.052950
     37 H15        13.9180   -3.6540    2.0990 hc        1 4W6      0.052950
     38 H16        13.6650   -3.7250    4.4110 hc        1 4W6      0.052950
     39 H17        12.7100   -5.2520    4.2710 hc        1 4W6      0.052950
     40 H18        10.7710   -4.0490    4.7800 h1        1 4W6      0.049700
     41 H19        11.7260   -2.5030    4.8140 h1        1 4W6      0.049700
     42 H9          3.6740   -1.9420    0.9770 hn        1 4W6      0.478800
@<TRIPOS>BOND
     1    1    2 1   
     2    1   24 1   
     3    1   25 1   
     4    1   26 1   
     5    2    3 1   
     6    2   27 1   
     7    2   28 1   
     8    3    4 1   
     9    3   29 1   
    10    3   30 1   
    11    4    5 2   
    12    4   23 1   
    13    5    6 1   
    14    5   31 1   
    15    6    7 2   
    16    6    8 1   
    17    8    9 1   
    18    8   22 1   
    19    9   10 2   
    20   10   11 1   
    21   10   19 1   
    22   11   12 1   
    23   11   32 1   
    24   11   33 1   
    25   12   13 2   
    26   12   14 1   
    27   14   15 1   
    28   14   18 1   
    29   15   16 1   
    30   15   34 1   
    31   15   35 1   
    32   16   17 1   
    33   16   36 1   
    34   16   37 1   
    35   17   18 1   
    36   17   38 1   
    37   17   39 1   
    38   18   40 1   
    39   18   41 1   
    40   19   20 1   
    41   19   22 2   
    42   20   21 3   
    43   22   23 1   
    44   23   42 1   
@<TRIPOS>SUBSTRUCTURE
     1 4W6         1 TEMP              0 ****  ****    0 ROOT
