@<TRIPOS>MOLECULE
4WA
   32    33     1     0     0
SMALL
bcc


@<TRIPOS>ATOM
      1 O10         0.0520   -0.5350   -0.3960 o         1 4WA     -0.576300
      2 S18         1.2430    0.0540   -0.0290 sy        1 4WA      1.509200
      3 O9          1.6850    0.0240    1.2760 o         1 4WA     -0.576300
      4 N8          2.4720   -1.2590   -0.7890 n4        1 4WA     -0.781500
      5 C4          1.7030    1.2900   -0.8930 ca        1 4WA     -0.614500
      6 C5          1.0630    1.6210   -2.1150 ca        1 4WA      0.023500
      7 C6          1.4170    2.7350   -2.8440 ca        1 4WA     -0.166000
      8 C1          2.4500    3.5960   -2.3870 ca        1 4WA      0.301400
      9 C2          3.0870    3.2910   -1.1530 ca        1 4WA     -0.166000
     10 C3          2.7170    2.1740   -0.4390 ca        1 4WA      0.023500
     11 N11         2.9800    4.6500   -3.1720 ne        1 4WA     -0.286400
     12 N12         2.2330    5.5040   -3.6640 nf        1 4WA     -0.111400
     13 C13         2.7330    6.5170   -4.5060 ca        1 4WA     -0.036600
     14 C18         1.8020    7.5120   -4.9090 ca        1 4WA     -0.001500
     15 C17         2.1800    8.5410   -5.7420 ca        1 4WA     -0.242500
     16 C16         3.5190    8.6400   -6.2240 ca        1 4WA      0.269600
     17 N19         3.8940    9.6550   -7.0530 nh        1 4WA     -0.853200
     18 C15         4.4520    7.6410   -5.8160 ca        1 4WA     -0.242500
     19 C14         4.0660    6.6150   -4.9810 ca        1 4WA     -0.001500
     20 H1          3.0670   -0.8540   -1.5030 hn        1 4WA      0.449133
     21 H2          3.0670   -1.6440   -0.0610 hn        1 4WA      0.449133
     22 H3          0.2390    0.9750   -2.4740 ha        1 4WA      0.164000
     23 H4          0.8870    2.9660   -3.7840 ha        1 4WA      0.180500
     24 H5          3.8760    3.9580   -0.7630 ha        1 4WA      0.180500
     25 H6          3.2070    1.9650    0.5320 ha        1 4WA      0.164000
     26 H9          0.7580    7.4670   -4.5510 ha        1 4WA      0.151500
     27 H10         1.4360    9.2980   -6.0370 ha        1 4WA      0.149000
     28 H11         3.2420   10.3500   -7.3190 hn        1 4WA      0.445300
     29 H12         4.8280    9.7220   -7.3700 hn        1 4WA      0.445300
     30 H13         5.4930    7.6900   -6.1690 ha        1 4WA      0.149000
     31 H14         4.8160    5.8630   -4.6840 ha        1 4WA      0.151500
     32 H83         1.9510   -2.0260   -1.2070 hn        1 4WA      0.449133
@<TRIPOS>BOND
     1    1    2 2   
     2    2    3 2   
     3    2    4 1   
     4    2    5 1   
     5    4   20 1   
     6    4   21 1   
     7    4   32 1   
     8    5    6 ar  
     9    5   10 ar  
    10    6    7 ar  
    11    6   22 1   
    12    7    8 ar  
    13    7   23 1   
    14    8    9 ar  
    15    8   11 1   
    16    9   10 ar  
    17    9   24 1   
    18   10   25 1   
    19   11   12 2   
    20   12   13 1   
    21   13   14 ar  
    22   13   19 ar  
    23   14   15 ar  
    24   14   26 1   
    25   15   16 ar  
    26   15   27 1   
    27   16   17 1   
    28   16   18 ar  
    29   17   28 1   
    30   17   29 1   
    31   18   19 ar  
    32   18   30 1   
    33   19   31 1   
@<TRIPOS>SUBSTRUCTURE
     1 4WA         1 TEMP              0 ****  ****    0 ROOT
