@<TRIPOS>MOLECULE
4WA
   32    33     1     0     0
SMALL
bcc


@<TRIPOS>ATOM
      1 O10         0.0400   -0.5280   -0.3950 o         1 4WA     -0.576300
      2 S18         1.2330    0.0580   -0.0290 sy        1 4WA      1.509200
      3 O9          1.6760    0.0260    1.2760 o         1 4WA     -0.576300
      4 N8          2.4580   -1.2590   -0.7910 nz        1 4WA     -0.781500
      5 C4          1.6960    1.2930   -0.8930 ca        1 4WA     -0.614500
      6 C5          1.0560    1.6260   -2.1140 ca        1 4WA      0.023500
      7 C6          1.4130    2.7390   -2.8430 ca        1 4WA     -0.166000
      8 C1          2.4490    3.5970   -2.3870 ca        1 4WA      0.301400
      9 C2          3.0860    3.2900   -1.1530 ca        1 4WA     -0.166000
     10 C3          2.7130    2.1740   -0.4390 ca        1 4WA      0.023500
     11 N11         2.9810    4.6490   -3.1720 ne        1 4WA     -0.286400
     12 N12         2.2370    5.5060   -3.6630 nf        1 4WA     -0.111400
     13 C13         2.7400    6.5180   -4.5050 ca        1 4WA     -0.036600
     14 C18         1.8110    7.5160   -4.9060 ca        1 4WA     -0.001500
     15 C17         2.1920    8.5450   -5.7400 ca        1 4WA     -0.242500
     16 C16         3.5300    8.6390   -6.2230 ca        1 4WA      0.269600
     17 N19         3.9080    9.6530   -7.0520 nv        1 4WA     -0.853200
     18 C15         4.4600    7.6370   -5.8160 ca        1 4WA     -0.242500
     19 C14         4.0720    6.6120   -4.9810 ca        1 4WA     -0.001500
     20 H1          1.9340   -2.0230   -1.2080 hn        1 4WA      0.449133
     21 H2          3.0520   -1.6460   -0.0630 hn        1 4WA      0.449133
     22 H3          0.2300    0.9830   -2.4740 ha        1 4WA      0.164000
     23 H4          0.8830    2.9720   -3.7830 ha        1 4WA      0.180500
     24 H5          3.8770    3.9540   -0.7640 ha        1 4WA      0.180500
     25 H6          3.2030    1.9630    0.5310 ha        1 4WA      0.164000
     26 H9          0.7670    7.4740   -4.5480 ha        1 4WA      0.151500
     27 H10         1.4500    9.3040   -6.0340 ha        1 4WA      0.149000
     28 H11         3.2590   10.3500   -7.3170 hn        1 4WA      0.445300
     29 H12         4.8420    9.7170   -7.3700 hn        1 4WA      0.445300
     30 H13         5.5020    7.6820   -6.1700 ha        1 4WA      0.149000
     31 H14         4.8200    5.8570   -4.6850 ha        1 4WA      0.151500
     32 H83         3.0530   -0.8550   -1.5050 hn        1 4WA      0.449133
@<TRIPOS>BOND
     1    1    2 2   
     2    2    3 2   
     3    2    4 1   
     4    2    5 1   
     5    4   20 1   
     6    4   21 1   
     7    4   32 1   
     8    5    6 ar  
     9    5   10 ar  
    10    6    7 ar  
    11    6   22 1   
    12    7    8 ar  
    13    7   23 1   
    14    8    9 ar  
    15    8   11 1   
    16    9   10 ar  
    17    9   24 1   
    18   10   25 1   
    19   11   12 2   
    20   12   13 1   
    21   13   14 ar  
    22   13   19 ar  
    23   14   15 ar  
    24   14   26 1   
    25   15   16 ar  
    26   15   27 1   
    27   16   17 1   
    28   16   18 ar  
    29   17   28 1   
    30   17   29 1   
    31   18   19 ar  
    32   18   30 1   
    33   19   31 1   
@<TRIPOS>SUBSTRUCTURE
     1 4WA         1 TEMP              0 ****  ****    0 ROOT
