@<TRIPOS>MOLECULE
4WC
   27    27     1     0     0
SMALL
bcc


@<TRIPOS>ATOM
      1 CAD         0.0170   -0.1560   -0.0220 c3        1 4WC     -0.072400
      2 CAC         1.5300   -0.0740   -0.0330 c3        1 4WC     -0.074400
      3 CAB         2.0860    0.0700    1.3690 c3        1 4WC     -0.072400
      4 CAG         1.5960   -1.0500    2.2660 c3        1 4WC     -0.074400
      5 CAF         0.0830   -1.1250    2.2750 c3        1 4WC     -0.072400
      6 CAE        -0.4750   -1.2900    0.8690 c3        1 4WC     -0.062700
      7 CAH        -1.9950   -1.3340    0.8810 c3        1 4WC     -0.080400
      8 CAI        -2.5430   -2.6900    1.3130 c3        1 4WC      0.014100
      9 CBM        -4.0750   -2.5860    1.5340 c         1 4WC      0.892600
     10 OBO        -4.4970   -1.8900    2.4960 o         1 4WC     -0.837300
     11 OBN        -4.8080   -3.2220    0.7210 o         1 4WC     -0.837300
     12 O3         -2.2170   -3.6730    0.3430 oh        1 4WC     -0.649800
     13 HAD1       -0.3540   -0.3170   -1.0670 hc        1 4WC      0.038950
     14 HAD2       -0.4100    0.8140    0.3430 hc        1 4WC      0.038950
     15 HAC1        1.8560    0.7990   -0.6560 hc        1 4WC      0.026950
     16 HAC2        1.9490   -1.0010   -0.5050 hc        1 4WC      0.026950
     17 HAE        -0.1020   -2.2650    0.4460 hc        1 4WC      0.059700
     18 HAB1        3.2060    0.0640    1.3340 hc        1 4WC      0.024700
     19 HAB2        1.7670    1.0560    1.7970 hc        1 4WC      0.024700
     20 HAG1        2.0160   -2.0250    1.9060 hc        1 4WC      0.026950
     21 HAG2        1.9720   -0.8850    3.3090 hc        1 4WC      0.026950
     22 HAF1       -0.2470   -1.9910    2.9070 hc        1 4WC      0.038950
     23 HAF2       -0.3370   -0.1930    2.7360 hc        1 4WC      0.038950
     24 HAH1       -2.4030   -0.5570    1.5790 hc        1 4WC      0.045700
     25 HAH2       -2.3780   -1.1100   -0.1480 hc        1 4WC      0.045700
     26 HAI        -2.0510   -3.0220    2.2670 h1        1 4WC      0.035700
     27 H3         -3.0430   -3.8950   -0.1190 ho        1 4WC      0.423000
@<TRIPOS>BOND
     1    1    2 1   
     2    1    6 1   
     3    1   13 1   
     4    1   14 1   
     5    2    3 1   
     6    2   15 1   
     7    2   16 1   
     8    3    4 1   
     9    3   18 1   
    10    3   19 1   
    11    4    5 1   
    12    4   20 1   
    13    4   21 1   
    14    5    6 1   
    15    5   22 1   
    16    5   23 1   
    17    6    7 1   
    18    6   17 1   
    19    7    8 1   
    20    7   24 1   
    21    7   25 1   
    22    8    9 1   
    23    8   12 1   
    24    8   26 1   
    25    9   10 1   
    26    9   11 1   
    27   12   27 1   
@<TRIPOS>SUBSTRUCTURE
     1 4WC         1 TEMP              0 ****  ****    0 ROOT
