@<TRIPOS>MOLECULE
4WC
   27    27     1     0     0
SMALL
bcc


@<TRIPOS>ATOM
      1 CAD         0.0340   -0.1910   -0.0440 c3        1 4WC     -0.072400
      2 CAC         1.5470   -0.1140   -0.0340 c3        1 4WC     -0.074400
      3 CAB         2.0820    0.0660    1.3730 c3        1 4WC     -0.072400
      4 CAG         1.5730   -1.0260    2.2910 c3        1 4WC     -0.074400
      5 CAF         0.0600   -1.0960    2.2790 c3        1 4WC     -0.072400
      6 CAE        -0.4770   -1.2970    0.8690 c3        1 4WC     -0.062700
      7 CAH        -1.9970   -1.3360    0.8590 c3        1 4WC     -0.080400
      8 CAI        -2.5570   -2.6770    1.3190 c3        1 4WC      0.014100
      9 CBM        -4.0920   -2.5620    1.5120 c         1 4WC      0.892600
     10 OBO        -4.5260   -1.8370    2.4470 o         1 4WC     -0.837300
     11 OBN        -4.8140   -3.2190    0.7060 o         1 4WC     -0.837300
     12 O3         -2.2190   -3.6890    0.3830 oh        1 4WC     -0.649800
     13 HAD1       -0.3950    0.7910    0.2870 hc        1 4WC      0.038950
     14 HAD2       -0.3210   -0.3790   -1.0910 hc        1 4WC      0.038950
     15 HAC1        1.8860    0.7400   -0.6760 hc        1 4WC      0.026950
     16 HAC2        1.9700   -1.0550   -0.4740 hc        1 4WC      0.026950
     17 HAE        -0.1010   -2.2860    0.4790 hc        1 4WC      0.059700
     18 HAB1        1.7600    1.0650    1.7680 hc        1 4WC      0.024700
     19 HAB2        3.2020    0.0560    1.3550 hc        1 4WC      0.024700
     20 HAG1        1.9330   -0.8350    3.3360 hc        1 4WC      0.026950
     21 HAG2        1.9950   -2.0130    1.9650 hc        1 4WC      0.026950
     22 HAF1       -0.3630   -0.1500    2.7080 hc        1 4WC      0.038950
     23 HAF2       -0.2830   -1.9430    2.9290 hc        1 4WC      0.038950
     24 HAH1       -2.3630   -1.1400   -0.1830 hc        1 4WC      0.045700
     25 HAH2       -2.4130   -0.5390    1.5280 hc        1 4WC      0.045700
     26 HAI        -2.0820   -2.9840    2.2910 h1        1 4WC      0.035700
     27 H3         -3.0380   -3.9200   -0.0860 ho        1 4WC      0.423000
@<TRIPOS>BOND
     1    1    2 1   
     2    1    6 1   
     3    1   13 1   
     4    1   14 1   
     5    2    3 1   
     6    2   15 1   
     7    2   16 1   
     8    3    4 1   
     9    3   18 1   
    10    3   19 1   
    11    4    5 1   
    12    4   20 1   
    13    4   21 1   
    14    5    6 1   
    15    5   22 1   
    16    5   23 1   
    17    6    7 1   
    18    6   17 1   
    19    7    8 1   
    20    7   24 1   
    21    7   25 1   
    22    8    9 1   
    23    8   12 1   
    24    8   26 1   
    25    9   10 1   
    26    9   11 1   
    27   12   27 1   
@<TRIPOS>SUBSTRUCTURE
     1 4WC         1 TEMP              0 ****  ****    0 ROOT
