@<TRIPOS>MOLECULE
4WF
   29    30     1     0     0
SMALL
bcc


@<TRIPOS>ATOM
      1 C           0.0960   -0.2050    0.1410 cc        1 4WF      0.396700
      2 N           2.2900   -0.3290   -1.0430 n4        1 4WF     -0.643400
      3 O          -0.4630   -0.6220   -1.0300 oh        1 4WF     -0.498100
      4 CA          1.4920   -0.0550    0.1270 cd        1 4WF     -0.373200
      5 CB          2.2040    0.3940    1.3360 c         1 4WF      0.751700
      6 OAC        -0.6370    0.6900    3.5040 o         1 4WF     -0.545500
      7 CAE        -3.7590   -3.9500    0.8720 ca        1 4WF     -0.093000
      8 CAF        -2.9340   -3.6480    1.9560 ca        1 4WF     -0.115500
      9 CAG        -4.0300   -2.9760   -0.0920 ca        1 4WF     -0.115500
     10 CAH        -2.3780   -2.3740    2.0780 ca        1 4WF     -0.120000
     11 CAI        -3.4710   -1.7050    0.0220 ca        1 4WF     -0.120000
     12 CA0         0.0240    0.4840    2.4760 c         1 4WF      0.819500
     13 CAJ        -2.1060   -0.0120    1.2670 c3        1 4WF      0.113300
     14 NAL        -0.6450    0.0840    1.2600 n         1 4WF     -0.376000
     15 OAN         3.4380    0.5420    1.3610 o         1 4WF     -0.599500
     16 NAB         1.4160    0.6370    2.4580 n         1 4WF     -0.560500
     17 CAQ        -2.6380   -1.4020    1.1070 ca        1 4WF     -0.177300
     18 HN1         3.2850   -0.1950   -0.7940 hn        1 4WF      0.467467
     19 HN2         2.0340    0.3140   -1.8000 hn        1 4WF      0.467467
     20 HAB         1.8530    0.9380    3.3110 hn        1 4WF      0.390500
     21 HAG        -4.6970   -3.2090   -0.9380 ha        1 4WF      0.156000
     22 HAH        -1.7510   -2.1280    2.9500 ha        1 4WF      0.140500
     23 HAI        -3.7200   -0.9330   -0.7240 ha        1 4WF      0.140500
     24 HAJ1       -2.4920    0.6590    0.4440 h1        1 4WF      0.107700
     25 HAJ2       -2.4710    0.4060    2.2550 h1        1 4WF      0.107700
     26 HO         -1.4080   -0.8650   -0.9320 ho        1 4WF      0.497000
     27 HAE        -4.2050   -4.9530    0.7820 ha        1 4WF      0.157000
     28 HN3         2.1350   -1.2940   -1.3560 hn        1 4WF      0.467467
     29 HAF        -2.7320   -4.4100    2.7250 ha        1 4WF      0.156000
@<TRIPOS>BOND
     1    1    3 1   
     2    1    4 2   
     3    1   14 1   
     4    2    4 1   
     5    2   18 1   
     6    2   19 1   
     7    2   28 1   
     8    3   26 1   
     9    4    5 1   
    10    5   15 2   
    11    5   16 1   
    12    6   12 2   
    13    7    8 ar  
    14    7    9 ar  
    15    7   27 1   
    16    8   10 ar  
    17    8   29 1   
    18    9   11 ar  
    19    9   21 1   
    20   10   17 ar  
    21   10   22 1   
    22   11   17 ar  
    23   11   23 1   
    24   12   14 1   
    25   12   16 1   
    26   13   14 1   
    27   13   17 1   
    28   13   24 1   
    29   13   25 1   
    30   16   20 1   
@<TRIPOS>SUBSTRUCTURE
     1 4WF         1 TEMP              0 ****  ****    0 ROOT
