@<TRIPOS>MOLECULE
4WF
   28    29     1     0     0
SMALL
bcc


@<TRIPOS>ATOM
      1 C           1.1610   -0.9290   -0.5250 cc        1 4WF      0.325700
      2 N           3.0790   -2.0900    0.4270 nh        1 4WF     -0.767600
      3 O           0.5810   -2.0800   -0.9930 oh        1 4WF     -0.495100
      4 CA          2.3620   -0.8970    0.1700 cd        1 4WF     -0.235200
      5 CB          2.8800    0.4020    0.6340 c         1 4WF      0.708700
      6 OAC         0.2570    2.5230   -0.6100 o         1 4WF     -0.635500
      7 CAE        -4.2110   -0.3290    1.1680 ca        1 4WF     -0.115000
      8 CAF        -3.7160    0.9450    0.8910 ca        1 4WF     -0.136500
      9 CAG        -3.6040   -1.4520    0.6040 ca        1 4WF     -0.136500
     10 CAH        -2.6190    1.1010    0.0460 ca        1 4WF     -0.104500
     11 CAI        -2.5060   -1.3010   -0.2410 ca        1 4WF     -0.104500
     12 CA0         0.9050    1.4820   -0.3700 c         1 4WF      0.816500
     13 CAJ        -0.8650    0.1470   -1.4760 c3        1 4WF      0.148300
     14 NAL         0.4390    0.2190   -0.8340 n         1 4WF     -0.367000
     15 OAN         3.9410    0.5430    1.2690 o         1 4WF     -0.628500
     16 NAB         2.1140    1.5390    0.3310 n         1 4WF     -0.580500
     17 CAQ        -2.0160   -0.0230   -0.5290 ca        1 4WF     -0.132300
     18 HN1         3.1680   -2.2210    1.4190 hn        1 4WF      0.369300
     19 HN2         3.9990   -2.0220    0.0300 hn        1 4WF      0.369300
     20 HAB         2.4240    2.4390    0.6310 hn        1 4WF      0.356500
     21 HAF        -4.1910    1.8300    1.3410 ha        1 4WF      0.135000
     22 HAG        -3.9910   -2.4570    0.8260 ha        1 4WF      0.135000
     23 HAH        -2.2140    2.1040   -0.1690 ha        1 4WF      0.147000
     24 HAI        -2.0150   -2.1830   -0.6810 ha        1 4WF      0.147000
     25 HAJ1       -1.0010    1.1070   -2.0580 h1        1 4WF      0.086200
     26 HAJ2       -0.8390   -0.7180   -2.2000 h1        1 4WF      0.086200
     27 HO          1.1690   -2.8260   -0.7740 ho        1 4WF      0.475000
     28 HAE        -5.0790   -0.4500    1.8340 ha        1 4WF      0.133000
@<TRIPOS>BOND
     1    1    3 1   
     2    1    4 2   
     3    1   14 1   
     4    2    4 1   
     5    2   18 1   
     6    2   19 1   
     7    3   27 1   
     8    4    5 1   
     9    5   15 2   
    10    5   16 1   
    11    6   12 2   
    12    7    8 ar  
    13    7    9 ar  
    14    7   28 1   
    15    8   10 ar  
    16    8   21 1   
    17    9   11 ar  
    18    9   22 1   
    19   10   17 ar  
    20   10   23 1   
    21   11   17 ar  
    22   11   24 1   
    23   12   14 1   
    24   12   16 1   
    25   13   14 1   
    26   13   17 1   
    27   13   25 1   
    28   13   26 1   
    29   16   20 1   
@<TRIPOS>SUBSTRUCTURE
     1 4WF         1 TEMP              0 ****  ****    0 ROOT
