@<TRIPOS>MOLECULE
4WF
   28    24     1     0     0
SMALL
bcc


@<TRIPOS>ATOM
      1 C           0.8960   -1.5190   -1.1000 c1        1 4WF      0.562500
      2 N           2.9890   -2.0640   -2.3680 nh        1 4WF     -0.767600
      3 O           0.1020   -1.8930   -2.2160 o         1 4WF     -0.250000
      4 CA          2.3670   -1.5550   -1.1990 ce        1 4WF     -0.298300
      5 CB          3.1870   -0.9790   -0.1160 c         1 4WF      0.672300
      6 OAC         0.5790   -0.3320    2.2730 o         1 4WF     -0.593500
      7 CAE        -2.6010    3.0730    1.0120 c1        1 4WF     -0.066000
      8 CAF        -2.0270    2.8300   -0.2260 c1        1 4WF     -0.066000
      9 CAG        -2.6590    2.0630    1.9620 c1        1 4WF     -0.066000
     10 CAH        -1.5090    1.5730   -0.5170 c1        1 4WF     -0.066000
     11 CAI        -2.1410    0.8080    1.6720 c1        1 4WF     -0.045500
     12 CA0         1.0980   -0.5330    1.1860 c1        1 4WF      0.640500
     13 CAJ        -1.1630   -0.8820    0.1340 c3        1 4WF      0.201900
     14 NAL         0.2780   -0.9740    0.0590 n2        1 4WF     -0.605600
     15 OAN         4.4030   -1.0040   -0.1900 o         1 4WF     -0.592100
     16 NAB         2.5560   -0.4520    1.0450 n         1 4WF     -0.513500
     17 CAQ        -1.5660    0.5630    0.4320 c1        1 4WF     -0.098100
     18 HN1         3.1620   -2.9610   -2.4420 hn        1 4WF      0.369300
     19 HN2         3.2150   -1.4960   -3.0530 hn        1 4WF      0.369300
     20 HAB         3.0630   -0.0920    1.7220 hn        1 4WF      0.356500
     21 HAE        -2.9660    3.9600    1.2170 ha        1 4WF      0.078000
     22 HAF        -1.9860    3.5440   -0.8970 ha        1 4WF      0.078000
     23 HAG        -3.0660    2.2360    2.8400 ha        1 4WF      0.078000
     24 HAH        -1.1040    1.4010   -1.3910 ha        1 4WF      0.078000
     25 HAI        -2.1820    0.0930    2.3440 ha        1 4WF      0.097500
     26 HAJ1       -1.4920   -1.4680    0.8490 h1        1 4WF      0.086200
     27 HAJ2       -1.5530   -1.1610   -0.7220 h1        1 4WF      0.086200
     28 HO          0.1190   -2.7800   -2.3090 ho        1 4WF      0.274000
@<TRIPOS>BOND
     1    1    4 2   
     2    1   14 2   
     3    2    4 1   
     4    2   18 1   
     5    2   19 1   
     6    3   28 1   
     7    4    5 1   
     8    5   15 2   
     9    5   16 1   
    10    6   12 2   
    11    7    9 3   
    12    7   21 1   
    13    8   10 3   
    14    8   22 1   
    15    9   23 1   
    16   10   24 1   
    17   11   17 3   
    18   11   25 1   
    19   12   16 2   
    20   13   14 1   
    21   13   17 1   
    22   13   26 1   
    23   13   27 1   
    24   16   20 1   
@<TRIPOS>SUBSTRUCTURE
     1 4WF         1 TEMP              0 ****  ****    0 ROOT
