@<TRIPOS>MOLECULE
4WF
   29    30     1     0     0
SMALL
bcc


@<TRIPOS>ATOM
      1 C           0.1180   -0.2180    0.1590 cc        1 4WF      0.396700
      2 N           2.3370   -0.3690   -0.9770 n4        1 4WF     -0.643400
      3 O          -0.4190   -0.6350   -1.0230 oh        1 4WF     -0.498100
      4 CA          1.5160   -0.0820    0.1740 cd        1 4WF     -0.373200
      5 CB          2.2060    0.3670    1.3960 c         1 4WF      0.751700
      6 OAC        -0.6790    0.7000    3.5000 o         1 4WF     -0.545500
      7 CAE        -3.7870   -3.9220    0.8250 ca        1 4WF     -0.093000
      8 CAF        -2.9840   -3.6220    1.9250 ca        1 4WF     -0.115500
      9 CAG        -4.0280   -2.9510   -0.1500 ca        1 4WF     -0.115500
     10 CAH        -2.4180   -2.3530    2.0530 ca        1 4WF     -0.120000
     11 CAI        -3.4590   -1.6850   -0.0300 ca        1 4WF     -0.120000
     12 CA0         0.0020    0.4830    2.4880 c         1 4WF      0.819500
     13 CAJ        -2.1050    0.0010    1.2350 c3        1 4WF      0.113300
     14 NAL        -0.6440    0.0840    1.2600 n         1 4WF     -0.376000
     15 OAN         3.4410    0.5020    1.4480 o         1 4WF     -0.599500
     16 NAB         1.3960    0.6230    2.5000 n         1 4WF     -0.560500
     17 CAQ        -2.6470   -1.3840    1.0710 ca        1 4WF     -0.177300
     18 HN1         2.1790   -1.3330   -1.2890 hn        1 4WF      0.467467
     19 HN2         2.1040    0.2740   -1.7420 hn        1 4WF      0.467467
     20 HAB         1.8180    0.9220    3.3610 hn        1 4WF      0.390500
     21 HAG        -4.6780   -3.1830   -1.0090 ha        1 4WF      0.156000
     22 HAH        -1.8090   -2.1090    2.9370 ha        1 4WF      0.140500
     23 HAI        -3.6830   -0.9150   -0.7860 ha        1 4WF      0.140500
     24 HAJ1       -2.4880    0.4280    2.2130 h1        1 4WF      0.107700
     25 HAJ2       -2.4670    0.6720    0.4010 h1        1 4WF      0.107700
     26 HO         -1.3680   -0.8680   -0.9440 ho        1 4WF      0.497000
     27 HAE        -4.2420   -4.9210    0.7300 ha        1 4WF      0.157000
     28 HN3         3.3280   -0.2440   -0.7070 hn        1 4WF      0.467467
     29 HAF        -2.8060   -4.3810    2.7030 ha        1 4WF      0.156000
@<TRIPOS>BOND
     1    1    3 1   
     2    1    4 2   
     3    1   14 1   
     4    2    4 1   
     5    2   18 1   
     6    2   19 1   
     7    2   28 1   
     8    3   26 1   
     9    4    5 1   
    10    5   15 2   
    11    5   16 1   
    12    6   12 2   
    13    7    8 ar  
    14    7    9 ar  
    15    7   27 1   
    16    8   10 ar  
    17    8   29 1   
    18    9   11 ar  
    19    9   21 1   
    20   10   17 ar  
    21   10   22 1   
    22   11   17 ar  
    23   11   23 1   
    24   12   14 1   
    25   12   16 1   
    26   13   14 1   
    27   13   17 1   
    28   13   24 1   
    29   13   25 1   
    30   16   20 1   
@<TRIPOS>SUBSTRUCTURE
     1 4WF         1 TEMP              0 ****  ****    0 ROOT
