@<TRIPOS>MOLECULE
4WF
   29    30     1     0     0
SMALL
bcc


@<TRIPOS>ATOM
      1 C           0.1060   -0.2150    0.1430 cc        1 4WF      0.396700
      2 N           2.3060   -0.3600   -1.0280 nz        1 4WF     -0.643400
      3 O          -0.4500   -0.6320   -1.0300 oh        1 4WF     -0.498100
      4 CA          1.5030   -0.0760    0.1370 cd        1 4WF     -0.373200
      5 CB          2.2120    0.3730    1.3480 c         1 4WF      0.751700
      6 OAC        -0.6400    0.6970    3.4980 o         1 4WF     -0.545500
      7 CAE        -3.7800   -3.9280    0.8680 ca        1 4WF     -0.093000
      8 CAF        -2.9600   -3.6270    1.9550 ca        1 4WF     -0.115500
      9 CAG        -4.0390   -2.9570   -0.1020 ca        1 4WF     -0.115500
     10 CAH        -2.3950   -2.3580    2.0750 ca        1 4WF     -0.120000
     11 CAI        -3.4710   -1.6900    0.0100 ca        1 4WF     -0.120000
     12 CA0         0.0250    0.4830    2.4750 c         1 4WF      0.819500
     13 CAJ        -2.1010   -0.0020    1.2550 c3        1 4WF      0.113300
     14 NAL        -0.6390    0.0840    1.2570 n         1 4WF     -0.376000
     15 OAN         3.4470    0.5110    1.3800 o         1 4WF     -0.599500
     16 NAB         1.4190    0.6260    2.4650 ns        1 4WF     -0.560500
     17 CAQ        -2.6420   -1.3880    1.0980 ca        1 4WF     -0.177300
     18 HN1         3.3010   -0.2330   -0.7730 hn        1 4WF      0.467467
     19 HN2         2.0590    0.2830   -1.7880 hn        1 4WF      0.467467
     20 HAB         1.8540    0.9250    3.3190 hn        1 4WF      0.390500
     21 HAG        -4.7020   -3.1890   -0.9510 ha        1 4WF      0.156000
     22 HAH        -1.7720   -2.1130    2.9500 ha        1 4WF      0.140500
     23 HAI        -3.7090   -0.9190   -0.7410 ha        1 4WF      0.140500
     24 HAJ1       -2.4770    0.6690    0.4280 h1        1 4WF      0.107700
     25 HAJ2       -2.4690    0.4230    2.2400 h1        1 4WF      0.107700
     26 HO         -1.3970   -0.8670   -0.9360 ho        1 4WF      0.497000
     27 HAE        -4.2340   -4.9280    0.7790 ha        1 4WF      0.157000
     28 HN3         2.1450   -1.3240   -1.3380 hn        1 4WF      0.467467
     29 HAF        -2.7680   -4.3880    2.7290 ha        1 4WF      0.156000
@<TRIPOS>BOND
     1    1    3 1   
     2    1    4 2   
     3    1   14 1   
     4    2    4 1   
     5    2   18 1   
     6    2   19 1   
     7    2   28 1   
     8    3   26 1   
     9    4    5 1   
    10    5   15 2   
    11    5   16 1   
    12    6   12 2   
    13    7    8 ar  
    14    7    9 ar  
    15    7   27 1   
    16    8   10 ar  
    17    8   29 1   
    18    9   11 ar  
    19    9   21 1   
    20   10   17 ar  
    21   10   22 1   
    22   11   17 ar  
    23   11   23 1   
    24   12   14 1   
    25   12   16 1   
    26   13   14 1   
    27   13   17 1   
    28   13   24 1   
    29   13   25 1   
    30   16   20 1   
@<TRIPOS>SUBSTRUCTURE
     1 4WF         1 TEMP              0 ****  ****    0 ROOT
