@<TRIPOS>MOLECULE
4WJ
   25    26     1     0     0
SMALL
bcc


@<TRIPOS>ATOM
      1 C2          0.0480    0.1300   -0.1230 cc        1 4WJ     -0.200200
      2 C3          1.4320   -0.2990    0.0400 cc        1 4WJ      0.356200
      3 N4          1.7570   -0.3600    1.3470 nd        1 4WJ     -0.493800
      4 C6         -0.4180    0.3180    1.1840 cd        1 4WJ     -0.115300
      5 C7          0.6170    0.0670    3.4860 c3        1 4WJ      0.076000
      6 C8          0.3320    1.4880    4.0050 c3        1 4WJ     -0.132400
      7 C11        -0.3890   -0.8430    5.6010 c3        1 4WJ      0.109800
      8 C12        -0.4230   -0.9010    4.0820 c3        1 4WJ     -0.132400
      9 BR1        -0.8520    0.3630   -1.6900 br        1 4WJ      0.010900
     10 N5          0.6530    0.0080    2.0390 na        1 4WJ      0.052400
     11 C9          0.3550    1.5110    5.5250 c3        1 4WJ      0.109800
     12 N10        -0.6170    0.5410    6.1230 n4        1 4WJ     -0.766000
     13 H13         2.1440   -0.5480   -0.7540 h4        1 4WJ      0.074100
     14 H14        -1.3930    0.6350    1.5520 h4        1 4WJ      0.180000
     15 H15         1.6400   -0.2440    3.8690 h1        1 4WJ      0.103700
     16 H17         1.1280    2.1960    3.6430 hc        1 4WJ      0.101200
     17 H16        -0.6510    1.8620    3.6140 hc        1 4WJ      0.101200
     18 H23         0.6160   -1.1900    5.9800 hx        1 4WJ      0.112200
     19 H22        -1.1900   -1.5130    6.0310 hx        1 4WJ      0.112200
     20 H25        -0.1840   -1.9570    3.7770 hc        1 4WJ      0.101200
     21 H24        -1.4490   -0.6650    3.6960 hc        1 4WJ      0.101200
     22 H19         1.3830    1.2390    5.9020 hx        1 4WJ      0.112200
     23 H18         0.0910    2.5420    5.9000 hx        1 4WJ      0.112200
     24 H20        -1.5710    0.8350    5.8830 hn        1 4WJ      0.456300
     25 H21        -0.5190    0.5430    7.1440 hn        1 4WJ      0.456300
@<TRIPOS>BOND
     1    1    2 1   
     2    1    4 2   
     3    1    9 1   
     4    2    3 2   
     5    2   13 1   
     6    3   10 1   
     7    4   10 1   
     8    4   14 1   
     9    5    6 1   
    10    5    8 1   
    11    5   10 1   
    12    5   15 1   
    13    6   11 1   
    14    6   16 1   
    15    6   17 1   
    16    7    8 1   
    17    7   12 1   
    18    7   18 1   
    19    7   19 1   
    20    8   20 1   
    21    8   21 1   
    22   11   12 1   
    23   11   22 1   
    24   11   23 1   
    25   12   24 1   
    26   12   25 1   
@<TRIPOS>SUBSTRUCTURE
     1 4WJ         1 TEMP              0 ****  ****    0 ROOT
