@<TRIPOS>MOLECULE
4WJ
   25    26     1     0     0
SMALL
bcc


@<TRIPOS>ATOM
      1 C2          0.0180    0.1500   -0.1230 cc        1 4WJ     -0.200200
      2 C3          1.4100   -0.2620    0.0250 cc        1 4WJ      0.356200
      3 N4          1.7460   -0.3250    1.3290 nd        1 4WJ     -0.493800
      4 C6         -0.4390    0.3250    1.1890 cd        1 4WJ     -0.115300
      5 C7          0.6190    0.0740    3.4810 c3        1 4WJ      0.076000
      6 C8          0.3190    1.4890    4.0110 c3        1 4WJ     -0.132400
      7 C11        -0.3570   -0.8620    5.5990 c3        1 4WJ      0.109800
      8 C12        -0.4030   -0.9110    4.0800 c3        1 4WJ     -0.132400
      9 Br1        -0.8980    0.3800   -1.6810 br        1 4WJ      0.010900
     10 N5          0.6440    0.0250    2.0330 na        1 4WJ      0.052400
     11 C9          0.3540    1.5030    5.5310 c3        1 4WJ      0.109800
     12 N10        -0.5990    0.5160    6.1310 ny        1 4WJ     -0.766000
     13 H13         2.1170   -0.4960   -0.7750 h4        1 4WJ      0.074100
     14 H14        -1.4150    0.6270    1.5670 h4        1 4WJ      0.180000
     15 H15         1.6490   -0.2250    3.8530 h1        1 4WJ      0.103700
     16 H17         1.1020    2.2100    3.6460 hc        1 4WJ      0.101200
     17 H16        -0.6720    1.8510    3.6300 hc        1 4WJ      0.101200
     18 H23        -1.1440   -1.5450    6.0320 hx        1 4WJ      0.112200
     19 H22         0.6560   -1.1970    5.9670 hx        1 4WJ      0.112200
     20 H25        -0.1520   -1.9620    3.7660 hc        1 4WJ      0.101200
     21 H24        -1.4350   -0.6870    3.7040 hc        1 4WJ      0.101200
     22 H19         1.3900    1.2430    5.8970 hx        1 4WJ      0.112200
     23 H18         0.0800    2.5280    5.9140 hx        1 4WJ      0.112200
     24 H20        -1.5590    0.7980    5.9010 hn        1 4WJ      0.456300
     25 H21        -0.4930    0.5140    7.1510 hn        1 4WJ      0.456300
@<TRIPOS>BOND
     1    1    2 1   
     2    1    4 2   
     3    1    9 1   
     4    2    3 2   
     5    2   13 1   
     6    3   10 1   
     7    4   10 1   
     8    4   14 1   
     9    5    6 1   
    10    5    8 1   
    11    5   10 1   
    12    5   15 1   
    13    6   11 1   
    14    6   16 1   
    15    6   17 1   
    16    7    8 1   
    17    7   12 1   
    18    7   18 1   
    19    7   19 1   
    20    8   20 1   
    21    8   21 1   
    22   11   12 1   
    23   11   22 1   
    24   11   23 1   
    25   12   24 1   
    26   12   25 1   
@<TRIPOS>SUBSTRUCTURE
     1 4WJ         1 TEMP              0 ****  ****    0 ROOT
