@<TRIPOS>MOLECULE
4WK
   33    32     1     0     0
SMALL
bcc


@<TRIPOS>ATOM
      1 C1          0.3620    0.4950    1.0850 c3        1 4WK     -0.144600
      2 C2          1.7170    0.1730    0.4900 c3        1 4WK     -0.084700
      3 C3          2.7410   -0.0960    1.5670 c3        1 4WK     -0.144600
      4 C6          0.3070   -3.1760   -0.7790 c         1 4WK      0.514100
      5 C8         -0.3900   -4.3730   -0.1040 c3        1 4WK      0.082500
      6 C11         2.9970   -1.2770   -1.1570 c         1 4WK      0.520100
      7 C4          1.6220   -0.9990   -0.5300 c3        1 4WK      0.057500
      8 N5          1.0750   -2.2500    0.1300 n4        1 4WK     -0.671800
      9 O7          0.2840   -2.9190   -1.9710 o         1 4WK     -0.370100
     10 C9          0.6200   -5.2080    0.6770 c3        1 4WK     -0.173100
     11 N10        -1.1200   -5.2040   -1.1220 n4        1 4WK     -0.844600
     12 H14         0.4030    1.5220    1.5450 hc        1 4WK      0.086033
     13 H16         0.0810   -0.2040    1.9100 hc        1 4WK      0.086033
     14 H15        -0.4390    0.5130    0.3070 hc        1 4WK      0.086033
     15 H17         2.0310    1.0740   -0.1170 hc        1 4WK      0.102700
     16 H20         2.4110   -0.8980    2.2700 hc        1 4WK      0.086033
     17 H19         3.7320   -0.3760    1.1340 hc        1 4WK      0.086033
     18 H18         2.8860    0.8350    2.1830 hc        1 4WK      0.086033
     19 H23        -1.1830   -3.9630    0.6070 hx        1 4WK      0.170700
     20 H21         0.8960   -0.7070   -1.3560 hx        1 4WK      0.168700
     21 H22         0.4490   -1.9350    0.8970 hn        1 4WK      0.504300
     22 H26         1.5070   -5.4910    0.0570 hc        1 4WK      0.121367
     23 H24         0.1500   -6.1590    1.0580 hc        1 4WK      0.121367
     24 H25         0.9570   -4.6500    1.5880 hc        1 4WK      0.121367
     25 H27        -0.4570   -5.6950   -1.7430 hn        1 4WK      0.502133
     26 H28        -1.6850   -5.9170   -0.6240 hn        1 4WK      0.502133
     27 H29        -1.7490   -4.6270   -1.7000 hn        1 4WK      0.502133
     28 H31         3.9760    0.5670   -1.2010 hn        1 4WK      0.510133
     29 H30         4.5370   -0.5280   -2.3440 hn        1 4WK      0.510133
     30 O12         3.5700   -2.3560   -1.1140 o         1 4WK     -0.373100
     31 H52         1.8570   -2.7840    0.5540 hn        1 4WK      0.504300
     32 H133        3.0710    0.2610   -2.5840 hn        1 4WK      0.510133
     33 N13         3.6830   -0.1650   -1.8710 n4        1 4WK     -0.734400
@<TRIPOS>BOND
     1    1    2 1   
     2    1   12 1   
     3    1   13 1   
     4    1   14 1   
     5    2    3 1   
     6    2    7 1   
     7    2   15 1   
     8    3   16 1   
     9    3   17 1   
    10    3   18 1   
    11    4    5 1   
    12    4    8 1   
    13    4    9 2   
    14    5   10 1   
    15    5   11 1   
    16    5   19 1   
    17    6    7 1   
    18    6   30 2   
    19    6   33 1   
    20    7    8 1   
    21    7   20 1   
    22    8   21 1   
    23    8   31 1   
    24   10   22 1   
    25   10   23 1   
    26   10   24 1   
    27   11   25 1   
    28   11   26 1   
    29   11   27 1   
    30   28   33 1   
    31   29   33 1   
    32   32   33 1   
@<TRIPOS>SUBSTRUCTURE
     1 4WK         1 TEMP              0 ****  ****    0 ROOT
