@<TRIPOS>MOLECULE
4WK
   33    30     1     0     0
SMALL
bcc


@<TRIPOS>ATOM
      1 C1       -107.7210   72.6080   12.2270 c3        1 4WK     -0.108800
      2 C2       -253.7070 -112.6720   84.3390 c2        1 4WK      0.016800
      3 C3       -252.7180 -113.7060   84.6560 c3        1 4WK     -0.136900
      4 C6       -256.3100 -114.1540   82.3130 c         1 4WK      0.509100
      5 C8       -257.0130 -114.6620   83.5790 c3        1 4WK      0.071500
      6 C11      1291.6420  439.0430 -396.3690 c1        1 4WK      0.699500
      7 C4       -254.6680 -112.6910   83.3950 c2        1 4WK     -0.234000
      8 N5       -254.8710 -113.7670   82.4300 ny        1 4WK     -0.520600
      9 O7       -256.8430 -114.0430   81.2190 o         1 4WK     -0.368100
     10 C9       -256.3870 -115.9760   84.0370 c3        1 4WK     -0.156100
     11 N10      -258.4880 -114.8150   83.3270 nz        1 4WK     -0.841600
     12 H14      -107.5950   73.6960   12.0380 hc        1 4WK      0.026950
     13 H16      -106.7510   72.1730   12.5540 hc        1 4WK      0.026950
     14 H15      -108.4820   72.4550   13.0230 hc        1 4WK      0.026950
     15 H17      -108.0550   72.1060   11.2930 hc        1 4WK      0.026950
     16 H20      -252.6470 -113.8470   85.7700 hc        1 4WK      0.097700
     17 H19      -253.6390 -111.7450   84.9560 ha        1 4WK      0.211000
     18 H18      -251.6990 -113.3600   84.3160 hc        1 4WK      0.097700
     19 H23      -256.8950 -113.8740   84.3940 hx        1 4WK      0.162700
     20 H21      -252.9200 -114.7010   84.1920 hc        1 4WK      0.097700
     21 H22      -254.3130 -114.5970   82.6840 hn        1 4WK      0.488300
     22 H26      -256.3800 -116.7430   83.2220 hc        1 4WK      0.109700
     23 H24      -255.3360 -115.7910   84.3760 hc        1 4WK      0.109700
     24 H25      -256.9400 -116.4000   84.9170 hc        1 4WK      0.109700
     25 H27      -258.6580 -115.5050   82.5800 hn        1 4WK      0.491467
     26 H28      -258.9430 -115.1450   84.1920 hn        1 4WK      0.491467
     27 H29      -258.9060 -113.9180   83.0440 hn        1 4WK      0.491467
     28 H31      1291.7250  440.7480 -397.4200 hn        1 4WK      0.395700
     29 H30      -255.3270 -111.8200   83.1990 hx        1 4WK      0.210000
     30 O12      1291.4660  438.4110 -395.4020 o         1 4WK     -0.127500
     31 H52      -254.5490 -113.4330   81.4980 hn        1 4WK      0.488300
     32 H133     1292.1040  439.2920 -398.3040 hn        1 4WK      0.395700
     33 N13      1291.8370  439.7420 -397.4380 n8        1 4WK     -0.364400
@<TRIPOS>BOND
     1    1   12 1   
     2    1   13 1   
     3    1   14 1   
     4    1   15 1   
     5    2    3 1   
     6    2    7 2   
     7    2   17 1   
     8    3   16 1   
     9    3   18 1   
    10    3   20 1   
    11    4    5 1   
    12    4    8 1   
    13    4    9 2   
    14    5   10 1   
    15    5   11 1   
    16    5   19 1   
    17    6   30 2   
    18    6   33 2   
    19    7    8 1   
    20    7   29 1   
    21    8   21 1   
    22    8   31 1   
    23   10   22 1   
    24   10   23 1   
    25   10   24 1   
    26   11   25 1   
    27   11   26 1   
    28   11   27 1   
    29   28   33 1   
    30   32   33 1   
@<TRIPOS>SUBSTRUCTURE
     1 4WK         1 TEMP              0 ****  ****    0 ROOT
