@<TRIPOS>MOLECULE
4WL
   15    16     1     0     0
SMALL
bcc


@<TRIPOS>ATOM
      1 O2         -0.0260   -0.0230    0.0720 o         1 4WL     -0.820800
      2 C1          1.2320   -0.0090    0.0600 c         1 4WL      0.930200
      3 O3          1.9740    0.0100    1.0830 o         1 4WL     -0.820800
      4 C4          1.9210   -0.0160   -1.2960 cc        1 4WL     -0.095900
      5 C5          1.3510   -0.0370   -2.5880 cd        1 4WL     -0.176000
      6 C6          2.4250   -0.0350   -3.5220 cd        1 4WL     -0.099100
      7 C7          3.6480   -0.0130   -2.7430 cc        1 4WL     -0.141300
      8 N8          3.3130   -0.0020   -1.4030 na        1 4WL     -0.137100
      9 S11         2.7920   -0.0490   -5.1490 ss        1 4WL     -0.080800
     10 C10         4.4690   -0.0270   -4.8870 cd        1 4WL     -0.180100
     11 C9          4.8180   -0.0090   -3.5570 cc        1 4WL     -0.119000
     12 H5          0.2860   -0.0510   -2.7950 ha        1 4WL      0.157000
     13 H8          3.9250    0.0130   -0.6290 hn        1 4WL      0.307700
     14 H9          5.8350    0.0060   -3.1660 ha        1 4WL      0.133000
     15 H10         5.1620   -0.0290   -5.7220 h4        1 4WL      0.143000
@<TRIPOS>BOND
     1    1    2 1   
     2    2    3 1   
     3    2    4 1   
     4    4    5 2   
     5    4    8 1   
     6    5    6 1   
     7    5   12 1   
     8    6    7 2   
     9    6    9 1   
    10    7    8 1   
    11    7   11 1   
    12    8   13 1   
    13    9   10 1   
    14   10   11 2   
    15   10   15 1   
    16   11   14 1   
@<TRIPOS>SUBSTRUCTURE
     1 4WL         1 TEMP              0 ****  ****    0 ROOT
