@<TRIPOS>MOLECULE
4WL
   15    16     1     0     0
SMALL
bcc


@<TRIPOS>ATOM
      1 O2         -0.0280   -0.0210    0.0700 o         1 4WL     -0.820800
      2 C1          1.2300   -0.0090    0.0590 c         1 4WL      0.930200
      3 O3          1.9720    0.0070    1.0830 o         1 4WL     -0.820800
      4 C4          1.9210   -0.0160   -1.2970 cc        1 4WL     -0.095900
      5 C5          1.3510   -0.0340   -2.5900 cd        1 4WL     -0.176000
      6 C6          2.4260   -0.0330   -3.5220 cd        1 4WL     -0.099100
      7 C7          3.6480   -0.0140   -2.7430 cc        1 4WL     -0.141300
      8 N8          3.3120   -0.0040   -1.4030 na        1 4WL     -0.137100
      9 S11         2.7940   -0.0450   -5.1490 ss        1 4WL     -0.080800
     10 C10         4.4710   -0.0270   -4.8860 cd        1 4WL     -0.180100
     11 C9          4.8190   -0.0110   -3.5560 cc        1 4WL     -0.119000
     12 H5          0.2870   -0.0460   -2.7970 ha        1 4WL      0.157000
     13 H8          3.9240    0.0090   -0.6280 hn        1 4WL      0.307700
     14 H9          5.8350    0.0030   -3.1640 ha        1 4WL      0.133000
     15 H10         5.1650   -0.0290   -5.7210 h4        1 4WL      0.143000
@<TRIPOS>BOND
     1    1    2 1   
     2    2    3 1   
     3    2    4 1   
     4    4    5 2   
     5    4    8 1   
     6    5    6 1   
     7    5   12 1   
     8    6    7 2   
     9    6    9 1   
    10    7    8 1   
    11    7   11 1   
    12    8   13 1   
    13    9   10 1   
    14   10   11 2   
    15   10   15 1   
    16   11   14 1   
@<TRIPOS>SUBSTRUCTURE
     1 4WL         1 TEMP              0 ****  ****    0 ROOT
