@<TRIPOS>MOLECULE
4WL
   15    16     1     0     0
SMALL
bcc


@<TRIPOS>ATOM
      1 O2          3.3180   -1.2340    0.0010 o         1 4WL     -0.820800
      2 C1          2.7660   -0.1040    0.0020 c         1 4WL      0.930200
      3 O3          3.3700    1.0060    0.0030 o         1 4WL     -0.820800
      4 C4          1.2450   -0.0650    0.0010 cc        1 4WL     -0.095900
      5 C5          0.3240   -1.1360   -0.0000 cd        1 4WL     -0.176000
      6 C6         -0.9810   -0.5670   -0.0000 cd        1 4WL     -0.099100
      7 C7         -0.8040    0.8710    0.0010 cc        1 4WL     -0.141300
      8 N8          0.5500    1.1460    0.0020 na        1 4WL     -0.137100
      9 S11        -2.6070   -0.9360   -0.0020 ss        1 4WL     -0.080800
     10 C10        -3.0920    0.6900   -0.0010 cd        1 4WL     -0.180100
     11 C9         -2.0420    1.5770    0.0010 cc        1 4WL     -0.119000
     12 H5          0.5950   -2.1860   -0.0010 ha        1 4WL      0.157000
     13 H8          0.9860    2.0310    0.0020 hn        1 4WL      0.307700
     14 H9         -2.1260    2.6640    0.0010 ha        1 4WL      0.133000
     15 H10        -4.1450    0.9570   -0.0010 h4        1 4WL      0.143000
@<TRIPOS>BOND
     1    1    2 1   
     2    2    3 1   
     3    2    4 1   
     4    4    5 2   
     5    4    8 1   
     6    5    6 1   
     7    5   12 1   
     8    6    7 2   
     9    6    9 1   
    10    7    8 1   
    11    7   11 1   
    12    8   13 1   
    13    9   10 1   
    14   10   11 2   
    15   10   15 1   
    16   11   14 1   
@<TRIPOS>SUBSTRUCTURE
     1 4WL         1 TEMP              0 ****  ****    0 ROOT
