@<TRIPOS>MOLECULE
4WL
   15    11     1     0     0
SMALL
bcc


@<TRIPOS>ATOM
      1 O2         -2.6280    0.3770    2.7190 o         1 4WL     -0.536000
      2 C1         -1.3950    0.1290    2.6540 c1        1 4WL      0.379000
      3 O3         -0.7480   -0.1280    3.7040 os        1 4WL     -0.575000
      4 C4         -0.6910    0.1400    1.3150 c2        1 4WL     -0.051000
      5 C5         -0.0770    1.2510    0.7160 c1        1 4WL     -0.176000
      6 C6          0.4590    0.8470   -0.4640 c2        1 4WL     -0.369000
      7 C7          0.1830   -0.5410   -0.6180 c2        1 4WL     -0.117000
      8 N8         -0.5180   -0.9540    0.4750 n2        1 4WL     -0.136000
      9 S11         1.2830    1.3160   -1.7120 ss        1 4WL      0.459000
     10 C10         1.4770    0.0910   -2.6270 c1        1 4WL     -0.450000
     11 C9          0.8320   -1.0360   -2.0010 c1        1 4WL     -0.119000
     12 H5         -0.0550    2.1580    1.0760 DU        1 4WL      0.172750
     13 H8         -0.8200   -1.8000    0.6290 DU        1 4WL      0.172750
     14 H9          0.7950   -1.9440   -2.3570 DU        1 4WL      0.172750
     15 H10         1.9020    0.0930   -3.5060 DU        1 4WL      0.172750
@<TRIPOS>BOND
     1    1    2 1   
     2    2    4 1   
     3    4    5 1   
     4    4    8 1   
     5    5    6 1   
     6    6    7 1   
     7    6    9 1   
     8    7    8 1   
     9    7   11 1   
    10    9   10 1   
    11   10   11 1   
@<TRIPOS>SUBSTRUCTURE
     1 4WL         1 TEMP              0 ****  ****    0 ROOT
