@<TRIPOS>MOLECULE
4WM
   54    54     1     0     0
SMALL
bcc


@<TRIPOS>ATOM
      1 N           0.5500    0.7400    0.4650 n4        1 4WM     -0.844000
      2 O4          1.1820    3.0300    0.9620 oh        1 4WM     -0.578800
      3 C12         0.2870    2.0180    1.2950 c3        1 4WM      0.553100
      4 O3         -0.9550    2.5200    0.9100 os        1 4WM     -0.455600
      5 C13        -2.1290    2.1590    1.6940 c3        1 4WM      0.165800
      6 C16        -3.2000    3.0980    1.1470 c3        1 4WM     -0.124767
      7 C15        -2.4920    0.7080    1.4240 c3        1 4WM     -0.124767
      8 C14        -1.8930    2.4070    3.1730 c3        1 4WM     -0.124767
      9 C8          1.9820    0.3370    0.2710 c3        1 4WM      0.158500
     10 C9          2.8280    0.3980    1.5460 c3        1 4WM     -0.097400
     11 C10         2.5550   -0.7370    2.5080 c3        1 4WM     -0.123400
     12 C11         1.5220   -0.3860    3.5790 c3        1 4WM      0.333900
     13 O2          0.1960   -0.4430    3.0730 oh        1 4WM     -0.653800
     14 O1          1.5650   -1.3830    4.5650 oh        1 4WM     -0.653800
     15 C7          2.6540    1.1410   -0.8410 c3        1 4WM     -0.049300
     16 SE          1.6570    1.0020   -2.2970 ss        1 4WM     -0.360200
     17 C2          1.9800    2.5030   -3.2430 c3        1 4WM      0.098600
     18 C3          1.4690    3.7120   -2.5650 c2        1 4WM     -0.225200
     19 C4          0.6650    4.6020   -3.1590 c2        1 4WM     -0.103200
     20 C5          0.1910    4.4580   -4.5560 c3        1 4WM     -0.064200
     21 C6          1.0470    3.4910   -5.3500 c3        1 4WM     -0.075400
     22 C1          1.3110    2.2160   -4.5750 c3        1 4WM     -0.072400
     23 H1          0.1350    0.8710   -0.4770 hn        1 4WM      0.463800
     24 H4          0.4170    1.7460    2.3840 hx        1 4WM      0.153700
     25 H5         -2.9130    4.1600    1.3360 hc        1 4WM      0.062033
     26 H6         -3.3220    2.9470    0.0480 hc        1 4WM      0.062033
     27 H7         -4.1690    2.8830    1.6580 hc        1 4WM      0.062033
     28 H8         -3.5370    0.5190    1.7740 hc        1 4WM      0.062033
     29 H9         -2.4420    0.4900    0.3310 hc        1 4WM      0.062033
     30 H10        -1.8120    0.0140    1.9770 hc        1 4WM      0.062033
     31 H11        -1.2790    1.5900    3.6270 hc        1 4WM      0.062033
     32 H12        -2.8770    2.4370    3.7030 hc        1 4WM      0.062033
     33 H13        -1.3770    3.3860    3.3260 hc        1 4WM      0.062033
     34 H14         1.9370   -0.7470   -0.0730 hx        1 4WM      0.100700
     35 H15         2.7130    1.3950    2.0480 hc        1 4WM      0.085700
     36 H16         3.9030    0.3270    1.2180 hc        1 4WM      0.085700
     37 H17         2.2210   -1.6580    1.9640 hc        1 4WM      0.085200
     38 H18         3.5080   -1.0020    3.0440 hc        1 4WM      0.085200
     39 H19        -0.1430   -1.3400    3.2060 ho        1 4WM      0.441000
     40 H20         1.2510   -1.0070    5.3970 ho        1 4WM      0.441000
     41 H21         3.6650    0.6990   -1.0300 h1        1 4WM      0.103200
     42 H22         2.7980    2.2070   -0.5370 h1        1 4WM      0.103200
     43 H23         3.0910    2.5940   -3.3740 h1        1 4WM      0.090700
     44 H24         1.8330    3.8750   -1.5380 ha        1 4WM      0.111000
     45 H26         0.3180    5.5020   -2.6240 ha        1 4WM      0.134000
     46 H28         0.1950    5.4610   -5.0610 hc        1 4WM      0.067200
     47 H29        -0.8760    4.1010   -4.5390 hc        1 4WM      0.067200
     48 H30         2.0230    3.9790   -5.6070 hc        1 4WM      0.060200
     49 H31         0.5330    3.2370   -6.3130 hc        1 4WM      0.060200
     50 H32         1.9660    1.5370   -5.1820 hc        1 4WM      0.064200
     51 H33         0.3380    1.6810   -4.4010 hc        1 4WM      0.064200
     52 H2          1.6620    0.6560    3.9830 h2        1 4WM      0.069700
     53 HN3         0.0640   -0.0190    0.9600 hn        1 4WM      0.463800
     54 H3          0.7820    3.6150    0.2920 ho        1 4WM      0.463000
@<TRIPOS>BOND
     1    1    3 1   
     2    1    9 1   
     3    1   23 1   
     4    1   53 1   
     5    2    3 1   
     6    2   54 1   
     7    3    4 1   
     8    3   24 1   
     9    4    5 1   
    10    5    6 1   
    11    5    7 1   
    12    5    8 1   
    13    6   25 1   
    14    6   26 1   
    15    6   27 1   
    16    7   28 1   
    17    7   29 1   
    18    7   30 1   
    19    8   31 1   
    20    8   32 1   
    21    8   33 1   
    22    9   10 1   
    23    9   15 1   
    24    9   34 1   
    25   10   11 1   
    26   10   35 1   
    27   10   36 1   
    28   11   12 1   
    29   11   37 1   
    30   11   38 1   
    31   12   13 1   
    32   12   14 1   
    33   12   52 1   
    34   13   39 1   
    35   14   40 1   
    36   15   16 1   
    37   15   41 1   
    38   15   42 1   
    39   16   17 1   
    40   17   18 1   
    41   17   22 1   
    42   17   43 1   
    43   18   19 2   
    44   18   44 1   
    45   19   20 1   
    46   19   45 1   
    47   20   21 1   
    48   20   46 1   
    49   20   47 1   
    50   21   22 1   
    51   21   48 1   
    52   21   49 1   
    53   22   50 1   
    54   22   51 1   
@<TRIPOS>SUBSTRUCTURE
     1 4WM         1 TEMP              0 ****  ****    0 ROOT
