@<TRIPOS>MOLECULE
4WM
   54    54     1     0     0
SMALL
bcc


@<TRIPOS>ATOM
      1 N           0.5420    0.7380    0.4590 ny        1 4WM     -0.844000
      2 O4          1.1830    3.0200    0.9770 oh        1 4WM     -0.578800
      3 C12         0.2820    2.0110    1.2980 c3        1 4WM      0.553100
      4 O3         -0.9560    2.5220    0.9110 os        1 4WM     -0.455600
      5 C13        -2.1350    2.1590    1.6870 c3        1 4WM      0.165800
      6 C16        -3.1990    3.1080    1.1440 c3        1 4WM     -0.124767
      7 C15        -2.5040    0.7130    1.4030 c3        1 4WM     -0.124767
      8 C14        -1.9040    2.3930    3.1700 c3        1 4WM     -0.124767
      9 C8          1.9740    0.3300    0.2680 c3        1 4WM      0.158500
     10 C9          2.8140    0.3760    1.5470 c3        1 4WM     -0.097400
     11 C10         2.5320   -0.7650    2.4980 c3        1 4WM     -0.123400
     12 C11         1.4950   -0.4190    3.5670 c3        1 4WM      0.333900
     13 O2          0.1710   -0.4650    3.0540 oh        1 4WM     -0.653800
     14 O1          1.5290   -1.4240    4.5440 oh        1 4WM     -0.653800
     15 C7          2.6540    1.1400   -0.8350 c3        1 4WM     -0.049300
     16 SE          1.6640    1.0180   -2.2970 ss        1 4WM     -0.360200
     17 C2          1.9980    2.5250   -3.2280 c3        1 4WM      0.098600
     18 C3          1.4880    3.7310   -2.5430 c2        1 4WM     -0.225200
     19 C4          0.6910    4.6290   -3.1350 c2        1 4WM     -0.103200
     20 C5          0.2240    4.4980   -4.5360 c3        1 4WM     -0.064200
     21 C6          1.0810    3.5330   -5.3320 c3        1 4WM     -0.075400
     22 C1          1.3350    2.2510   -4.5660 c3        1 4WM     -0.072400
     23 H1          0.0500   -0.0230    0.9440 hn        1 4WM      0.463800
     24 H4          0.4060    1.7290    2.3850 hx        1 4WM      0.153700
     25 H5         -4.1710    2.8930    1.6480 hc        1 4WM      0.062033
     26 H6         -3.3170    2.9680    0.0430 hc        1 4WM      0.062033
     27 H7         -2.9080    4.1670    1.3430 hc        1 4WM      0.062033
     28 H8         -3.5510    0.5260    1.7470 hc        1 4WM      0.062033
     29 H9         -1.8300    0.0110    1.9540 hc        1 4WM      0.062033
     30 H10        -2.4500    0.5030    0.3080 hc        1 4WM      0.062033
     31 H11        -1.3850    3.3690    3.3330 hc        1 4WM      0.062033
     32 H12        -2.8900    2.4240    3.6950 hc        1 4WM      0.062033
     33 H13        -1.2960    1.5700    3.6190 hc        1 4WM      0.062033
     34 H14         1.9250   -0.7500   -0.0860 hx        1 4WM      0.100700
     35 H15         2.7010    1.3700    2.0560 hc        1 4WM      0.085700
     36 H16         3.8900    0.3030    1.2230 hc        1 4WM      0.085700
     37 H17         3.4810   -1.0390    3.0360 hc        1 4WM      0.085200
     38 H18         2.1960   -1.6800    1.9440 hc        1 4WM      0.085200
     39 H19        -0.1730   -1.3620    3.1780 ho        1 4WM      0.441000
     40 H20         1.2120   -1.0540    5.3780 ho        1 4WM      0.441000
     41 H21         2.8010    2.2030   -0.5210 h1        1 4WM      0.103200
     42 H22         3.6640    0.6960   -1.0220 h1        1 4WM      0.103200
     43 H23         3.1100    2.6120   -3.3530 h1        1 4WM      0.090700
     44 H24         1.8470    3.8840   -1.5130 ha        1 4WM      0.110000
     45 H26         0.3450    5.5260   -2.5950 ha        1 4WM      0.134000
     46 H28         0.2350    5.5050   -5.0330 hc        1 4WM      0.067200
     47 H29        -0.8440    4.1460   -4.5280 hc        1 4WM      0.067200
     48 H30         0.5710    3.2890   -6.3010 hc        1 4WM      0.060200
     49 H31         2.0610    4.0200   -5.5810 hc        1 4WM      0.060200
     50 H32         0.3580    1.7190   -4.4020 hc        1 4WM      0.064200
     51 H33         1.9900    1.5740   -5.1760 hc        1 4WM      0.064200
     52 H2          1.6380    0.6190    3.9800 h2        1 4WM      0.068700
     53 HN3         0.1330    0.8790   -0.4840 hn        1 4WM      0.463800
     54 H3          0.7880    3.6130    0.3110 ho        1 4WM      0.463000
@<TRIPOS>BOND
     1    1    3 1   
     2    1    9 1   
     3    1   23 1   
     4    1   53 1   
     5    2    3 1   
     6    2   54 1   
     7    3    4 1   
     8    3   24 1   
     9    4    5 1   
    10    5    6 1   
    11    5    7 1   
    12    5    8 1   
    13    6   25 1   
    14    6   26 1   
    15    6   27 1   
    16    7   28 1   
    17    7   29 1   
    18    7   30 1   
    19    8   31 1   
    20    8   32 1   
    21    8   33 1   
    22    9   10 1   
    23    9   15 1   
    24    9   34 1   
    25   10   11 1   
    26   10   35 1   
    27   10   36 1   
    28   11   12 1   
    29   11   37 1   
    30   11   38 1   
    31   12   13 1   
    32   12   14 1   
    33   12   52 1   
    34   13   39 1   
    35   14   40 1   
    36   15   16 1   
    37   15   41 1   
    38   15   42 1   
    39   16   17 1   
    40   17   18 1   
    41   17   22 1   
    42   17   43 1   
    43   18   19 2   
    44   18   44 1   
    45   19   20 1   
    46   19   45 1   
    47   20   21 1   
    48   20   46 1   
    49   20   47 1   
    50   21   22 1   
    51   21   48 1   
    52   21   49 1   
    53   22   50 1   
    54   22   51 1   
@<TRIPOS>SUBSTRUCTURE
     1 4WM         1 TEMP              0 ****  ****    0 ROOT
