@<TRIPOS>MOLECULE
4WR
   27    27     1     0     0
SMALL
bcc


@<TRIPOS>ATOM
      1 C2          0.1690   -0.1030    0.0330 c         1 4WR      0.813500
      2 C4          2.1660    0.5040    1.3370 c         1 4WR      0.679700
      3 C5          1.3940    0.1100    2.5580 cc        1 4WR      0.107300
      4 F5          2.0330    0.1920    3.7330 f         1 4WR     -0.079500
      5 C6          0.1020   -0.3230    2.4690 cd        1 4WR     -0.109400
      6 O2         -0.4280   -0.2650   -1.0650 o         1 4WR     -0.711500
      7 N3          1.4700    0.3420    0.1120 ns        1 4WR     -0.547500
      8 O4          3.3130    0.9370    1.3330 o         1 4WR     -0.450500
      9 N1         -0.5420   -0.4770    1.2270 n         1 4WR     -0.392000
     10 CAB        -1.9740   -0.3840    1.1780 c3        1 4WR      0.094000
     11 CAM        -2.6760   -1.7450    0.7920 c3        1 4WR      0.074500
     12 NAA        -2.0980   -2.3010   -0.4700 nz        1 4WR     -0.850600
     13 CAL        -4.1900   -1.4510    0.6780 c3        1 4WR      0.069800
     14 NAJ        -5.0790   -2.4800    1.2870 nz        1 4WR     -0.844600
     15 H1         -0.4810   -0.5970    3.3670 h4        1 4WR      0.189000
     16 H2          1.9330    0.5880   -0.7470 hn        1 4WR      0.393500
     17 H3         -2.3810   -0.1000    2.1920 h1        1 4WR      0.110700
     18 H4         -2.2930    0.3910    0.4180 h1        1 4WR      0.110700
     19 H5         -2.4620   -2.4970    1.6120 hx        1 4WR      0.125700
     20 H6         -2.6600   -3.0610   -0.8550 hn        1 4WR      0.488133
     21 H7         -1.9940   -1.5400   -1.1800 hn        1 4WR      0.488133
     22 H9         -4.5110   -1.3080   -0.3990 hx        1 4WR      0.150700
     23 H10        -4.4090   -0.4730    1.2150 hx        1 4WR      0.150700
     24 H11        -4.9960   -3.3860    0.8130 hn        1 4WR      0.483800
     25 H12        -4.8630   -2.6110    2.2850 hn        1 4WR      0.483800
     26 HAA3       -1.1430   -2.6460   -0.2820 hn        1 4WR      0.488133
     27 HAJ3       -6.0620   -2.1650    1.2100 hn        1 4WR      0.483800
@<TRIPOS>BOND
     1    1    6 2   
     2    1    7 1   
     3    1    9 1   
     4    2    3 1   
     5    2    7 1   
     6    2    8 2   
     7    3    4 1   
     8    3    5 2   
     9    5    9 1   
    10    5   15 1   
    11    7   16 1   
    12    9   10 1   
    13   10   11 1   
    14   10   17 1   
    15   10   18 1   
    16   11   12 1   
    17   11   13 1   
    18   11   19 1   
    19   12   20 1   
    20   12   21 1   
    21   12   26 1   
    22   13   14 1   
    23   13   22 1   
    24   13   23 1   
    25   14   24 1   
    26   14   25 1   
    27   14   27 1   
@<TRIPOS>SUBSTRUCTURE
     1 4WR         1 TEMP              0 ****  ****    0 ROOT
