@<TRIPOS>MOLECULE
4WR
   27    27     1     0     0
SMALL
bcc


@<TRIPOS>ATOM
      1 C2          0.1560   -0.0940    0.0170 c         1 4WR      0.813500
      2 C4          2.1620    0.5240    1.3040 c         1 4WR      0.679700
      3 C5          1.4020    0.1260    2.5310 cc        1 4WR      0.107300
      4 F5          2.0510    0.2130    3.7010 f         1 4WR     -0.079500
      5 C6          0.1110   -0.3130    2.4540 cd        1 4WR     -0.109400
      6 O2         -0.4490   -0.2600   -1.0760 o         1 4WR     -0.711500
      7 N3          1.4560    0.3580    0.0850 n         1 4WR     -0.547500
      8 O4          3.3070    0.9630    1.2900 o         1 4WR     -0.450500
      9 N1         -0.5420   -0.4720    1.2180 n         1 4WR     -0.392000
     10 CAB        -1.9750   -0.3860    1.1810 c3        1 4WR      0.094000
     11 CAM        -2.6730   -1.7520    0.8010 c3        1 4WR      0.074500
     12 NAA        -2.1030   -2.3050   -0.4660 n4        1 4WR     -0.850600
     13 CAL        -4.1900   -1.4660    0.7010 c3        1 4WR      0.069800
     14 NAJ        -5.0670   -2.4970    1.3200 n4        1 4WR     -0.844600
     15 H1         -0.4620   -0.5910    3.3570 h4        1 4WR      0.189000
     16 H2          1.9100    0.6060   -0.7780 hn        1 4WR      0.393500
     17 H3         -2.3750   -0.1040    2.1980 h1        1 4WR      0.110700
     18 H4         -2.3040    0.3870    0.4230 h1        1 4WR      0.110700
     19 H5         -2.4470   -2.5010    1.6200 hx        1 4WR      0.125700
     20 H6         -2.0090   -1.5430   -1.1770 hn        1 4WR      0.488133
     21 H7         -2.6640   -3.0680   -0.8450 hn        1 4WR      0.488133
     22 H9         -4.4090   -0.4870    1.2370 hx        1 4WR      0.150700
     23 H10        -4.5210   -1.3270   -0.3740 hx        1 4WR      0.150700
     24 H11        -4.8410   -2.6240    2.3170 hn        1 4WR      0.483800
     25 H12        -6.0520   -2.1880    1.2510 hn        1 4WR      0.483800
     26 HAA3       -1.1440   -2.6440   -0.2860 hn        1 4WR      0.488133
     27 HAJ3       -4.9830   -3.4050    0.8480 hn        1 4WR      0.483800
@<TRIPOS>BOND
     1    1    6 2   
     2    1    7 1   
     3    1    9 1   
     4    2    3 1   
     5    2    7 1   
     6    2    8 2   
     7    3    4 1   
     8    3    5 2   
     9    5    9 1   
    10    5   15 1   
    11    7   16 1   
    12    9   10 1   
    13   10   11 1   
    14   10   17 1   
    15   10   18 1   
    16   11   12 1   
    17   11   13 1   
    18   11   19 1   
    19   12   20 1   
    20   12   21 1   
    21   12   26 1   
    22   13   14 1   
    23   13   22 1   
    24   13   23 1   
    25   14   24 1   
    26   14   25 1   
    27   14   27 1   
@<TRIPOS>SUBSTRUCTURE
     1 4WR         1 TEMP              0 ****  ****    0 ROOT
