@<TRIPOS>MOLECULE
4WS
   35    36     1     0     0
SMALL
bcc


@<TRIPOS>ATOM
      1 O25         0.9780    1.3850    0.5660 o         1 4WS     -0.401100
      2 C29         1.2060    0.2800    0.1030 c         1 4WS      0.550100
      3 C30         0.6700   -1.0400    0.5370 c3        1 4WS     -0.186100
      4 N22         2.1790    0.2530   -1.0590 n4        1 4WS     -0.672800
      5 C28         1.4590    0.2130   -2.3650 c3        1 4WS      0.105800
      6 C27         2.4170    0.2650   -3.5830 c3        1 4WS      0.144500
      7 N21         3.5390   -0.6630   -3.4070 n3        1 4WS     -0.746600
      8 C26         4.8570   -0.1330   -3.7680 c3        1 4WS      0.155800
      9 C25         5.4690   -0.9830   -4.8880 c3        1 4WS     -0.133400
     10 C21         1.5730   -0.1890   -4.8130 c3        1 4WS      0.130100
     11 C22         1.9430   -1.6810   -4.9940 c3        1 4WS      0.098100
     12 O22         0.9170   -2.4240   -4.3540 oh        1 4WS     -0.617800
     13 C23         3.2730   -1.8780   -4.2150 c3        1 4WS      0.139500
     14 C24         4.5160   -2.1660   -5.1010 c3        1 4WS      0.140100
     15 O24         4.1080   -2.2880   -6.4490 oh        1 4WS     -0.603800
     16 O21         1.9920    0.6210   -5.8890 oh        1 4WS     -0.584800
     17 H3         -0.1380   -0.8660    1.2960 hc        1 4WS      0.115367
     18 H4          0.2410   -1.6120   -0.3250 hc        1 4WS      0.115367
     19 H5          1.4820   -1.6490    1.0120 hc        1 4WS      0.115367
     20 H6          2.7850   -0.5740   -0.9850 hn        1 4WS      0.465300
     21 H8          0.8600   -0.7440   -2.4030 hx        1 4WS      0.114200
     22 H9          0.7650    1.0990   -2.4130 hx        1 4WS      0.114200
     23 H10         2.7670    1.3260   -3.7350 h1        1 4WS      0.101700
     24 H12         4.8170    0.9460   -4.0830 h1        1 4WS      0.058700
     25 H13         5.4910   -0.2000   -2.8410 h1        1 4WS      0.058700
     26 H14         5.5600   -0.3840   -5.8290 hc        1 4WS      0.075700
     27 H15         6.4880   -1.3370   -4.5980 hc        1 4WS      0.075700
     28 H16         0.4690   -0.0660   -4.6460 h1        1 4WS      0.071700
     29 H17         2.0350   -1.9560   -6.0760 h1        1 4WS      0.108700
     30 H18         0.8930   -3.2950   -4.7690 ho        1 4WS      0.430000
     31 H19         3.1440   -2.7320   -3.4920 h1        1 4WS      0.081700
     32 H20         4.9930   -3.1290   -4.7690 h1        1 4WS      0.057700
     33 H21         4.9040   -2.4530   -6.9710 ho        1 4WS      0.426000
     34 H2          1.6420    0.2320   -6.7020 ho        1 4WS      0.431000
     35 H222        2.7720    1.0930   -1.0340 hn        1 4WS      0.465300
@<TRIPOS>BOND
     1    1    2 2   
     2    2    3 1   
     3    2    4 1   
     4    3   17 1   
     5    3   18 1   
     6    3   19 1   
     7    4    5 1   
     8    4   20 1   
     9    4   35 1   
    10    5    6 1   
    11    5   21 1   
    12    5   22 1   
    13    6    7 1   
    14    6   10 1   
    15    6   23 1   
    16    7    8 1   
    17    7   13 1   
    18    8    9 1   
    19    8   24 1   
    20    8   25 1   
    21    9   14 1   
    22    9   26 1   
    23    9   27 1   
    24   10   11 1   
    25   10   16 1   
    26   10   28 1   
    27   11   12 1   
    28   11   13 1   
    29   11   29 1   
    30   12   30 1   
    31   13   14 1   
    32   13   31 1   
    33   14   15 1   
    34   14   32 1   
    35   15   33 1   
    36   16   34 1   
@<TRIPOS>SUBSTRUCTURE
     1 4WS         1 TEMP              0 ****  ****    0 ROOT
