@<TRIPOS>MOLECULE
4WS
   35    36     1     0     0
SMALL
bcc


@<TRIPOS>ATOM
      1 O25         1.0600    1.4420    0.5690 o         1 4WS     -0.401100
      2 C29         1.2400    0.3290    0.1020 c         1 4WS      0.550100
      3 C30         0.6460   -0.9680    0.5280 c3        1 4WS     -0.186100
      4 N22         2.2160    0.2650   -1.0570 ny        1 4WS     -0.672800
      5 C28         1.5000    0.2620   -2.3660 c3        1 4WS      0.105800
      6 C27         2.4630    0.2760   -3.5800 c3        1 4WS      0.144500
      7 N21         3.5430   -0.7010   -3.4040 n3        1 4WS     -0.746600
      8 C26         4.8850   -0.2280   -3.7580 c3        1 4WS      0.155800
      9 C25         5.4630   -1.1000   -4.8780 c3        1 4WS     -0.133400
     10 C21         1.6050   -0.1360   -4.8150 c3        1 4WS      0.130100
     11 C22         1.9110   -1.6420   -5.0000 c3        1 4WS      0.098100
     12 O22         0.8510   -2.3420   -4.3680 oh        1 4WS     -0.617800
     13 C23         3.2280   -1.9000   -4.2180 c3        1 4WS      0.139500
     14 C24         4.4600   -2.2390   -5.0990 c3        1 4WS      0.140100
     15 O24         4.0520   -2.3400   -6.4500 oh        1 4WS     -0.603800
     16 O21         2.0640    0.6590   -5.8860 oh        1 4WS     -0.584800
     17 H3          0.1960   -1.5160   -0.3380 hc        1 4WS      0.115367
     18 H4          1.4290   -1.6130    1.0040 hc        1 4WS      0.115367
     19 H5         -0.1560   -0.7610    1.2850 hc        1 4WS      0.115367
     20 H6          2.7850   -0.5880   -0.9840 hn        1 4WS      0.465300
     21 H8          0.8460    1.1770   -2.4130 hx        1 4WS      0.114200
     22 H9          0.8590   -0.6680   -2.4100 hx        1 4WS      0.114200
     23 H10         2.8600    1.3210   -3.7270 h1        1 4WS      0.101700
     24 H12         4.8930    0.8530   -4.0700 h1        1 4WS      0.058700
     25 H13         5.5110   -0.3260   -2.8290 h1        1 4WS      0.058700
     26 H14         5.5840   -0.5020   -5.8170 hc        1 4WS      0.075700
     27 H15         6.4650   -1.4990   -4.5870 hc        1 4WS      0.075700
     28 H16         0.5080    0.0340   -4.6510 h1        1 4WS      0.071700
     29 H17         1.9940   -1.9170   -6.0830 h1        1 4WS      0.108700
     30 H18         0.7900   -3.2100   -4.7870 ho        1 4WS      0.430000
     31 H19         3.0590   -2.7510   -3.4980 h1        1 4WS      0.081700
     32 H20         4.8930   -3.2230   -4.7690 h1        1 4WS      0.057700
     33 H21         4.8430   -2.5370   -6.9690 ho        1 4WS      0.426000
     34 H2          1.6990    0.2890   -6.7010 ho        1 4WS      0.431000
     35 H222        2.8450    1.0780   -1.0270 hn        1 4WS      0.465300
@<TRIPOS>BOND
     1    1    2 2   
     2    2    3 1   
     3    2    4 1   
     4    3   17 1   
     5    3   18 1   
     6    3   19 1   
     7    4    5 1   
     8    4   20 1   
     9    4   35 1   
    10    5    6 1   
    11    5   21 1   
    12    5   22 1   
    13    6    7 1   
    14    6   10 1   
    15    6   23 1   
    16    7    8 1   
    17    7   13 1   
    18    8    9 1   
    19    8   24 1   
    20    8   25 1   
    21    9   14 1   
    22    9   26 1   
    23    9   27 1   
    24   10   11 1   
    25   10   16 1   
    26   10   28 1   
    27   11   12 1   
    28   11   13 1   
    29   11   29 1   
    30   12   30 1   
    31   13   14 1   
    32   13   31 1   
    33   14   15 1   
    34   14   32 1   
    35   15   33 1   
    36   16   34 1   
@<TRIPOS>SUBSTRUCTURE
     1 4WS         1 TEMP              0 ****  ****    0 ROOT
