@<TRIPOS>MOLECULE
4X2
   34    35     1     0     0
SMALL
bcc


@<TRIPOS>ATOM
      1 N12         0.4510   -0.2150   -0.0210 na        1 4X2     -0.241900
      2 C13         1.3630   -0.6460   -0.9990 cc        1 4X2      0.143800
      3 C15         3.3110   -1.0800   -2.1280 c1        1 4X2      0.079400
      4 C17         1.2030   -1.8370   -3.1890 c         1 4X2      0.555600
      5 C21        -0.8390   -0.5950   -0.4880 cc        1 4X2      0.333400
      6 O01         2.3040    6.2080    4.8010 oh        1 4X2     -0.801400
      7 P02         0.8500    5.4240    4.7560 p5        1 4X2      1.342600
      8 O03         0.3000    5.3900    6.1310 o         1 4X2     -0.872000
      9 O04         0.1860    6.1510    3.6430 o         1 4X2     -0.872000
     10 C05         1.3320    3.8550    4.3130 c3        1 4X2     -0.344600
     11 O07         0.7250    2.2580    2.6720 os        1 4X2     -0.448600
     12 C08         0.4500    1.9170    1.3120 c3        1 4X2      0.083100
     13 C09        -1.0080    2.2690    1.0070 c3        1 4X2      0.100400
     14 O10        -1.9040    1.6300    1.8970 oh        1 4X2     -0.619800
     15 C11         0.7320    0.3970    1.2340 c3        1 4X2      0.058300
     16 N14         2.7340   -0.5510   -1.0460 ne        1 4X2     -0.671800
     17 N16         2.6040   -1.6920   -3.1550 n         1 4X2     -0.472500
     18 O18         0.6510   -2.4100   -4.1620 o         1 4X2     -0.705100
     19 C19         0.5420   -1.2750   -2.0270 cd        1 4X2      0.097800
     20 N20        -0.8100   -1.2210   -1.6730 nd        1 4X2     -0.621000
     21 H1          2.3230    6.9300    4.1840 ho        1 4X2      0.418000
     22 H2         -1.7290   -0.3660    0.1050 h5        1 4X2      0.050100
     23 H5          0.7170    3.1110    4.8800 hc        1 4X2      0.079200
     24 H6          2.3910    3.6760    4.6200 hc        1 4X2      0.079200
     25 H7          0.4230    4.3220    2.4020 h1        1 4X2      0.044700
     26 H8          2.1520    3.7170    2.2830 h1        1 4X2      0.044700
     27 H9          1.1250    2.4750    0.6090 h1        1 4X2      0.062700
     28 H10        -1.3040    1.9160   -0.0160 h1        1 4X2      0.052700
     29 H11        -1.1450    3.3820    1.0790 h1        1 4X2      0.052700
     30 H12        -1.5580    1.7780    2.7880 ho        1 4X2      0.414000
     31 H13         0.1000   -0.0970    2.0280 h1        1 4X2      0.067200
     32 H14         1.8200    0.2400    1.4830 h1        1 4X2      0.067200
     33 H15         3.1190   -2.0520   -3.9210 hn        1 4X2      0.295500
     34 C06         1.1790    3.6110    2.8390 c3        1 4X2      0.149400
@<TRIPOS>BOND
     1    1    2 1   
     2    1    5 1   
     3    1   15 1   
     4    2   16 1   
     5    2   19 2   
     6    3   16 2   
     7    3   17 2   
     8    4   17 1   
     9    4   18 2   
    10    4   19 1   
    11    5   20 2   
    12    5   22 1   
    13    6    7 1   
    14    6   21 1   
    15    7    8 1   
    16    7    9 1   
    17    7   10 1   
    18   10   23 1   
    19   10   24 1   
    20   10   34 1   
    21   11   12 1   
    22   11   34 1   
    23   12   13 1   
    24   12   15 1   
    25   12   27 1   
    26   13   14 1   
    27   13   28 1   
    28   13   29 1   
    29   14   30 1   
    30   15   31 1   
    31   15   32 1   
    32   17   33 1   
    33   19   20 1   
    34   25   34 1   
    35   26   34 1   
@<TRIPOS>SUBSTRUCTURE
     1 4X2         1 TEMP              0 ****  ****    0 ROOT
