@<TRIPOS>MOLECULE
4X4
   46    50     1     0     0
SMALL
bcc


@<TRIPOS>ATOM
      1 N1          0.6450   -1.9820   -0.0420 na        1 4X4     -0.215100
      2 O1         -5.4190    0.0590   -0.0220 os        1 4X4     -0.362800
      3 C2          1.3300   -0.7870   -0.1290 cc        1 4X4      0.001700
      4 N2          3.2200    0.5380   -0.1780 na        1 4X4      0.073400
      5 O2         -2.3780   -1.8490    0.3950 o         1 4X4     -0.667100
      6 C3          2.8260   -0.8000   -0.0600 cc        1 4X4     -0.106200
      7 N3          1.8020    3.8690   -0.5690 nb        1 4X4     -0.630000
      8 C4          3.5060   -1.9770    0.0950 cd        1 4X4     -0.008000
      9 N4         -2.7110    0.4180    0.6340 n         1 4X4     -0.541900
     10 C5          2.7590   -3.1760    0.1950 cd        1 4X4     -0.277000
     11 C6          1.3640   -3.1450    0.1330 cc        1 4X4      0.231800
     12 C7          0.8760    0.5220   -0.2820 cd        1 4X4     -0.155200
     13 C8          2.0550    1.3620   -0.3120 cd        1 4X4     -0.035100
     14 C10         4.3700    1.2990   -0.2010 cc        1 4X4     -0.172100
     15 C11         3.9750    2.6470   -0.3520 ca        1 4X4     -0.183300
     16 C12         2.5040    2.7000   -0.4230 ca        1 4X4      0.266300
     17 C14         2.5290    4.9710   -0.6460 ca        1 4X4      0.380200
     18 C15         3.9660    5.0240   -0.5880 ca        1 4X4     -0.258300
     19 C16         4.6860    3.8660   -0.4410 ca        1 4X4     -0.063000
     20 C17        -0.5070    0.9850   -0.4300 c3        1 4X4     -0.029200
     21 C18        -1.3210    0.7250    0.8490 c3        1 4X4      0.084000
     22 C20        -3.1480   -0.8570    0.3670 c         1 4X4      0.608600
     23 C21        -4.5790   -1.0620    0.0860 cc        1 4X4      0.170200
     24 C22        -5.3100   -2.2200   -0.1120 cd        1 4X4     -0.167300
     25 C23        -6.6740   -1.8120   -0.3550 cd        1 4X4     -0.278300
     26 C24        -6.6920   -0.4320   -0.2920 cc        1 4X4      0.275600
     27 C28        -0.6900   -4.3990    0.3350 c3        1 4X4      0.101700
     28 H4          4.6040   -2.0230    0.1490 ha        1 4X4      0.150000
     29 HN4        -3.3350    1.1760    0.4800 hn        1 4X4      0.326500
     30 H5          3.2640   -4.1400    0.3240 ha        1 4X4      0.167000
     31 H10         5.3630    0.8640   -0.1130 h4        1 4X4      0.172000
     32 H14         1.9670    5.9150   -0.7640 h4        1 4X4      0.010100
     33 H15         4.4580    6.0010   -0.6630 ha        1 4X4      0.133000
     34 H16         5.7830    3.8660   -0.3930 ha        1 4X4      0.129000
     35 H17        -0.5170    2.0850   -0.6600 hc        1 4X4      0.064700
     36 H17A       -0.9750    0.4570   -1.3060 hc        1 4X4      0.064700
     37 H18        -1.2740    1.6430    1.5010 h1        1 4X4      0.066200
     38 H18A       -0.8610   -0.1300    1.4230 h1        1 4X4      0.066200
     39 H22        -4.9340   -3.2410   -0.0890 ha        1 4X4      0.177000
     40 H23        -7.5110   -2.4780   -0.5490 ha        1 4X4      0.171000
     41 H24        -7.4530    0.3360   -0.4030 h4        1 4X4      0.061100
     42 H28        -0.9040   -5.4890    0.4810 h1        1 4X4      0.061700
     43 H28A       -1.0460   -3.8040    1.2110 h1        1 4X4      0.061700
     44 H28B       -1.1640   -4.0280   -0.6060 h1        1 4X4      0.061700
     45 HN1        -0.3570   -1.9720   -0.0400 hn        1 4X4      0.337700
     46 O3          0.7340   -4.3690    0.2320 os        1 4X4     -0.322900
@<TRIPOS>BOND
     1    1    3 1   
     2    1   11 1   
     3    1   45 1   
     4    2   23 1   
     5    2   26 1   
     6    3    6 1   
     7    3   12 2   
     8    4    6 1   
     9    4   13 1   
    10    4   14 1   
    11    5   22 2   
    12    6    8 2   
    13    7   16 ar  
    14    7   17 ar  
    15    8   10 1   
    16    8   28 1   
    17    9   21 1   
    18    9   22 1   
    19    9   29 1   
    20   10   11 2   
    21   10   30 1   
    22   11   46 1   
    23   12   13 1   
    24   12   20 1   
    25   13   16 2   
    26   14   15 2   
    27   14   31 1   
    28   15   16 ar  
    29   15   19 ar  
    30   17   18 ar  
    31   17   32 1   
    32   18   19 ar  
    33   18   33 1   
    34   19   34 1   
    35   20   21 1   
    36   20   35 1   
    37   20   36 1   
    38   21   37 1   
    39   21   38 1   
    40   22   23 1   
    41   23   24 2   
    42   24   25 1   
    43   24   39 1   
    44   25   26 2   
    45   25   40 1   
    46   26   41 1   
    47   27   42 1   
    48   27   43 1   
    49   27   44 1   
    50   27   46 1   
@<TRIPOS>SUBSTRUCTURE
     1 4X4         1 TEMP              0 ****  ****    0 ROOT
