@<TRIPOS>MOLECULE
4X4
   46    40     1     0     0
SMALL
bcc


@<TRIPOS>ATOM
      1 N1         -0.9620   -0.4990    0.9450 n3        1 4X4     -0.184000
      2 O1         -3.4930   -2.1280   -2.7390 os        1 4X4     -0.111000
      3 C2          0.4820   -0.1210    1.1030 c2        1 4X4      0.029000
      4 N2          2.0150    1.3040    2.2320 n2        1 4X4     -0.031000
      5 O2         -0.0700   -2.0410   -4.1780 o         1 4X4     -0.346000
      6 C3          1.0040    0.0810    2.3930 c1        1 4X4     -0.045000
      7 N3          3.4560    3.0810   -0.6530 n1        1 4X4     -0.104000
      8 O3         -3.0900   -1.1180    1.9810 os        1 4X4     -0.221000
      9 C4          0.1370   -0.0540    3.6010 c1        1 4X4     -0.016000
     10 N4         -0.8640   -0.5200   -2.6020 n         1 4X4     -0.373000
     11 C5         -1.2640   -0.4000    3.4490 c1        1 4X4     -0.316000
     12 C6         -1.8100   -0.6500    2.1170 c2        1 4X4      0.210000
     13 C7          1.0190    0.6540    0.2200 c1        1 4X4     -0.131000
     14 C8          1.9570    1.6440    0.7830 c2        1 4X4     -0.014000
     15 C10         3.0350    1.9780    2.7740 c1        1 4X4     -0.136000
     16 C11         3.6790    2.7810    1.7020 c1        1 4X4     -0.122000
     17 C12         2.9930    2.5470    0.5140 c1        1 4X4     -0.055000
     18 C14         4.6070    3.8550   -0.6530 c1        1 4X4     -0.136000
     19 C15         5.2990    4.0900    0.5470 c1        1 4X4     -0.136000
     20 C16         4.8500    3.5690    1.6950 c1        1 4X4     -0.061000
     21 C17         0.2990    0.9470   -1.0560 c2        1 4X4     -0.102000
     22 C18         0.4090   -0.2580   -2.0000 c3        1 4X4     -0.037000
     23 C20        -1.0230   -1.6610   -3.4500 c2        1 4X4      0.368000
     24 C21        -2.3790   -2.4320   -3.4780 c2        1 4X4     -0.112000
     25 C22        -2.6920   -3.5030   -4.3070 c1        1 4X4     -0.106000
     26 C23        -3.9970   -3.8500   -4.0730 c1        1 4X4     -0.212000
     27 C24        -4.4960   -3.0000   -3.1010 c1        1 4X4     -0.065000
     28 C28        -3.5630   -1.8810    3.1300 c3        1 4X4     -0.067000
     29 H4          0.5210    0.1220    4.5240 ha        1 4X4      0.149000
     30 HN4        -1.5430    0.0930   -2.5280 hn        1 4X4      0.223000
     31 H5         -1.8510   -0.5030    4.2630 ha        1 4X4      0.156000
     32 H10         3.3460    1.8980    3.6940 DU        1 4X4      0.178750
     33 H14         4.9410    4.2380   -1.4910 ha        1 4X4      0.141500
     34 H15         6.0800    4.6190    0.5440 ha        1 4X4      0.141500
     35 H16         5.3390    3.7380    2.5400 ha        1 4X4      0.129000
     36 H17         0.7020    1.7370   -1.4850 ha        1 4X4      0.105000
     37 H17A       -0.6060    1.1190   -0.8730 ha        1 4X4      0.105000
     38 H18         1.0710   -0.0600   -2.7080 h1        1 4X4      0.104500
     39 H18A        0.7100   -1.0790   -1.4750 h1        1 4X4      0.104500
     40 H22        -2.0780   -3.9380   -4.9560 DU        1 4X4      0.178750
     41 H23        -4.5220   -4.6190   -4.5420 DU        1 4X4      0.178750
     42 H24        -5.3570   -3.0140   -2.7530 DU        1 4X4      0.178750
     43 H28        -3.9760   -1.2620    3.7940 h1        1 4X4      0.095333
     44 H28A       -4.2220   -2.5280    2.8400 h1        1 4X4      0.095333
     45 H28B       -2.8160   -2.3410    3.5400 h1        1 4X4      0.095333
     46 HN1        -1.2790   -0.6340    0.1730 hn        1 4X4      0.273000
@<TRIPOS>BOND
     1    1    3 1   
     2    1   12 1   
     3    1   46 1   
     4    2   24 1   
     5    2   27 1   
     6    3    6 1   
     7    3   13 1   
     8    4   14 1   
     9    4   15 1   
    10    5   23 1   
    11    6    9 1   
    12    7   17 1   
    13    8   12 1   
    14    8   28 1   
    15    9   29 1   
    16   10   22 1   
    17   10   23 1   
    18   10   30 1   
    19   11   12 1   
    20   11   31 1   
    21   13   14 1   
    22   14   17 1   
    23   15   16 1   
    24   16   20 1   
    25   18   19 1   
    26   18   33 1   
    27   19   34 1   
    28   20   35 1   
    29   21   22 1   
    30   21   36 1   
    31   21   37 1   
    32   22   38 1   
    33   22   39 1   
    34   23   24 1   
    35   24   25 1   
    36   25   26 1   
    37   26   27 1   
    38   28   43 1   
    39   28   44 1   
    40   28   45 1   
@<TRIPOS>SUBSTRUCTURE
     1 4X4         1 TEMP              0 ****  ****    0 ROOT
