@<TRIPOS>MOLECULE
4X4
   47    50     1     0     0
SMALL
bcc


@<TRIPOS>ATOM
      1 N1         -0.2090    0.3420    0.0140 nh        1 4X4     -0.180000
      2 O1          1.5040    1.2070   -7.3680 os        1 4X4      0.004000
      3 C2          1.1790    0.2690    0.1000 c2        1 4X4      0.068000
      4 N2          3.2130    0.0500    1.1050 na        1 4X4     -0.085000
      5 O2          0.6310    2.3900   -4.1370 o         1 4X4     -0.373000
      6 C3          1.8350    0.0410    1.3450 c2        1 4X4     -0.041000
      7 N3          5.6040    0.5080   -1.6310 n2        1 4X4     -0.166000
      8 C4          1.1340   -0.1470    2.5510 c1        1 4X4      0.002000
      9 N4          2.4220    1.0410   -4.6700 n         1 4X4     -0.363000
     10 C5         -0.3110   -0.0850    2.4920 c3        1 4X4     -0.190000
     11 C6         -0.9500    0.1850    1.1370 c2        1 4X4      0.258000
     12 C7          2.1670    0.4250   -0.9880 c2        1 4X4     -0.052000
     13 C8          3.4530    0.2950   -0.3100 c2        1 4X4     -0.097000
     14 C10         4.4010   -0.0760    1.7840 c2        1 4X4      0.120000
     15 C11         5.4410    0.0770    0.8440 c2        1 4X4     -0.256000
     16 C12         4.8320    0.3140   -0.4860 c2        1 4X4      0.029000
     17 C14         6.8960    0.4720   -1.4700 c2        1 4X4     -0.027000
     18 C15         7.6350    0.2410   -0.1860 c3        1 4X4     -0.249000
     19 C16         6.8340    0.0340    1.0260 c1        1 4X4     -0.004000
     20 C17         1.8790    0.6380   -2.2870 c2        1 4X4     -0.030000
     21 C18         2.9160    0.8660   -3.3310 c3        1 4X4     -0.008000
     22 C20         1.3660    1.8570   -4.9960 c2        1 4X4      0.346000
     23 C21         1.0980    2.0680   -6.4420 c2        1 4X4      0.001000
     24 C22         0.3560    3.1860   -7.0890 c3        1 4X4     -0.176000
     25 C23         0.4290    2.7990   -8.5370 c2        1 4X4     -0.334000
     26 C24         1.1250    1.6040   -8.6610 c1        1 4X4     -0.089000
     27 C28        -3.0450    0.5210   -0.0340 c3        1 4X4     -0.109000
     28 H4         -0.7330   -1.0620    2.8920 hc        1 4X4      0.227000
     29 HN4         3.5140    1.7830   -3.0260 h1        1 4X4      0.149500
     30 H5         -0.6720    0.7140    3.2160 hc        1 4X4      0.227000
     31 H10         4.4530   -0.2640    2.8640 h4        1 4X4      0.219000
     32 H14         8.3220    1.1180    0.0100 hc        1 4X4      0.175000
     33 H15         7.5060    0.6280   -2.3830 h4        1 4X4      0.166000
     34 H16         8.3090   -0.6590   -0.3020 hc        1 4X4      0.175000
     35 H17         4.4940   -1.0070   -5.9440 ha        1 4X4      0.002000
     36 H17A        4.4830   -1.0020   -5.2670 ha        1 4X4      0.002000
     37 H18         0.8250    0.6880   -2.6170 ha        1 4X4      0.148000
     38 H18A        3.6330   -0.0130   -3.3440 h1        1 4X4      0.149500
     39 H22        -0.6980    3.2410   -6.7050 hc        1 4X4      0.184000
     40 H23         0.8490    4.1760   -6.8910 hc        1 4X4      0.184000
     41 H24        -0.0090    3.4000   -9.3290 ha        1 4X4      0.179000
     42 H28        -2.7800    1.5250   -0.4440 h1        1 4X4      0.135333
     43 H28A       -2.8920   -0.2980   -0.7770 h1        1 4X4      0.135333
     44 H28B       -4.0990    0.5140    0.3560 h1        1 4X4      0.135333
     45 HN1        -0.6250    0.5330   -0.8820 hn        1 4X4      0.285000
     46 O3         -2.2830    0.2540    1.1610 os        1 4X4     -0.145000
     47 H42         2.9450    0.6070   -5.4030 hn        1 4X4      0.269000
@<TRIPOS>BOND
     1    1    3 1   
     2    1   11 1   
     3    1   45 1   
     4    2   23 1   
     5    2   26 1   
     6    3    6 1   
     7    3   12 1   
     8    4    6 1   
     9    4   13 1   
    10    4   14 1   
    11    5   22 1   
    12    6    8 1   
    13    7   16 1   
    14    7   17 1   
    15    8   10 1   
    16    9   21 1   
    17    9   22 1   
    18    9   47 1   
    19   10   11 1   
    20   10   28 1   
    21   10   30 1   
    22   11   46 1   
    23   12   13 1   
    24   12   20 1   
    25   13   16 1   
    26   14   15 1   
    27   14   31 1   
    28   15   16 1   
    29   15   19 1   
    30   17   18 1   
    31   17   33 1   
    32   18   19 1   
    33   18   32 1   
    34   18   34 1   
    35   20   21 1   
    36   20   37 1   
    37   21   29 1   
    38   21   38 1   
    39   22   23 1   
    40   23   24 1   
    41   24   25 1   
    42   24   39 1   
    43   24   40 1   
    44   25   26 1   
    45   25   41 1   
    46   27   42 1   
    47   27   43 1   
    48   27   44 1   
    49   27   46 1   
    50   35   36 1   
@<TRIPOS>SUBSTRUCTURE
     1 4X4         1 TEMP              0 ****  ****    0 ROOT
