@<TRIPOS>MOLECULE
4X4
   47    50     1     0     0
SMALL
bcc


@<TRIPOS>ATOM
      1 N1         -0.2060    0.3540    0.0190 nu        1 4X4     -0.180000
      2 O1          1.4980    1.1560   -7.3700 os        1 4X4      0.004000
      3 C2          1.1820    0.2850    0.1050 c2        1 4X4      0.068000
      4 N2          3.2170    0.0810    1.1110 na        1 4X4     -0.085000
      5 O2          0.6260    2.3670   -4.1500 o         1 4X4     -0.373000
      6 C3          1.8390    0.0710    1.3520 c2        1 4X4     -0.041000
      7 N3          5.6050    0.5210   -1.6310 n2        1 4X4     -0.166000
      8 C4          1.1390   -0.1080    2.5600 c1        1 4X4      0.002000
      9 N4          2.4200    1.0180   -4.6730 ns        1 4X4     -0.363000
     10 C5         -0.3060   -0.0510    2.5010 c3        1 4X4     -0.190000
     11 C6         -0.9460    0.2050    1.1440 c2        1 4X4      0.258000
     12 C7          2.1680    0.4350   -0.9850 c2        1 4X4     -0.052000
     13 C8          3.4550    0.3140   -0.3060 c2        1 4X4     -0.097000
     14 C10         4.4050   -0.0360    1.7900 c2        1 4X4      0.120000
     15 C11         5.4440    0.1120    0.8470 c2        1 4X4     -0.256000
     16 C12         4.8340    0.3350   -0.4840 c2        1 4X4      0.029000
     17 C14         6.8970    0.4890   -1.4700 c2        1 4X4     -0.027000
     18 C15         7.6380    0.2720   -0.1850 c3        1 4X4     -0.249000
     19 C16         6.8380    0.0740    1.0300 c1        1 4X4     -0.004000
     20 C17         1.8790    0.6350   -2.2850 c2        1 4X4     -0.030000
     21 C18         2.9150    0.8560   -3.3320 c3        1 4X4     -0.008000
     22 C20         1.3610    1.8280   -5.0050 c2        1 4X4      0.346000
     23 C21         1.0920    2.0250   -6.4530 c2        1 4X4      0.001000
     24 C22         0.3480    3.1360   -7.1100 c3        1 4X4     -0.176000
     25 C23         0.4190    2.7350   -8.5550 c2        1 4X4     -0.334000
     26 C24         1.1160    1.5400   -8.6670 c1        1 4X4     -0.089000
     27 C28        -3.0430    0.5250   -0.0290 c3        1 4X4     -0.109000
     28 H4         -0.7250   -1.0260    2.9100 hc        1 4X4      0.227000
     29 HN4         3.5100    1.7770   -3.0360 h1        1 4X4      0.149500
     30 H5         -0.6680    0.7540    3.2180 hc        1 4X4      0.227000
     31 H10         4.4590   -0.2140    2.8720 h4        1 4X4      0.219000
     32 H14         8.3220    1.1520    0.0030 hc        1 4X4      0.175000
     33 H15         7.5060    0.6380   -2.3850 h4        1 4X4      0.166000
     34 H16         8.3140   -0.6280   -0.2930 hc        1 4X4      0.175000
     35 H17         4.4930   -1.0390   -5.9290 ha        1 4X4      0.002000
     36 H17A        4.4840   -1.0280   -5.2520 ha        1 4X4      0.002000
     37 H18         0.8240    0.6790   -2.6160 ha        1 4X4      0.148000
     38 H18A        3.6340   -0.0210   -3.3380 h1        1 4X4      0.149500
     39 H22        -0.7050    3.1940   -6.7250 hc        1 4X4      0.184000
     40 H23         0.8400    4.1280   -6.9220 hc        1 4X4      0.184000
     41 H24        -0.0190    3.3280   -9.3510 ha        1 4X4      0.179000
     42 H28        -2.7810    1.5260   -0.4480 h1        1 4X4      0.135333
     43 H28A       -2.8890   -0.3010   -0.7640 h1        1 4X4      0.135333
     44 H28B       -4.0970    0.5190    0.3620 h1        1 4X4      0.135333
     45 HN1        -0.6240    0.5360   -0.8780 hn        1 4X4      0.285000
     46 O3         -2.2800    0.2710    1.1680 os        1 4X4     -0.145000
     47 H42         2.9420    0.5770   -5.4020 hn        1 4X4      0.269000
@<TRIPOS>BOND
     1    1    3 1   
     2    1   11 1   
     3    1   45 1   
     4    2   23 1   
     5    2   26 1   
     6    3    6 1   
     7    3   12 1   
     8    4    6 1   
     9    4   13 1   
    10    4   14 1   
    11    5   22 1   
    12    6    8 1   
    13    7   16 1   
    14    7   17 1   
    15    8   10 1   
    16    9   21 1   
    17    9   22 1   
    18    9   47 1   
    19   10   11 1   
    20   10   28 1   
    21   10   30 1   
    22   11   46 1   
    23   12   13 1   
    24   12   20 1   
    25   13   16 1   
    26   14   15 1   
    27   14   31 1   
    28   15   16 1   
    29   15   19 1   
    30   17   18 1   
    31   17   33 1   
    32   18   19 1   
    33   18   32 1   
    34   18   34 1   
    35   20   21 1   
    36   20   37 1   
    37   21   29 1   
    38   21   38 1   
    39   22   23 1   
    40   23   24 1   
    41   24   25 1   
    42   24   39 1   
    43   24   40 1   
    44   25   26 1   
    45   25   41 1   
    46   27   42 1   
    47   27   43 1   
    48   27   44 1   
    49   27   46 1   
    50   35   36 1   
@<TRIPOS>SUBSTRUCTURE
     1 4X4         1 TEMP              0 ****  ****    0 ROOT
