@<TRIPOS>MOLECULE
4X9
   43    45     1     0     0
SMALL
bcc


@<TRIPOS>ATOM
      1 C1         -0.1210    0.3640   -0.0840 c3        1 4X9      0.817700
      2 O3          0.8640    1.1740    0.5030 os        1 4X9     -0.366900
      3 C4          1.6340    0.6150    1.5250 ca        1 4X9      0.051100
      4 C5          2.9710    0.3100    1.2430 ca        1 4X9     -0.093000
      5 C6          3.8010   -0.1100    2.2790 ca        1 4X9     -0.157000
      6 C7          3.2800   -0.2230    3.5740 ca        1 4X9      0.123100
      7 C8          1.9360    0.0810    3.8530 ca        1 4X9     -0.157000
      8 C9          1.1070    0.5010    2.8190 ca        1 4X9     -0.093000
      9 O10         4.0050   -0.7140    4.6520 os        1 4X9     -0.245200
     10 C11         5.3860   -0.5310    4.6220 ca        1 4X9      0.098100
     11 C12         5.9800    0.6820    4.2550 ca        1 4X9     -0.153000
     12 C13         7.3610    0.8210    4.3670 ca        1 4X9     -0.091000
     13 C14         8.1470   -0.2380    4.8400 cp        1 4X9     -0.033000
     14 C15         7.5340   -1.4440    5.2090 ca        1 4X9     -0.091000
     15 C16         6.1550   -1.6020    5.0990 ca        1 4X9     -0.153000
     16 C17         9.5960   -0.0840    4.9580 cp        1 4X9     -0.196300
     17 C18        10.1620    0.6790    6.0030 ca        1 4X9      0.190100
     18 C19        11.5630    0.8000    6.0900 ca        1 4X9     -0.211900
     19 C20        12.3660    0.1530    5.1200 ca        1 4X9      0.475600
     20 C22        10.4830   -0.6890    4.0330 ca        1 4X9      0.468600
     21 F23        -1.1020    0.0430    0.7970 f         1 4X9     -0.217300
     22 F24        -0.6460    1.1190   -1.0790 f         1 4X9     -0.217300
     23 F25         0.3910   -0.7770   -0.6090 f         1 4X9     -0.217300
     24 C26        13.8540    0.2740    5.2040 c3        1 4X9     -0.156400
     25 Cl         12.2710    1.7070    7.3400 cl        1 4X9     -0.079400
     26 O28         9.2960    1.2660    6.8840 oh        1 4X9     -0.475100
     27 C29         9.9080   -1.4850    2.9030 c3        1 4X9     -0.154400
     28 N30        11.8290   -0.5730    4.1150 nb        1 4X9     -0.691000
     29 H5          3.3550    0.4080    0.2170 ha        1 4X9      0.157000
     30 H6          4.8560   -0.3530    2.0840 ha        1 4X9      0.158000
     31 H8          1.5550   -0.0220    4.8790 ha        1 4X9      0.158000
     32 H9          0.0490    0.7410    3.0040 ha        1 4X9      0.157000
     33 H12         5.3590    1.5120    3.8870 ha        1 4X9      0.151500
     34 H13         7.8370    1.7750    4.0940 ha        1 4X9      0.142500
     35 H15         8.1470   -2.2740    5.5920 ha        1 4X9      0.142500
     36 H16         5.6650   -2.5410    5.3940 ha        1 4X9      0.151500
     37 H26        14.1420    1.3530    5.1410 hc        1 4X9      0.063033
     38 H26A       14.3690   -0.2820    4.3830 hc        1 4X9      0.063033
     39 H26B       14.2030   -0.1350    6.1850 hc        1 4X9      0.063033
     40 HO28        9.8140    1.7350    7.5600 ho        1 4X9      0.434000
     41 H29        10.6920   -2.0430    2.3350 hc        1 4X9      0.060033
     42 H29A        9.3830   -0.7920    2.1990 hc        1 4X9      0.060033
     43 H29B        9.1640   -2.2170    3.3060 hc        1 4X9      0.060033
@<TRIPOS>BOND
     1    1    2 1   
     2    1   21 1   
     3    1   22 1   
     4    1   23 1   
     5    2    3 1   
     6    3    4 ar  
     7    3    8 ar  
     8    4    5 ar  
     9    4   29 1   
    10    5    6 ar  
    11    5   30 1   
    12    6    7 ar  
    13    6    9 1   
    14    7    8 ar  
    15    7   31 1   
    16    8   32 1   
    17    9   10 1   
    18   10   11 ar  
    19   10   15 ar  
    20   11   12 ar  
    21   11   33 1   
    22   12   13 ar  
    23   12   34 1   
    24   13   14 ar  
    25   13   16 1   
    26   14   15 ar  
    27   14   35 1   
    28   15   36 1   
    29   16   17 ar  
    30   16   20 ar  
    31   17   18 ar  
    32   17   26 1   
    33   18   19 ar  
    34   18   25 1   
    35   19   24 1   
    36   19   28 ar  
    37   20   27 1   
    38   20   28 ar  
    39   24   37 1   
    40   24   38 1   
    41   24   39 1   
    42   26   40 1   
    43   27   41 1   
    44   27   42 1   
    45   27   43 1   
@<TRIPOS>SUBSTRUCTURE
     1 4X9         1 TEMP              0 ****  ****    0 ROOT
