@<TRIPOS>MOLECULE
4XB
   54    57     1     0     0
SMALL
bcc


@<TRIPOS>ATOM
      1 C          -0.2110    0.4230    0.1030 c3        1 4XB     -0.057900
      2 N          -3.6420    0.4500    5.8830 n3        1 4XB     -0.822200
      3 O           3.4480   -0.0530    0.7150 os        1 4XB     -0.165200
      4 C1          1.1440    0.1910    0.6040 cc        1 4XB      0.026600
      5 O1         -0.5520   -0.0960    3.1160 os        1 4XB     -0.321900
      6 C2          2.3260    0.1940   -0.1140 cd        1 4XB     -0.068100
      7 O2          1.7590    0.5910   -2.4200 o         1 4XB     -0.542000
      8 C3          2.9310   -0.2180    1.9940 ca        1 4XB      0.118100
      9 C4          3.6680   -0.4840    3.1470 ca        1 4XB     -0.169000
     10 C5          2.9410   -0.6140    4.3250 ca        1 4XB     -0.058000
     11 C6          1.5440   -0.4890    4.3610 ca        1 4XB     -0.244000
     12 C7          0.8130   -0.2260    3.1970 ca        1 4XB      0.204100
     13 C8         -1.3160   -0.3030    4.3190 c3        1 4XB      0.141100
     14 C9         -2.7290   -0.6250    3.8370 c3        1 4XB     -0.094400
     15 C10        -3.6760   -0.7220    5.0300 c3        1 4XB      0.165800
     16 C11        -2.3120    0.8200    6.3210 c3        1 4XB      0.165800
     17 C12        -1.3190    0.9610    5.1690 c3        1 4XB     -0.094400
     18 C13         1.5100   -0.0800    1.9830 ca        1 4XB     -0.168800
     19 C14         2.5890    0.3920   -1.5270 c         1 4XB      0.681300
     20 C15         9.4530    1.3960   -6.2630 c3        1 4XB      0.114700
     21 C19         4.2170    0.5280   -3.2550 c3        1 4XB      0.182700
     22 C20         5.6990    0.4810   -3.4230 ca        1 4XB     -0.061300
     23 C21         6.5400   -0.0550   -2.4420 ca        1 4XB     -0.137000
     24 C22         7.9160   -0.0990   -2.6540 ca        1 4XB     -0.099000
     25 C23         8.4710    0.3820   -3.8390 ca        1 4XB     -0.200000
     26 C24         7.6240    0.9170   -4.8170 ca        1 4XB      0.122100
     27 C25         6.2340    0.9730   -4.6150 ca        1 4XB     -0.154000
     28 OAQ         8.0500    1.4250   -6.0310 os        1 4XB     -0.328900
     29 OAR         3.9150    0.3400   -1.8580 os        1 4XB     -0.414900
     30 H          -0.5280    1.4720    0.3410 hc        1 4XB      0.067700
     31 HA         -0.9310   -0.2740    0.6020 hc        1 4XB      0.067700
     32 HB         -0.2570    0.2810   -1.0070 hc        1 4XB      0.067700
     33 HN         -4.2410    0.3160    6.6760 hn        1 4XB      0.367800
     34 H4          4.7600   -0.5820    3.1160 ha        1 4XB      0.157000
     35 H5          3.4750   -0.8230    5.2660 ha        1 4XB      0.138000
     36 H6          1.0340   -0.5980    5.3280 ha        1 4XB      0.141000
     37 H8         -0.9010   -1.1760    4.8930 h1        1 4XB      0.051700
     38 H9         -3.0700    0.1740    3.1290 hc        1 4XB      0.064200
     39 H9A        -2.7300   -1.5980    3.2850 hc        1 4XB      0.064200
     40 H10        -4.7300   -0.8240    4.6450 h1        1 4XB      0.031200
     41 H10A       -3.4290   -1.6680    5.5990 h1        1 4XB      0.031200
     42 H11        -1.8870    0.0780    7.0610 h1        1 4XB      0.031200
     43 H11A       -2.3970    1.8130    6.8480 h1        1 4XB      0.031200
     44 H12        -1.5940    1.8350    4.5240 hc        1 4XB      0.064200
     45 H12A       -0.2980    1.1510    5.5860 hc        1 4XB      0.064200
     46 H15         9.5570    1.8520   -7.2810 h1        1 4XB      0.043700
     47 H15A        9.9930    2.0070   -5.5000 h1        1 4XB      0.043700
     48 H15B        9.8320    0.3450   -6.2620 h1        1 4XB      0.043700
     49 H19         3.7220   -0.2950   -3.8380 h1        1 4XB      0.066200
     50 H19A        3.7980    1.5160   -3.5830 h1        1 4XB      0.066200
     51 H21         6.1090   -0.4320   -1.5020 ha        1 4XB      0.155000
     52 H22         8.5750   -0.5190   -1.8790 ha        1 4XB      0.133000
     53 H23         9.5580    0.3380   -3.9930 ha        1 4XB      0.136000
     54 H25         5.5900    1.4020   -5.3960 ha        1 4XB      0.150000
@<TRIPOS>BOND
     1    1    4 1   
     2    1   30 1   
     3    1   31 1   
     4    1   32 1   
     5    2   15 1   
     6    2   16 1   
     7    2   33 1   
     8    3    6 1   
     9    3    8 1   
    10    4    6 2   
    11    4   18 1   
    12    5   12 1   
    13    5   13 1   
    14    6   19 1   
    15    7   19 2   
    16    8    9 ar  
    17    8   18 ar  
    18    9   10 ar  
    19    9   34 1   
    20   10   11 ar  
    21   10   35 1   
    22   11   12 ar  
    23   11   36 1   
    24   12   18 ar  
    25   13   14 1   
    26   13   17 1   
    27   13   37 1   
    28   14   15 1   
    29   14   38 1   
    30   14   39 1   
    31   15   40 1   
    32   15   41 1   
    33   16   17 1   
    34   16   42 1   
    35   16   43 1   
    36   17   44 1   
    37   17   45 1   
    38   19   29 1   
    39   20   28 1   
    40   20   46 1   
    41   20   47 1   
    42   20   48 1   
    43   21   22 1   
    44   21   29 1   
    45   21   49 1   
    46   21   50 1   
    47   22   23 ar  
    48   22   27 ar  
    49   23   24 ar  
    50   23   51 1   
    51   24   25 ar  
    52   24   52 1   
    53   25   26 ar  
    54   25   53 1   
    55   26   27 ar  
    56   26   28 1   
    57   27   54 1   
@<TRIPOS>SUBSTRUCTURE
     1 4XB         1 TEMP              0 ****  ****    0 ROOT
