@<TRIPOS>MOLECULE
4XB
   54    52     1     0     0
SMALL
bcc


@<TRIPOS>ATOM
      1 C          -2.3240    0.7890   -0.9170 c3        1 4XB     -0.180000
      2 N          -5.9040    0.9240    4.9430 n3        1 4XB     -0.301000
      3 O           1.2120    0.5710   -0.1540 os        1 4XB     -0.076000
      4 C1         -1.0250    0.7200   -0.0870 c2        1 4XB      0.019000
      5 O1         -2.6510    0.9300    2.2420 os        1 4XB     -0.205000
      6 C2          0.0880    0.6030   -0.9340 c1        1 4XB     -0.092000
      7 O2         -0.3390    0.8740   -3.2320 o         1 4XB     -0.353000
      8 C3          0.8070    0.6690    1.2040 c1        1 4XB      0.072000
      9 C4          1.5240    0.6520    2.3920 c1        1 4XB     -0.113500
     10 C5          0.8520    0.7250    3.6180 c1        1 4XB     -0.113500
     11 C6         -0.5150    0.8140    3.6480 c1        1 4XB     -0.244000
     12 C7         -1.2370    0.8320    2.4620 c2        1 4XB      0.159000
     13 C8         -3.3800    0.7250    3.5180 c3        1 4XB      0.030000
     14 C9         -4.4340   -0.2610    3.2960 c3        1 4XB     -0.173000
     15 C10        -5.3660   -0.3940    4.4870 c3        1 4XB     -0.071000
     16 C11        -4.8620    1.9130    5.1720 c3        1 4XB     -0.071000
     17 C12        -3.9270    2.0560    3.9810 c3        1 4XB     -0.173000
     18 C13        -0.5620    0.7590    1.2310 c2        1 4XB     -0.157000
     19 C14         0.4660    0.5700   -2.3990 c1        1 4XB      0.383000
     20 C15         5.7980   -4.2040   -4.3500 c3        1 4XB     -0.075000
     21 C19         1.9010    0.0180   -4.1530 c3        1 4XB      0.025000
     22 C20         3.2970   -0.4140   -4.4200 c2        1 4XB     -0.055000
     23 C21         4.2940    0.5370   -4.5630 c2        1 4XB     -0.137000
     24 C22         5.5560    0.1570   -4.9420 c1        1 4XB     -0.099000
     25 C23         5.8400   -1.1950   -5.1840 c1        1 4XB     -0.200000
     26 C24         4.8540   -2.1410   -5.0430 c1        1 4XB      0.077000
     27 C25         3.5790   -1.7590   -4.6610 c1        1 4XB     -0.154000
     28 OAQ         5.1190   -3.4810   -5.3750 os        1 4XB     -0.212000
     29 OAR         1.7340    0.2200   -2.7660 os        1 4XB     -0.253000
     30 H          -2.2890    1.5410   -1.4980 hc        1 4XB      0.107333
     31 HA         -2.4190   -0.0500   -1.4620 hc        1 4XB      0.107333
     32 HB         -3.1020    0.8780   -0.3090 hc        1 4XB      0.107333
     33 HN         -6.3800    0.8110    5.6940 hn        1 4XB      0.163000
     34 H4          2.4870    0.5890    2.3730 ha        1 4XB      0.147500
     35 H5          1.3350    0.7130    4.4170 ha        1 4XB      0.147500
     36 H6         -0.9720    0.8650    4.4870 ha        1 4XB      0.141000
     37 H8         -2.7310    0.3650    4.2210 h1        1 4XB      0.092000
     38 H9         -4.9490    0.0020    2.5230 hc        1 4XB      0.103500
     39 H9A        -4.0070   -1.1580    3.1160 hc        1 4XB      0.103500
     40 H10        -4.8740   -0.8160    5.2310 h1        1 4XB      0.070500
     41 H10A       -6.1740   -1.0140    4.2180 h1        1 4XB      0.070500
     42 H11        -5.3030    2.8200    5.3610 h1        1 4XB      0.070500
     43 H11A       -4.3120    1.6310    5.9980 h1        1 4XB      0.070500
     44 H12        -4.4230    2.4820    3.2310 hc        1 4XB      0.103500
     45 H12A       -3.2090    2.6110    4.2230 hc        1 4XB      0.103500
     46 H15         6.6960   -3.7870   -4.1840 h1        1 4XB      0.083000
     47 H15A        5.9200   -5.1540   -4.6380 h1        1 4XB      0.083000
     48 H15B        5.2700   -4.1780   -3.5300 h1        1 4XB      0.083000
     49 H19         1.7370    0.7980   -4.5950 h1        1 4XB      0.105500
     50 H19A        1.3160   -0.6290   -4.4430 h1        1 4XB      0.105500
     51 H21         4.0870    1.5330   -4.3840 ha        1 4XB      0.155000
     52 H22         6.2470    0.8170   -5.0420 ha        1 4XB      0.133000
     53 H23         6.7510   -1.4690   -5.4570 ha        1 4XB      0.136000
     54 H25         2.9040   -2.4070   -4.5640 ha        1 4XB      0.150000
@<TRIPOS>BOND
     1    1    4 1   
     2    1   30 1   
     3    1   31 1   
     4    1   32 1   
     5    2   15 1   
     6    2   16 1   
     7    2   33 1   
     8    3    6 1   
     9    3    8 1   
    10    4    6 1   
    11    4   18 1   
    12    5   12 1   
    13    5   13 1   
    14    7   19 1   
    15    8   18 1   
    16    9   10 1   
    17    9   34 1   
    18   10   35 1   
    19   11   12 1   
    20   11   36 1   
    21   12   18 1   
    22   13   14 1   
    23   13   17 1   
    24   13   37 1   
    25   14   15 1   
    26   14   38 1   
    27   14   39 1   
    28   15   40 1   
    29   15   41 1   
    30   16   17 1   
    31   16   42 1   
    32   16   43 1   
    33   17   44 1   
    34   17   45 1   
    35   19   29 1   
    36   20   28 1   
    37   20   46 1   
    38   20   47 1   
    39   20   48 1   
    40   21   22 1   
    41   21   29 1   
    42   21   49 1   
    43   21   50 1   
    44   22   23 1   
    45   22   27 1   
    46   23   24 1   
    47   23   51 1   
    48   24   52 1   
    49   25   26 1   
    50   25   53 1   
    51   26   28 1   
    52   27   54 1   
@<TRIPOS>SUBSTRUCTURE
     1 4XB         1 TEMP              0 ****  ****    0 ROOT
