@<TRIPOS>MOLECULE
4XB
   54    57     1     0     0
SMALL
bcc


@<TRIPOS>ATOM
      1 C          -0.2120    0.4280    0.1060 c3        1 4XB     -0.057900
      2 N          -3.6360    0.4390    5.8890 n7        1 4XB     -0.822200
      3 O           3.4470   -0.0600    0.7110 os        1 4XB     -0.165200
      4 C1          1.1430    0.1910    0.6040 cc        1 4XB      0.026600
      5 O1         -0.5510   -0.1040    3.1160 os        1 4XB     -0.321900
      6 C2          2.3250    0.1940   -0.1150 cd        1 4XB     -0.068100
      7 O2          1.7560    0.6030   -2.4190 o         1 4XB     -0.542000
      8 C3          2.9310   -0.2300    1.9910 ca        1 4XB      0.118100
      9 C4          3.6680   -0.5030    3.1410 ca        1 4XB     -0.169000
     10 C5          2.9420   -0.6370    4.3190 ca        1 4XB     -0.058000
     11 C6          1.5460   -0.5090    4.3570 ca        1 4XB     -0.244000
     12 C7          0.8140   -0.2380    3.1950 ca        1 4XB      0.204100
     13 C8         -1.3140   -0.3140    4.3190 c3        1 4XB      0.141100
     14 C9         -2.7280   -0.6300    3.8370 c3        1 4XB     -0.094900
     15 C10        -3.6750   -0.7280    5.0320 c3        1 4XB      0.165800
     16 C11        -2.3040    0.8040    6.3270 c3        1 4XB      0.165800
     17 C12        -1.3120    0.9460    5.1740 c3        1 4XB     -0.094900
     18 C13         1.5100   -0.0880    1.9810 ca        1 4XB     -0.168800
     19 C14         2.5870    0.3980   -1.5280 c         1 4XB      0.681300
     20 C15         9.4500    1.4320   -6.2560 c3        1 4XB      0.114700
     21 C19         4.2130    0.5390   -3.2560 c3        1 4XB      0.182700
     22 C20         5.6950    0.4920   -3.4250 ca        1 4XB     -0.062300
     23 C21         6.5360   -0.0560   -2.4500 ca        1 4XB     -0.137000
     24 C22         7.9110   -0.1000   -2.6640 ca        1 4XB     -0.099000
     25 C23         8.4670    0.3930   -3.8440 ca        1 4XB     -0.200000
     26 C24         7.6200    0.9400   -4.8150 ca        1 4XB      0.122100
     27 C25         6.2310    0.9960   -4.6120 ca        1 4XB     -0.154000
     28 OAQ         8.0470    1.4610   -6.0230 os        1 4XB     -0.328900
     29 OAR         3.9120    0.3450   -1.8600 os        1 4XB     -0.414900
     30 H          -0.9330   -0.2700    0.6020 hc        1 4XB      0.067700
     31 HA         -0.5260    1.4760    0.3490 hc        1 4XB      0.067700
     32 HB         -0.2590    0.2920   -1.0050 hc        1 4XB      0.067700
     33 HN         -4.2340    0.3040    6.6830 hn        1 4XB      0.367800
     34 H4          4.7600   -0.6040    3.1090 ha        1 4XB      0.157000
     35 H5          3.4770   -0.8520    5.2580 ha        1 4XB      0.138000
     36 H6          1.0360   -0.6210    5.3250 ha        1 4XB      0.141000
     37 H8         -0.9010   -1.1900    4.8890 h1        1 4XB      0.051700
     38 H9         -2.7330   -1.6010    3.2810 hc        1 4XB      0.064200
     39 H9A        -3.0670    0.1730    3.1330 hc        1 4XB      0.064200
     40 H10        -3.4290   -1.6770    5.5960 h1        1 4XB      0.031200
     41 H10A       -4.7300   -0.8260    4.6470 h1        1 4XB      0.031200
     42 H11        -1.8800    0.0570    7.0640 h1        1 4XB      0.031200
     43 H11A       -2.3860    1.7940    6.8580 h1        1 4XB      0.031200
     44 H12        -0.2900    1.1310    5.5910 hc        1 4XB      0.064200
     45 H12A       -1.5850    1.8240    4.5340 hc        1 4XB      0.064200
     46 H15         9.5550    1.8990   -7.2680 h1        1 4XB      0.043700
     47 H15A        9.8280    0.3810   -6.2670 h1        1 4XB      0.043700
     48 H15B        9.9910    2.0340   -5.4860 h1        1 4XB      0.043700
     49 H19         3.7180   -0.2810   -3.8430 h1        1 4XB      0.066200
     50 H19A        3.7940    1.5300   -3.5800 h1        1 4XB      0.066200
     51 H21         6.1040   -0.4430   -1.5140 ha        1 4XB      0.155000
     52 H22         8.5700   -0.5290   -1.8930 ha        1 4XB      0.133000
     53 H23         9.5540    0.3490   -3.9970 ha        1 4XB      0.136000
     54 H25         5.5870    1.4350   -5.3880 ha        1 4XB      0.150000
@<TRIPOS>BOND
     1    1    4 1   
     2    1   30 1   
     3    1   31 1   
     4    1   32 1   
     5    2   15 1   
     6    2   16 1   
     7    2   33 1   
     8    3    6 1   
     9    3    8 1   
    10    4    6 2   
    11    4   18 1   
    12    5   12 1   
    13    5   13 1   
    14    6   19 1   
    15    7   19 2   
    16    8    9 ar  
    17    8   18 ar  
    18    9   10 ar  
    19    9   34 1   
    20   10   11 ar  
    21   10   35 1   
    22   11   12 ar  
    23   11   36 1   
    24   12   18 ar  
    25   13   14 1   
    26   13   17 1   
    27   13   37 1   
    28   14   15 1   
    29   14   38 1   
    30   14   39 1   
    31   15   40 1   
    32   15   41 1   
    33   16   17 1   
    34   16   42 1   
    35   16   43 1   
    36   17   44 1   
    37   17   45 1   
    38   19   29 1   
    39   20   28 1   
    40   20   46 1   
    41   20   47 1   
    42   20   48 1   
    43   21   22 1   
    44   21   29 1   
    45   21   49 1   
    46   21   50 1   
    47   22   23 ar  
    48   22   27 ar  
    49   23   24 ar  
    50   23   51 1   
    51   24   25 ar  
    52   24   52 1   
    53   25   26 ar  
    54   25   53 1   
    55   26   27 ar  
    56   26   28 1   
    57   27   54 1   
@<TRIPOS>SUBSTRUCTURE
     1 4XB         1 TEMP              0 ****  ****    0 ROOT
