@<TRIPOS>MOLECULE
4XB
   54    57     1     0     0
SMALL
bcc


@<TRIPOS>ATOM
      1 C          -1.7690    2.1330    0.7060 c3        1 4XB     -0.057900
      2 N          -8.3260    0.5100    0.6850 n3        1 4XB     -0.798200
      3 O           0.3330   -0.7190   -0.4930 os        1 4XB     -0.165200
      4 C1         -1.1890    0.8940    0.1870 cc        1 4XB      0.025600
      5 O1         -4.1800    0.3810   -0.0590 os        1 4XB     -0.324900
      6 C2          0.1500    0.5670    0.0700 cd        1 4XB     -0.067100
      7 O2          1.4130    2.4250    0.9350 o         1 4XB     -0.542000
      8 C3         -0.9480   -1.2050   -0.7260 ca        1 4XB      0.117100
      9 C4         -1.2660   -2.4460   -1.2750 ca        1 4XB     -0.168000
     10 C5         -2.6210   -2.7280   -1.4130 ca        1 4XB     -0.058000
     11 C6         -3.6180   -1.8220   -1.0230 ca        1 4XB     -0.243000
     12 C7         -3.2880   -0.5770   -0.4770 ca        1 4XB      0.203100
     13 C8         -5.5810    0.1340   -0.2840 c3        1 4XB      0.143100
     14 C9         -6.2290    1.5180   -0.2780 c3        1 4XB     -0.132400
     15 C10        -7.7510    1.3790   -0.3210 c3        1 4XB      0.152800
     16 C11        -7.6730   -0.7830    0.7430 c3        1 4XB      0.152800
     17 C12        -6.1460   -0.7400    0.8290 c3        1 4XB     -0.132400
     18 C13        -1.9280   -0.2480   -0.3220 ca        1 4XB     -0.168800
     19 C14         1.3500    1.3000    0.4290 c         1 4XB      0.681300
     20 C15         9.5570   -0.4500    0.7690 c3        1 4XB      0.114700
     21 C19         3.7260    1.3260    0.5050 c3        1 4XB      0.182700
     22 C20         4.8800    0.4370    0.1830 ca        1 4XB     -0.062300
     23 C21         4.7540   -0.6630   -0.6720 ca        1 4XB     -0.137000
     24 C22         5.8650   -1.4500   -0.9630 ca        1 4XB     -0.099000
     25 C23         7.1130   -1.1540   -0.4130 ca        1 4XB     -0.199000
     26 C24         7.2330   -0.0520    0.4420 ca        1 4XB      0.122100
     27 C25         6.1190    0.7490    0.7480 ca        1 4XB     -0.154000
     28 OAQ         8.4110    0.3450    1.0480 os        1 4XB     -0.328900
     29 OAR         2.5110    0.6300    0.1610 os        1 4XB     -0.413900
     30 H          -2.0850    2.7880   -0.1470 hc        1 4XB      0.067033
     31 HA         -2.6760    1.9060    1.3200 hc        1 4XB      0.067033
     32 HB         -1.0230    2.6930    1.3260 hc        1 4XB      0.067033
     33 HN         -8.2830    0.9540    1.5850 hn        1 4XB      0.354800
     34 H4         -0.4850   -3.1540   -1.5760 ha        1 4XB      0.157000
     35 H5         -2.9270   -3.6960   -1.8400 ha        1 4XB      0.139000
     36 H6         -4.6700   -2.1150   -1.1510 ha        1 4XB      0.142000
     37 H8         -5.7340   -0.3490   -1.2880 h1        1 4XB      0.056700
     38 H9         -5.9080    2.0730    0.6400 hc        1 4XB      0.060700
     39 H9A        -5.8780    2.1000   -1.1670 hc        1 4XB      0.060700
     40 H10        -8.0480    0.9710   -1.3290 h1        1 4XB      0.056450
     41 H10A       -8.2120    2.4010   -0.2140 h1        1 4XB      0.056450
     42 H11        -8.0730   -1.3440    1.6320 h1        1 4XB      0.056450
     43 H11A       -7.9670   -1.3500   -0.1850 h1        1 4XB      0.056450
     44 H12        -5.7380   -1.7790    0.7470 hc        1 4XB      0.060700
     45 H12A       -5.8210   -0.3290    1.8200 hc        1 4XB      0.060700
     46 H15         9.4040   -1.5000    1.1180 h1        1 4XB      0.043700
     47 H15A        9.7940   -0.4310   -0.3230 h1        1 4XB      0.043700
     48 H15B       10.3680    0.0480    1.3580 h1        1 4XB      0.043700
     49 H19         3.6970    1.5820    1.5980 h1        1 4XB      0.066200
     50 H19A        3.7730    2.2750   -0.0950 h1        1 4XB      0.066200
     51 H21         3.7710   -0.9050   -1.1050 ha        1 4XB      0.155000
     52 H22         5.7610   -2.3160   -1.6330 ha        1 4XB      0.133000
     53 H23         7.9800   -1.7830   -0.6540 ha        1 4XB      0.136000
     54 H25         6.2380    1.6060    1.4260 ha        1 4XB      0.150000
@<TRIPOS>BOND
     1    1    4 1   
     2    1   30 1   
     3    1   31 1   
     4    1   32 1   
     5    2   15 1   
     6    2   16 1   
     7    2   33 1   
     8    3    6 1   
     9    3    8 1   
    10    4    6 2   
    11    4   18 1   
    12    5   12 1   
    13    5   13 1   
    14    6   19 1   
    15    7   19 2   
    16    8    9 ar  
    17    8   18 ar  
    18    9   10 ar  
    19    9   34 1   
    20   10   11 ar  
    21   10   35 1   
    22   11   12 ar  
    23   11   36 1   
    24   12   18 ar  
    25   13   14 1   
    26   13   17 1   
    27   13   37 1   
    28   14   15 1   
    29   14   38 1   
    30   14   39 1   
    31   15   40 1   
    32   15   41 1   
    33   16   17 1   
    34   16   42 1   
    35   16   43 1   
    36   17   44 1   
    37   17   45 1   
    38   19   29 1   
    39   20   28 1   
    40   20   46 1   
    41   20   47 1   
    42   20   48 1   
    43   21   22 1   
    44   21   29 1   
    45   21   49 1   
    46   21   50 1   
    47   22   23 ar  
    48   22   27 ar  
    49   23   24 ar  
    50   23   51 1   
    51   24   25 ar  
    52   24   52 1   
    53   25   26 ar  
    54   25   53 1   
    55   26   27 ar  
    56   26   28 1   
    57   27   54 1   
@<TRIPOS>SUBSTRUCTURE
     1 4XB         1 TEMP              0 ****  ****    0 ROOT
