@<TRIPOS>MOLECULE
4XE
   37    38     1     0     0
SMALL
bcc


@<TRIPOS>ATOM
      1 C2         -0.0280    0.3780   -0.0070 c         1 4XE      0.657100
      2 C3          1.5130    0.4120    0.0160 c3        1 4XE      0.115800
      3 N4          2.0720    0.3210    1.3530 n3        1 4XE     -0.745600
      4 C5          1.8260    1.4640    2.2110 c3        1 4XE      0.150300
      5 C6          2.2020    1.1500    3.6700 c3        1 4XE      0.103800
      6 C8          3.8890   -0.4480    2.8310 c3        1 4XE      0.103800
      7 C11        -2.1050   -0.0550   -1.2340 c3        1 4XE      0.079500
      8 C12        -2.7080    0.9950   -2.1670 c3        1 4XE     -0.101900
      9 C13        -2.0640    0.9440   -3.5360 c3        1 4XE     -0.082400
     10 C14        -0.5570    1.0390   -3.4310 c3        1 4XE     -0.101900
     11 C15        -0.0030   -0.0160   -2.4690 c3        1 4XE      0.079500
     12 O1         -0.6930    0.6570    1.0140 o         1 4XE     -0.617100
     13 N7          3.6150    0.6670    3.7890 ny        1 4XE     -0.763000
     14 C9          3.4610   -0.0960    1.3910 c3        1 4XE      0.150300
     15 N10        -0.6510   -0.0260   -1.1730 n         1 4XE     -0.445800
     16 H16         1.8330    1.3610   -0.5070 h1        1 4XE      0.069700
     17 H17         1.9060   -0.4730   -0.5640 h1        1 4XE      0.069700
     18 H19         2.3850    2.3850    1.8730 h1        1 4XE      0.084450
     19 H18         0.7160    1.6950    2.2000 h1        1 4XE      0.084450
     20 H20         2.0900    2.0800    4.2960 hx        1 4XE      0.114700
     21 H21         1.5250    0.3420    4.0740 hx        1 4XE      0.114700
     22 H25         4.9930   -0.6690    2.8480 hx        1 4XE      0.114700
     23 H24         3.3190   -1.3540    3.1870 hx        1 4XE      0.114700
     24 H28        -2.3920   -1.0820   -1.6040 h1        1 4XE      0.061700
     25 H31        -3.8070    0.7960   -2.2520 hc        1 4XE      0.056200
     26 H30        -2.5810    2.0170   -1.7240 hc        1 4XE      0.056200
     27 H32        -2.3440   -0.0150   -4.0460 hc        1 4XE      0.054700
     28 H33        -2.4510    1.7860   -4.1680 hc        1 4XE      0.054700
     29 H35        -0.2650    2.0640   -3.0840 hc        1 4XE      0.056200
     30 H34        -0.0910    0.8730   -4.4360 hc        1 4XE      0.056200
     31 H37         1.1040    0.1430   -2.3660 h1        1 4XE      0.061700
     32 H36        -0.1640   -1.0380   -2.9240 h1        1 4XE      0.061700
     33 H23         4.2500    1.4460    3.5840 hn        1 4XE      0.450300
     34 H22         3.7900    0.3460    4.7470 hn        1 4XE      0.450300
     35 H26         3.5830   -1.0340    0.7760 h1        1 4XE      0.084450
     36 H27         4.1640    0.6870    0.9780 h1        1 4XE      0.084450
     37 H29        -2.5280    0.0800   -0.1980 h1        1 4XE      0.061700
@<TRIPOS>BOND
     1    1    2 1   
     2    1   12 2   
     3    1   15 1   
     4    2    3 1   
     5    2   16 1   
     6    2   17 1   
     7    3    4 1   
     8    3   14 1   
     9    4    5 1   
    10    4   18 1   
    11    4   19 1   
    12    5   13 1   
    13    5   20 1   
    14    5   21 1   
    15    6   13 1   
    16    6   14 1   
    17    6   22 1   
    18    6   23 1   
    19    7    8 1   
    20    7   15 1   
    21    7   24 1   
    22    7   37 1   
    23    8    9 1   
    24    8   25 1   
    25    8   26 1   
    26    9   10 1   
    27    9   27 1   
    28    9   28 1   
    29   10   11 1   
    30   10   29 1   
    31   10   30 1   
    32   11   15 1   
    33   11   31 1   
    34   11   32 1   
    35   13   33 1   
    36   13   34 1   
    37   14   35 1   
    38   14   36 1   
@<TRIPOS>SUBSTRUCTURE
     1 4XE         1 TEMP              0 ****  ****    0 ROOT
