@<TRIPOS>MOLECULE
4XE
   37    38     1     0     0
SMALL
bcc


@<TRIPOS>ATOM
      1 C2         -0.0290    0.3800   -0.0030 c         1 4XE      0.657100
      2 C3          1.5130    0.4090    0.0150 c3        1 4XE      0.115800
      3 N4          2.0750    0.3260    1.3490 n3        1 4XE     -0.745600
      4 C5          1.8350    1.4760    2.2010 c3        1 4XE      0.150300
      5 C6          2.2160    1.1710    3.6610 c3        1 4XE      0.103800
      6 C8          3.8960   -0.4380    2.8270 c3        1 4XE      0.103800
      7 C11        -2.1110   -0.0560   -1.2200 c3        1 4XE      0.079500
      8 C12        -2.7140    0.9900   -2.1580 c3        1 4XE     -0.101900
      9 C13        -2.0750    0.9280   -3.5290 c3        1 4XE     -0.082400
     10 C14        -0.5670    1.0180   -3.4290 c3        1 4XE     -0.101900
     11 C15        -0.0140   -0.0320   -2.4620 c3        1 4XE      0.079500
     12 O1         -0.6890    0.6680    1.0180 o         1 4XE     -0.617100
     13 N7          3.6280    0.6850    3.7780 n4        1 4XE     -0.763000
     14 C9          3.4630   -0.0950    1.3860 c3        1 4XE      0.150300
     15 N10        -0.6570   -0.0310   -1.1640 n         1 4XE     -0.445800
     16 H16         1.9000   -0.4810   -0.5600 h1        1 4XE      0.069700
     17 H17         1.8330    1.3530   -0.5160 h1        1 4XE      0.069700
     18 H19         0.7270    1.7100    2.1920 h1        1 4XE      0.084450
     19 H18         2.3970    2.3930    1.8550 h1        1 4XE      0.084450
     20 H20         2.1090    2.1050    4.2800 hx        1 4XE      0.114700
     21 H21         1.5380    0.3680    4.0730 hx        1 4XE      0.114700
     22 H25         3.3250   -1.3400    3.1910 hx        1 4XE      0.114700
     23 H24         4.9990   -0.6630    2.8410 hx        1 4XE      0.114700
     24 H28        -2.5300    0.0870   -0.1840 h1        1 4XE      0.061700
     25 H31        -3.8140    0.7940   -2.2380 hc        1 4XE      0.056200
     26 H30        -2.5830    2.0150   -1.7220 hc        1 4XE      0.056200
     27 H32        -2.3600   -0.0340   -4.0320 hc        1 4XE      0.054700
     28 H33        -2.4610    1.7670   -4.1650 hc        1 4XE      0.054700
     29 H35        -0.2710    2.0450   -3.0910 hc        1 4XE      0.056200
     30 H34        -0.1050    0.8450   -4.4350 hc        1 4XE      0.056200
     31 H37         1.0950    0.1250   -2.3640 h1        1 4XE      0.061700
     32 H36        -0.1790   -1.0560   -2.9100 h1        1 4XE      0.061700
     33 H23         4.2650    1.4600    3.5650 hn        1 4XE      0.450300
     34 H22         3.8060    0.3700    4.7370 hn        1 4XE      0.450300
     35 H26         3.5810   -1.0380    0.7780 h1        1 4XE      0.084450
     36 H27         4.1670    0.6830    0.9650 h1        1 4XE      0.084450
     37 H29        -2.4020   -1.0840   -1.5820 h1        1 4XE      0.061700
@<TRIPOS>BOND
     1    1    2 1   
     2    1   12 2   
     3    1   15 1   
     4    2    3 1   
     5    2   16 1   
     6    2   17 1   
     7    3    4 1   
     8    3   14 1   
     9    4    5 1   
    10    4   18 1   
    11    4   19 1   
    12    5   13 1   
    13    5   20 1   
    14    5   21 1   
    15    6   13 1   
    16    6   14 1   
    17    6   22 1   
    18    6   23 1   
    19    7    8 1   
    20    7   15 1   
    21    7   24 1   
    22    7   37 1   
    23    8    9 1   
    24    8   25 1   
    25    8   26 1   
    26    9   10 1   
    27    9   27 1   
    28    9   28 1   
    29   10   11 1   
    30   10   29 1   
    31   10   30 1   
    32   11   15 1   
    33   11   31 1   
    34   11   32 1   
    35   13   33 1   
    36   13   34 1   
    37   14   35 1   
    38   14   36 1   
@<TRIPOS>SUBSTRUCTURE
     1 4XE         1 TEMP              0 ****  ****    0 ROOT
