@<TRIPOS>MOLECULE
4XF
   26    26     1     0     0
SMALL
bcc


@<TRIPOS>ATOM
      1 C1          0.0880    0.3530   -0.3200 c3        1 4XF     -0.134100
      2 C2          1.5070   -0.0840   -0.0000 c3        1 4XF      0.026500
      3 N4          1.8650   -1.3670   -0.6980 nz        1 4XF     -0.836600
      4 C8          1.6510   -0.2980    1.5430 c         1 4XF      0.665100
      5 O9          1.6380   -1.4680    1.9660 o         1 4XF     -0.564100
      6 C11         2.1030    0.8340    3.6790 ca        1 4XF      0.528200
      7 C12         1.3990    1.6730    4.5710 ca        1 4XF     -0.290300
      8 C13         1.8030    1.6730    5.9110 ca        1 4XF     -0.036000
      9 C14         2.8530    0.8730    6.3220 ca        1 4XF     -0.291300
     10 C15         3.5270    0.0550    5.3520 ca        1 4XF      0.685200
     11 N10         1.7140    0.8370    2.2990 ns        1 4XF     -0.521400
     12 N16         4.6400   -0.6820    5.7350 nv        1 4XF     -0.941500
     13 N17         3.1450    0.0360    4.0360 nb        1 4XF     -0.752000
     14 H19        -0.6630   -0.3800    0.0660 hc        1 4XF      0.087367
     15 H18        -0.1040    1.3400    0.1750 hc        1 4XF      0.087367
     16 H20        -0.0610    0.4870   -1.4200 hc        1 4XF      0.087367
     17 H3          2.2450    0.6950   -0.3570 hx        1 4XF      0.118700
     18 H7          1.5180   -2.1600   -0.1300 hn        1 4XF      0.470800
     19 H5          2.8820   -1.4500   -0.7760 hn        1 4XF      0.470800
     20 H22         0.5610    2.2990    4.2400 ha        1 4XF      0.153000
     21 H23         1.2740    2.3110    6.6370 ha        1 4XF      0.158000
     22 H24         3.1770    0.8660    7.3730 ha        1 4XF      0.161000
     23 H21         1.6850    1.7320    1.8650 hn        1 4XF      0.337500
     24 H25         4.9910   -1.3700    5.1110 hn        1 4XF      0.430800
     25 H26         4.7210   -0.8780    6.7040 hn        1 4XF      0.430800
     26 H2          1.4390   -1.3950   -1.6270 hn        1 4XF      0.470800
@<TRIPOS>BOND
     1    1    2 1   
     2    1   14 1   
     3    1   15 1   
     4    1   16 1   
     5    2    3 1   
     6    2    4 1   
     7    2   17 1   
     8    3   18 1   
     9    3   19 1   
    10    3   26 1   
    11    4    5 2   
    12    4   11 1   
    13    6    7 ar  
    14    6   11 1   
    15    6   13 ar  
    16    7    8 ar  
    17    7   20 1   
    18    8    9 ar  
    19    8   21 1   
    20    9   10 ar  
    21    9   22 1   
    22   10   12 1   
    23   10   13 ar  
    24   11   23 1   
    25   12   24 1   
    26   12   25 1   
@<TRIPOS>SUBSTRUCTURE
     1 4XF         1 TEMP              0 ****  ****    0 ROOT
