@<TRIPOS>MOLECULE
4XF
   26    26     1     0     0
SMALL
bcc


@<TRIPOS>ATOM
      1 C1          0.0200   -0.6020    0.2140 c3        1 4XF     -0.138100
      2 C2          1.3700    0.0480   -0.0340 c3        1 4XF      0.026500
      3 N4          2.1930   -0.7520   -1.0070 n4        1 4XF     -0.835600
      4 C8          2.1760    0.2130    1.2960 c         1 4XF      0.663100
      5 O9          3.3380   -0.2300    1.3280 o         1 4XF     -0.570100
      6 C11         2.0570    0.9370    3.6370 ca        1 4XF      0.520200
      7 C12         2.1270    2.1720    4.3150 ca        1 4XF     -0.281300
      8 C13         2.5920    2.1570    5.6360 ca        1 4XF     -0.039000
      9 C14         2.9650    0.9650    6.2300 ca        1 4XF     -0.287300
     10 C15         2.8560   -0.2530    5.4760 ca        1 4XF      0.683200
     11 N10         1.5670    0.9320    2.2870 n         1 4XF     -0.513400
     12 N16         3.1390   -1.4650    6.0920 nh        1 4XF     -0.941500
     13 N17         2.4090   -0.2600    4.1810 nb        1 4XF     -0.753000
     14 H19         0.1200   -1.5180    0.8480 hc        1 4XF      0.086700
     15 H18        -0.4880   -0.8740   -0.7440 hc        1 4XF      0.086700
     16 H20        -0.6450    0.1230    0.7480 hc        1 4XF      0.086700
     17 H3          1.2350    1.0760   -0.4910 hx        1 4XF      0.124700
     18 H7          1.9390   -0.5130   -1.9670 hn        1 4XF      0.471133
     19 H5          3.1950   -0.5530   -0.8400 hn        1 4XF      0.471133
     20 H22         1.8370    3.1150    3.8340 ha        1 4XF      0.155000
     21 H23         2.6640    3.1030    6.1960 ha        1 4XF      0.158000
     22 H24         3.3320    0.9440    7.2660 ha        1 4XF      0.161000
     23 H21         0.6180    1.2170    2.1830 hn        1 4XF      0.334500
     24 H25         3.7190   -1.4200    6.8960 hn        1 4XF      0.430300
     25 H26         3.2280   -2.2760    5.5250 hn        1 4XF      0.430300
     26 H2          2.0380   -1.7530   -0.8490 hn        1 4XF      0.471133
@<TRIPOS>BOND
     1    1    2 1   
     2    1   14 1   
     3    1   15 1   
     4    1   16 1   
     5    2    3 1   
     6    2    4 1   
     7    2   17 1   
     8    3   18 1   
     9    3   19 1   
    10    3   26 1   
    11    4    5 2   
    12    4   11 1   
    13    6    7 ar  
    14    6   11 1   
    15    6   13 ar  
    16    7    8 ar  
    17    7   20 1   
    18    8    9 ar  
    19    8   21 1   
    20    9   10 ar  
    21    9   22 1   
    22   10   12 1   
    23   10   13 ar  
    24   11   23 1   
    25   12   24 1   
    26   12   25 1   
@<TRIPOS>SUBSTRUCTURE
     1 4XF         1 TEMP              0 ****  ****    0 ROOT
