@<TRIPOS>MOLECULE
4XO
   45    48     1     0     0
SMALL
bcc


@<TRIPOS>ATOM
      1 C10         0.2910   -0.2580   -0.0750 cc        1 4XO     -0.162000
      2 C11         1.9140    0.0970    1.5240 cd        1 4XO     -0.150100
      3 C14         1.6910   -0.0650    0.1380 cc        1 4XO     -0.015700
      4 C17        -2.3470    4.7690    9.8910 ca        1 4XO     -0.145500
      5 C18        -2.9240    5.7120   10.7350 ca        1 4XO     -0.076000
      6 N2         -2.4880    3.4900    7.2080 nb        1 4XO     -0.789000
      7 C9         -2.4470    3.3550    5.8610 ca        1 4XO      0.701900
      8 N01        -2.0430    2.2820    5.1430 nb        1 4XO     -0.778000
      9 C04        -1.6390    1.1960    5.9200 ca        1 4XO      0.906900
     10 N3         -1.6070    1.1980    7.3060 nb        1 4XO     -0.834000
     11 C12        -2.0410    2.3720    7.9080 ca        1 4XO      0.918900
     12 N4         -1.9620    2.4030    9.3070 nu        1 4XO     -0.719300
     13 C13        -3.7310    5.3090   11.8060 ca        1 4XO     -0.030000
     14 C02        -3.9600    3.9440   12.0280 ca        1 4XO     -0.076000
     15 C15        -3.3970    2.9950   11.1850 ca        1 4XO     -0.145500
     16 C01        -2.5820    3.3940   10.0980 ca        1 4XO      0.162600
     17 N5         -4.7930    7.0710   13.3700 n1        1 4XO     -0.360800
     18 N19         3.5080   -0.0180   -1.6760 n1        1 4XO     -0.374800
     19 C16         2.6860   -0.0380   -0.8520 cg        1 4XO      0.228500
     20 N0W         0.6880    0.0090    2.1690 na        1 4XO      0.050700
     21 C0X         0.3680    0.1090    3.5160 cc        1 4XO     -0.039600
     22 C0V        -0.3270   -0.2120    1.1910 cd        1 4XO     -0.055300
     23 C0Y        -0.9640   -0.0420    3.9130 cd        1 4XO      0.095600
     24 C0Z        -2.0090   -0.2740    2.9360 cc        1 4XO     -0.039300
     25 C0C        -1.6790   -0.3480    1.6090 cd        1 4XO     -0.106000
     26 C7          1.4450    0.3500    4.5210 c3        1 4XO     -0.064800
     27 C8         -3.4150   -0.4360    3.3720 c3        1 4XO     -0.049800
     28 H1         -0.2080   -0.4110   -1.0270 ha        1 4XO      0.170000
     29 H2          2.8520    0.2620    2.0550 h4        1 4XO      0.183000
     30 H3         -1.7080    5.1140    9.0630 ha        1 4XO      0.152000
     31 H4         -2.7380    6.7830   10.5590 ha        1 4XO      0.149000
     32 H5         -0.7970   -0.6690    5.8540 hn        1 4XO      0.442800
     33 H6         -2.7880    4.2360    5.2730 h5        1 4XO      0.062100
     34 H7         -1.8420    1.5160    9.7540 hn        1 4XO      0.451800
     35 H8         -4.5920    3.6210   12.8690 ha        1 4XO      0.149000
     36 H9         -3.5920    1.9280   11.3750 ha        1 4XO      0.152000
     37 H10        -2.4370   -0.5180    0.8300 ha        1 4XO      0.157000
     38 H11         2.4270    0.6110    4.0570 hc        1 4XO      0.062367
     39 H12         1.1520    1.2000    5.1900 hc        1 4XO      0.062367
     40 H13         1.5880   -0.5680    5.1460 hc        1 4XO      0.062367
     41 H14        -3.7790    0.4990    3.8660 hc        1 4XO      0.053033
     42 H15        -4.0810   -0.6550    2.5000 hc        1 4XO      0.053033
     43 H16        -3.5030   -1.2780    4.1030 hc        1 4XO      0.053033
     44 N1         -1.3070   -0.0170    5.2900 nu        1 4XO     -0.703300
     45 C19        -4.3150    6.2780   12.6660 cg        1 4XO      0.233800
@<TRIPOS>BOND
     1    1    3 1   
     2    1   22 2   
     3    1   28 1   
     4    2    3 2   
     5    2   20 1   
     6    2   29 1   
     7    3   19 1   
     8    4    5 ar  
     9    4   16 ar  
    10    4   30 1   
    11    5   13 ar  
    12    5   31 1   
    13    6    7 ar  
    14    6   11 ar  
    15    7    8 ar  
    16    7   33 1   
    17    8    9 ar  
    18    9   10 ar  
    19    9   44 1   
    20   10   11 ar  
    21   11   12 1   
    22   12   16 1   
    23   12   34 1   
    24   13   14 ar  
    25   13   45 1   
    26   14   15 ar  
    27   14   35 1   
    28   15   16 ar  
    29   15   36 1   
    30   17   45 3   
    31   18   19 3   
    32   20   21 1   
    33   20   22 1   
    34   21   23 2   
    35   21   26 1   
    36   22   25 1   
    37   23   24 1   
    38   23   44 1   
    39   24   25 2   
    40   24   27 1   
    41   25   37 1   
    42   26   38 1   
    43   26   39 1   
    44   26   40 1   
    45   27   41 1   
    46   27   42 1   
    47   27   43 1   
    48   32   44 1   
@<TRIPOS>SUBSTRUCTURE
     1 4XO         1 TEMP              0 ****  ****    0 ROOT
