@<TRIPOS>MOLECULE
4XS
   20    19     1     0     0
SMALL
bcc


@<TRIPOS>ATOM
      1 C2          0.2580   -0.6050   -0.3400 ca        1 4XS      0.519300
      2 C3          0.6790   -0.1230    1.8730 ca        1 4XS      0.636900
      3 N4          1.8310    0.5530    1.6250 nb        1 4XS     -0.688000
      4 C7         -0.0530   -0.2520    4.9900 c1        1 4XS      0.150200
      5 C           2.1970    0.6420    0.3250 ca        1 4XS      0.519300
      6 C1          1.4400    0.0730   -0.7360 ca        1 4XS     -0.290900
      7 N          -0.1300   -0.7090    0.9550 nb        1 4XS     -0.688000
      8 Cl5        -0.7430   -1.3350   -1.5210 cl        1 4XS     -0.139000
      9 C6         -0.5660    0.3520    6.1880 ce        1 4XS     -0.263100
     10 C8          0.1260   -0.8070    6.3020 ce        1 4XS     -0.263100
     11 H1         -2.0100   -1.5140    4.0160 ha        1 4XS      0.003000
     12 H2         -1.6540   -1.3590    3.4590 ha        1 4XS      0.003000
     13 H3          2.8930   -0.2640   -2.2650 hc        1 4XS      0.059367
     14 H4          1.9540    1.2800   -2.4230 hc        1 4XS      0.059367
     15 H5          1.1770   -0.3020   -2.8460 hc        1 4XS      0.059367
     16 H6          0.3630   -0.2050    2.9550 h5        1 4XS      0.125100
     17 H7          0.5150   -1.5730    6.9460 ha        1 4XS      0.195000
     18 H8         -1.1040    1.1400    6.6790 ha        1 4XS      0.195000
     19 C9          1.8810    0.1990   -2.1380 c3        1 4XS     -0.052800
     20 Cl          3.6400    1.4830   -0.0460 cl        1 4XS     -0.139000
@<TRIPOS>BOND
     1    1    6 ar  
     2    1    7 ar  
     3    1    8 1   
     4    2    3 ar  
     5    2    7 ar  
     6    2   16 1   
     7    3    5 ar  
     8    4    9 2   
     9    4   10 2   
    10    5    6 ar  
    11    5   20 1   
    12    6   19 1   
    13    9   10 1   
    14    9   18 1   
    15   10   17 1   
    16   11   12 1   
    17   13   19 1   
    18   14   19 1   
    19   15   19 1   
@<TRIPOS>SUBSTRUCTURE
     1 4XS         1 TEMP              0 ****  ****    0 ROOT
