@<TRIPOS>MOLECULE
4XU
   55    58     1     0     0
SMALL
bcc


@<TRIPOS>ATOM
      1 C3         -0.0710   -0.0130    0.0990 ca        1 4XU      0.707200
      2 C7          0.0020    0.1160   -2.3670 c3        1 4XU      0.289100
      3 C9         -2.2390   -0.2870   -5.5170 cc        1 4XU      0.400700
      4 C11        -1.5050    1.2620   -4.0890 cd        1 4XU      0.366600
      5 C12        -1.3420    2.6290   -3.5410 c3        1 4XU     -0.130400
      6 C13        -2.9400   -0.9110   -6.6580 c3        1 4XU     -0.134400
      7 C15         5.4240   -0.1150    2.1730 c3        1 4XU     -0.087400
      8 C18         8.4480    1.1660    3.2610 ca        1 4XU     -0.245300
      9 C20        10.4430    0.0660    2.4640 ca        1 4XU     -0.150300
     10 C21         9.6710   -1.1260    2.3070 ca        1 4XU      0.400600
     11 C          -0.1310   -0.0440    2.5190 ca        1 4XU      0.580300
     12 N           1.2240   -0.0610    2.5850 nb        1 4XU     -0.785000
     13 S          -1.2890   -1.2320   -4.4460 ss        1 4XU     -0.065300
     14 CL         -0.9600   -0.0530    4.0210 cl        1 4XU     -0.144000
     15 C1          1.8650   -0.0460    1.3740 ca        1 4XU      0.896300
     16 N2          1.3000   -0.0110    0.1260 nb        1 4XU     -0.763000
     17 C4         -0.8570   -0.0170    1.3160 ca        1 4XU     -0.391900
     18 N5         -0.7220   -0.0760   -1.1270 nh        1 4XU     -0.846900
     19 C6         -2.3310   -0.0040    1.2580 c3        1 4XU     -0.038800
     20 C8         -0.8960    0.1260   -3.5450 cc        1 4XU     -0.249700
     21 N10        -2.2750    1.0170   -5.2210 nd        1 4XU     -0.635000
     22 C14         3.9550   -0.1030    2.5620 c3        1 4XU      0.138400
     23 C16         6.2800   -0.1000    3.4230 c3        1 4XU     -0.129700
     24 C17         7.7430   -0.0730    3.0750 ca        1 4XU      0.427600
     25 C19         9.7830    1.2270    2.9570 ca        1 4XU     -0.080000
     26 N22         8.3260   -1.1770    2.6170 nb        1 4XU     -0.659000
     27 C23        11.8210    0.0620    2.1310 ca        1 4XU     -0.110000
     28 C24        12.4190   -1.0800    1.6580 ca        1 4XU     -0.128000
     29 C25        11.6630   -2.2660    1.4990 ca        1 4XU     -0.123000
     30 C26        10.3270   -2.3000    1.8110 ca        1 4XU     -0.165300
     31 H1          0.7550   -0.7220   -2.4610 h1        1 4XU      0.070700
     32 H2          0.5810    1.0890   -2.3440 h1        1 4XU      0.070700
     33 H3         -0.3230    3.0130   -3.7990 hc        1 4XU      0.055033
     34 H4         -1.4410    2.6040   -2.4280 hc        1 4XU      0.055033
     35 H5         -2.1030    3.3370   -3.9540 hc        1 4XU      0.055033
     36 H6         -2.7470   -2.0120   -6.6760 hc        1 4XU      0.061033
     37 H7         -4.0440   -0.7410   -6.5810 hc        1 4XU      0.061033
     38 H8         -2.5860   -0.4690   -7.6240 hc        1 4XU      0.061033
     39 H9          5.6500    0.7770    1.5330 hc        1 4XU      0.068200
     40 H10         5.6440   -1.0290    1.5620 hc        1 4XU      0.068200
     41 H12        -1.6740    0.2200   -1.1250 hn        1 4XU      0.432800
     42 H13        -2.7880   -0.0210    2.2780 hc        1 4XU      0.048033
     43 H14        -2.7100   -0.8990    0.7010 hc        1 4XU      0.048033
     44 H15        -2.6970    0.9190    0.7380 hc        1 4XU      0.048033
     45 H16         3.6730   -1.0330    3.1180 h1        1 4XU      0.056700
     46 H17         3.7010    0.8010    3.1720 h1        1 4XU      0.056700
     47 H18         6.0350    0.8050    4.0420 hc        1 4XU      0.059200
     48 H19         6.0510   -1.0050    4.0480 hc        1 4XU      0.059200
     49 H20        10.3590    2.1550    3.0850 ha        1 4XU      0.138000
     50 H21        12.3970    0.9910    2.2590 ha        1 4XU      0.134000
     51 H22        13.4870   -1.0880    1.3980 ha        1 4XU      0.135000
     52 H23        12.1650   -3.1680    1.1170 ha        1 4XU      0.135000
     53 H24         9.7420   -3.2250    1.6850 ha        1 4XU      0.151000
     54 O           3.2440   -0.0530    1.3080 os        1 4XU     -0.417100
     55 H11         7.9040    2.0410    3.6420 ha        1 4XU      0.143000
@<TRIPOS>BOND
     1    1   16 ar  
     2    1   17 ar  
     3    1   18 1   
     4    2   18 1   
     5    2   20 1   
     6    2   31 1   
     7    2   32 1   
     8    3    6 1   
     9    3   13 1   
    10    3   21 2   
    11    4    5 1   
    12    4   20 2   
    13    4   21 1   
    14    5   33 1   
    15    5   34 1   
    16    5   35 1   
    17    6   36 1   
    18    6   37 1   
    19    6   38 1   
    20    7   22 1   
    21    7   23 1   
    22    7   39 1   
    23    7   40 1   
    24    8   24 ar  
    25    8   25 ar  
    26    8   55 1   
    27    9   10 ar  
    28    9   25 ar  
    29    9   27 ar  
    30   10   26 ar  
    31   10   30 ar  
    32   11   12 ar  
    33   11   14 1   
    34   11   17 ar  
    35   12   15 ar  
    36   13   20 1   
    37   15   16 ar  
    38   15   54 1   
    39   17   19 1   
    40   18   41 1   
    41   19   42 1   
    42   19   43 1   
    43   19   44 1   
    44   22   45 1   
    45   22   46 1   
    46   22   54 1   
    47   23   24 1   
    48   23   47 1   
    49   23   48 1   
    50   24   26 ar  
    51   25   49 1   
    52   27   28 ar  
    53   27   50 1   
    54   28   29 ar  
    55   28   51 1   
    56   29   30 ar  
    57   29   52 1   
    58   30   53 1   
@<TRIPOS>SUBSTRUCTURE
     1 4XU         1 TEMP              0 ****  ****    0 ROOT
