@<TRIPOS>MOLECULE
4XU
   55    58     1     0     0
SMALL
bcc


@<TRIPOS>ATOM
      1 C3         -0.0180    0.2230    0.0350 ca        1 4XU      0.709200
      2 C7         -0.0140   -0.0340   -2.4220 c3        1 4XU      0.291100
      3 C9         -2.2580   -0.6820   -5.5280 cc        1 4XU      0.399700
      4 C11        -1.8240    0.8820   -3.9970 cd        1 4XU      0.357600
      5 C12        -1.9740    2.1980   -3.3330 c3        1 4XU     -0.132400
      6 C13        -2.8500   -1.3620   -6.6980 c3        1 4XU     -0.133400
      7 C15         5.5110   -0.0770    2.0020 c3        1 4XU     -0.085400
      8 C18         8.7100    0.3400    4.1230 c3        1 4XU     -0.146500
      9 C20        10.6260   -0.5370    2.8500 ce        1 4XU     -0.075000
     10 C21         9.7140   -0.6350    1.6680 ce        1 4XU      0.076500
     11 C          -0.0020    0.5670    2.4300 ca        1 4XU      0.580300
     12 N           1.3460    0.4280    2.4750 nb        1 4XU     -0.787000
     13 S          -1.0690   -1.4630   -4.5670 ss        1 4XU     -0.065300
     14 Cl         -0.7800    0.8660    3.9310 cl        1 4XU     -0.145000
     15 C1          1.9470    0.1980    1.2650 ca        1 4XU      0.896300
     16 N2          1.3480    0.0960    0.0370 nb        1 4XU     -0.762000
     17 C4         -0.7610    0.4810    1.2510 ca        1 4XU     -0.392900
     18 N5         -0.7100    0.0400   -1.1550 nu        1 4XU     -0.846900
     19 C6         -2.2290    0.6260    1.2170 c3        1 4XU     -0.038800
     20 C8         -0.9480   -0.1210   -3.5700 cc        1 4XU     -0.240700
     21 N10        -2.5740    0.5520   -5.1220 nd        1 4XU     -0.633000
     22 C14         4.0600    0.1330    2.4080 c3        1 4XU      0.136400
     23 C16         6.3890   -0.0010    3.2310 c3        1 4XU     -0.115700
     24 C17         7.8610   -0.1230    2.9580 c2        1 4XU      0.423300
     25 C19        10.1100   -0.1410    4.0320 c2        1 4XU     -0.125200
     26 N22         8.3230   -0.5840    1.8320 ne        1 4XU     -0.525300
     27 C23        11.9340   -1.1640    2.6820 ce        1 4XU     -0.117000
     28 C24        12.3990   -1.5910    1.4780 cf        1 4XU     -0.121000
     29 C25        11.6800   -1.1450    0.2850 cf        1 4XU     -0.164100
     30 C26        10.4070   -0.8540    0.5420 c1        1 4XU      0.030200
     31 H1          0.6510    0.8720   -2.5630 h1        1 4XU      0.071200
     32 H2          0.6570   -0.9420   -2.3990 h1        1 4XU      0.071200
     33 H3         -1.0150    2.4840   -2.8340 hc        1 4XU      0.054367
     34 H4         -2.7800    2.1410   -2.5580 hc        1 4XU      0.054367
     35 H5         -2.2490    2.9970   -4.0660 hc        1 4XU      0.054367
     36 H6         -2.6540   -0.7770   -7.6320 hc        1 4XU      0.060700
     37 H7         -2.4110   -2.3830   -6.8150 hc        1 4XU      0.060700
     38 H8         -3.9590   -1.4600   -6.5750 hc        1 4XU      0.060700
     39 H9          5.8100    0.7050    1.2560 hc        1 4XU      0.075700
     40 H10         5.6200   -1.0720    1.4980 hc        1 4XU      0.075700
     41 H12        -1.6330    0.4160   -1.1850 hn        1 4XU      0.433800
     42 H13        -2.5240    1.4870    0.5640 hc        1 4XU      0.048033
     43 H14        -2.7070   -0.3040    0.8170 hc        1 4XU      0.048033
     44 H15        -2.6520    0.8150    2.2350 hc        1 4XU      0.048033
     45 H16         3.9050    1.1420    2.8680 h1        1 4XU      0.053700
     46 H17         3.7150   -0.6670    3.1130 h1        1 4XU      0.053700
     47 H18         6.1090   -0.8230    3.9470 hc        1 4XU      0.057200
     48 H19         6.2170    0.9780    3.7560 hc        1 4XU      0.057200
     49 H20         8.2490   -0.0120    5.0850 hc        1 4XU      0.076200
     50 H21        10.6740   -0.2150    4.9740 ha        1 4XU      0.135000
     51 H22        12.5390   -1.2800    3.5950 ha        1 4XU      0.136000
     52 H23        13.3510   -2.1230    1.3640 ha        1 4XU      0.141000
     53 H24        12.2190   -0.9490   -0.6460 ha        1 4XU      0.161000
     54 O           3.3160    0.0450    1.1760 os        1 4XU     -0.413100
     55 H11         8.6970    1.4660    4.1380 hc        1 4XU      0.076200
@<TRIPOS>BOND
     1    1   16 ar  
     2    1   17 ar  
     3    1   18 1   
     4    2   18 1   
     5    2   20 1   
     6    2   31 1   
     7    2   32 1   
     8    3    6 1   
     9    3   13 1   
    10    3   21 2   
    11    4    5 1   
    12    4   20 2   
    13    4   21 1   
    14    5   33 1   
    15    5   34 1   
    16    5   35 1   
    17    6   36 1   
    18    6   37 1   
    19    6   38 1   
    20    7   22 1   
    21    7   23 1   
    22    7   39 1   
    23    7   40 1   
    24    8   24 1   
    25    8   25 1   
    26    8   49 1   
    27    8   55 1   
    28    9   10 1   
    29    9   25 2   
    30    9   27 1   
    31   10   26 1   
    32   10   30 2   
    33   11   12 ar  
    34   11   14 1   
    35   11   17 ar  
    36   12   15 ar  
    37   13   20 1   
    38   15   16 ar  
    39   15   54 1   
    40   17   19 1   
    41   18   41 1   
    42   19   42 1   
    43   19   43 1   
    44   19   44 1   
    45   22   45 1   
    46   22   46 1   
    47   22   54 1   
    48   23   24 1   
    49   23   47 1   
    50   23   48 1   
    51   24   26 2   
    52   25   50 1   
    53   27   28 2   
    54   27   51 1   
    55   28   29 1   
    56   28   52 1   
    57   29   30 2   
    58   29   53 1   
@<TRIPOS>SUBSTRUCTURE
     1 4XU         1 TEMP              0 ****  ****    0 ROOT
