@<TRIPOS>MOLECULE
4XV
   22    23     1     0     0
SMALL
bcc


@<TRIPOS>ATOM
      1 C2         -0.0170    0.0240   -0.0200 ca        1 4XV      0.684200
      2 C3          2.0010   -0.1870    1.1360 ca        1 4XV      0.731300
      3 N4          1.4010   -0.2490    2.3640 nb        1 4XV     -0.734000
      4 C7          3.4920   -0.2750    1.0770 cx        1 4XV     -0.183000
      5 C9          4.2390   -1.1550    2.0500 cx        1 4XV     -0.109400
      6 C           0.0510   -0.1630    2.3830 ca        1 4XV      0.557300
      7 N           1.3530   -0.0430   -0.0570 nb        1 4XV     -0.763000
      8 C1         -0.7400   -0.0220    1.2270 ca        1 4XV     -0.363900
      9 N5         -0.7110    0.0740   -1.2230 nh        1 4XV     -0.939500
     10 C6         -2.2120    0.0660    1.2450 c3        1 4XV     -0.041800
     11 C8          4.3320    0.3340    2.1740 cx        1 4XV     -0.109400
     12 CL         -0.7000   -0.2320    3.9250 cl        1 4XV     -0.148000
     13 H1          3.8810   -0.2130    0.0380 hc        1 4XV      0.104700
     14 H2          3.6750   -1.7220    2.8130 hc        1 4XV      0.079950
     15 H3          5.1070   -1.7230    1.6690 hc        1 4XV      0.079950
     16 H4         -0.1920    0.2600   -2.0500 hn        1 4XV      0.424300
     17 H5         -1.6260    0.4560   -1.1830 hn        1 4XV      0.424300
     18 H6         -2.6610   -0.7680    0.6470 hc        1 4XV      0.049367
     19 H7         -2.5530    1.0390    0.8070 hc        1 4XV      0.049367
     20 H8         -2.6200   -0.0010    2.2840 hc        1 4XV      0.049367
     21 H9          3.8370    0.8340    3.0250 hc        1 4XV      0.079950
     22 H10         5.2680    0.8440    1.8820 hc        1 4XV      0.079950
@<TRIPOS>BOND
     1    1    7 ar  
     2    1    8 ar  
     3    1    9 1   
     4    2    3 ar  
     5    2    4 1   
     6    2    7 ar  
     7    3    6 ar  
     8    4    5 1   
     9    4   11 1   
    10    4   13 1   
    11    5   11 1   
    12    5   14 1   
    13    5   15 1   
    14    6    8 ar  
    15    6   12 1   
    16    8   10 1   
    17    9   16 1   
    18    9   17 1   
    19   10   18 1   
    20   10   19 1   
    21   10   20 1   
    22   11   21 1   
    23   11   22 1   
@<TRIPOS>SUBSTRUCTURE
     1 4XV         1 TEMP              0 ****  ****    0 ROOT
