@<TRIPOS>MOLECULE
4XV
   22    23     1     0     0
SMALL
bcc


@<TRIPOS>ATOM
      1 C2         -0.0180    0.0200   -0.0200 ca        1 4XV      0.684200
      2 C3          2.0010   -0.1840    1.1360 ca        1 4XV      0.731300
      3 N4          1.4020   -0.2480    2.3640 nb        1 4XV     -0.734000
      4 C7          3.4930   -0.2670    1.0770 cx        1 4XV     -0.183000
      5 C9          4.2420   -1.1440    2.0500 cx        1 4XV     -0.109400
      6 C           0.0510   -0.1650    2.3840 ca        1 4XV      0.557300
      7 N           1.3530   -0.0420   -0.0570 nb        1 4XV     -0.763000
      8 C1         -0.7400   -0.0270    1.2270 ca        1 4XV     -0.363900
      9 N5         -0.7120    0.0680   -1.2220 nv        1 4XV     -0.939500
     10 C6         -2.2120    0.0560    1.2460 c3        1 4XV     -0.041800
     11 C8          4.3320    0.3450    2.1730 cx        1 4XV     -0.109400
     12 Cl         -0.6990   -0.2360    3.9260 cl        1 4XV     -0.148000
     13 H1          3.8810   -0.2040    0.0380 hc        1 4XV      0.104700
     14 H2          3.6810   -1.7130    2.8130 hc        1 4XV      0.079950
     15 H3          5.1120   -1.7100    1.6690 hc        1 4XV      0.079950
     16 H4         -0.1930    0.2550   -2.0500 hn        1 4XV      0.424300
     17 H5         -1.6280    0.4470   -1.1830 hn        1 4XV      0.424300
     18 H6         -2.6590   -0.7800    0.6480 hc        1 4XV      0.049367
     19 H7         -2.5560    1.0280    0.8070 hc        1 4XV      0.049367
     20 H8         -2.6200   -0.0110    2.2840 hc        1 4XV      0.049367
     21 H9          3.8340    0.8440    3.0240 hc        1 4XV      0.079950
     22 H10         5.2660    0.8580    1.8810 hc        1 4XV      0.079950
@<TRIPOS>BOND
     1    1    7 ar  
     2    1    8 ar  
     3    1    9 1   
     4    2    3 ar  
     5    2    4 1   
     6    2    7 ar  
     7    3    6 ar  
     8    4    5 1   
     9    4   11 1   
    10    4   13 1   
    11    5   11 1   
    12    5   14 1   
    13    5   15 1   
    14    6    8 ar  
    15    6   12 1   
    16    8   10 1   
    17    9   16 1   
    18    9   17 1   
    19   10   18 1   
    20   10   19 1   
    21   10   20 1   
    22   11   21 1   
    23   11   22 1   
@<TRIPOS>SUBSTRUCTURE
     1 4XV         1 TEMP              0 ****  ****    0 ROOT
