@<TRIPOS>MOLECULE
4XX
   14    14     1     0     0
SMALL
bcc


@<TRIPOS>ATOM
      1 CAA        -0.0160   -0.0240    0.1020 c3        1 4XX     -0.044900
      2 CAG         1.4380   -0.0490   -0.0820 c2        1 4XX      0.098900
      3 OAE         2.2010   -0.1020    1.0890 os        1 4XX     -0.319900
      4 CAD         3.6050   -0.1210    0.7190 c3        1 4XX      0.010400
      5 CAF         3.6460   -0.0740   -0.8000 c         1 4XX      0.536300
      6 OAB         4.6370   -0.0720   -1.5250 o         1 4XX     -0.516100
      7 CAH         2.2240   -0.0310   -1.2000 ce        1 4XX     -0.134100
      8 OAC         1.7560    0.0200   -2.4840 oh        1 4XX     -0.468100
      9 H1         -0.3130    0.8710    0.7050 hc        1 4XX      0.069033
     10 H2         -0.3520   -0.9420    0.6470 hc        1 4XX      0.069033
     11 H3         -0.5170    0.0180   -0.8970 hc        1 4XX      0.069033
     12 H4          4.0400   -1.0670    1.1250 h1        1 4XX      0.097700
     13 H5          4.0790    0.7790    1.1830 h1        1 4XX      0.097700
     14 H6          2.5430    0.0210   -3.0550 ho        1 4XX      0.434000
@<TRIPOS>BOND
     1    1    2 1   
     2    1    9 1   
     3    1   10 1   
     4    1   11 1   
     5    2    3 1   
     6    2    7 2   
     7    3    4 1   
     8    4    5 1   
     9    4   12 1   
    10    4   13 1   
    11    5    6 2   
    12    5    7 1   
    13    7    8 1   
    14    8   14 1   
@<TRIPOS>SUBSTRUCTURE
     1 4XX         1 TEMP              0 ****  ****    0 ROOT
