@<TRIPOS>MOLECULE
4XX
   14    13     1     0     0
SMALL
bcc


@<TRIPOS>ATOM
      1 CAA        -2.0240    0.3880    0.2890 c3        1 4XX     -0.167000
      2 CAG        -0.5110    0.3880    0.2890 c1        1 4XX      0.059000
      3 OAE         0.1810    0.3880    1.4890 o         1 4XX     -0.204000
      4 CAD         1.6560   -0.0870    1.0960 c3        1 4XX     -0.090000
      5 CAF         1.4350   -0.5540   -0.4220 c2        1 4XX      0.228000
      6 OAB         2.2480   -1.0680   -1.1640 o         1 4XX     -0.277000
      7 CAH         0.1540   -0.1490   -0.7320 c2        1 4XX     -0.159000
      8 OAC        -0.1680    0.2160   -2.0510 oh        1 4XX     -0.223000
      9 H1         -2.3500    0.9970   -0.4010 hc        1 4XX      0.108333
     10 H2         -2.3500   -0.5140    0.1070 hc        1 4XX      0.108333
     11 H3         -2.3500    0.6800    1.1620 hc        1 4XX      0.108333
     12 H4          1.9660   -0.7670    1.7240 h1        1 4XX      0.137000
     13 H5          2.3500    0.5960    1.1650 h1        1 4XX      0.137000
     14 H6         -0.2370   -0.5130   -2.5520 ho        1 4XX      0.233000
@<TRIPOS>BOND
     1    1    2 1   
     2    1    9 1   
     3    1   10 1   
     4    1   11 1   
     5    2    7 1   
     6    3    4 1   
     7    4    5 1   
     8    4   12 1   
     9    4   13 1   
    10    5    6 1   
    11    5    7 1   
    12    7    8 1   
    13    8   14 1   
@<TRIPOS>SUBSTRUCTURE
     1 4XX         1 TEMP              0 ****  ****    0 ROOT
