@<TRIPOS>MOLECULE
4XX
   14    14     1     0     0
SMALL
bcc


@<TRIPOS>ATOM
      1 CAA         2.5140    0.1670   -0.0020 c3        1 4XX     -0.044900
      2 CAG         1.0730   -0.0990   -0.0010 c2        1 4XX      0.098900
      3 OAE         0.7020   -1.4470    0.0010 os        1 4XX     -0.319900
      4 CAD        -0.7480   -1.5240    0.0010 c3        1 4XX      0.010400
      5 CAF        -1.2500   -0.0890    0.0000 c         1 4XX      0.536300
      6 OAB        -2.4140    0.3000    0.0000 o         1 4XX     -0.516100
      7 CAH        -0.0170    0.7260   -0.0010 ce        1 4XX     -0.134100
      8 OAC         0.0340    2.0920   -0.0020 oh        1 4XX     -0.468100
      9 H1          3.0960   -0.7880    0.0000 hc        1 4XX      0.069033
     10 H2          2.7860    0.7610   -0.9100 hc        1 4XX      0.069033
     11 H3          2.7860    0.7650    0.9050 hc        1 4XX      0.069033
     12 H4         -1.0480   -2.0790   -0.9210 h1        1 4XX      0.097700
     13 H5         -1.0480   -2.0770    0.9250 h1        1 4XX      0.097700
     14 H6         -0.8890    2.3950   -0.0020 ho        1 4XX      0.434000
@<TRIPOS>BOND
     1    1    2 1   
     2    1    9 1   
     3    1   10 1   
     4    1   11 1   
     5    2    3 1   
     6    2    7 2   
     7    3    4 1   
     8    4    5 1   
     9    4   12 1   
    10    4   13 1   
    11    5    6 2   
    12    5    7 1   
    13    7    8 1   
    14    8   14 1   
@<TRIPOS>SUBSTRUCTURE
     1 4XX         1 TEMP              0 ****  ****    0 ROOT
