@<TRIPOS>MOLECULE
4XX
   14    14     1     0     0
SMALL
bcc


@<TRIPOS>ATOM
      1 CAA        -0.0210    0.0190    0.1060 c3        1 4XX     -0.042900
      2 CAG         1.4320   -0.0260   -0.0850 c2        1 4XX      0.099900
      3 OAE         2.2020    0.0310    1.0810 os        1 4XX     -0.318900
      4 CAD         3.6030   -0.0250    0.7080 c3        1 4XX      0.010400
      5 CAF         3.6360   -0.1210   -0.8090 c         1 4XX      0.536300
      6 OAB         4.6230   -0.1890   -1.5360 o         1 4XX     -0.516100
      7 CAH         2.2120   -0.1140   -1.2040 ce        1 4XX     -0.136100
      8 OAC         1.7400   -0.1840   -2.4850 oh        1 4XX     -0.467100
      9 H1         -0.2780    0.0930    1.1920 hc        1 4XX      0.068033
     10 H2         -0.4840   -0.9070   -0.3200 hc        1 4XX      0.068033
     11 H3         -0.4430    0.9050   -0.4330 hc        1 4XX      0.068033
     12 H4          4.0400   -0.9290    1.1990 h1        1 4XX      0.097700
     13 H5          4.0810    0.9140    1.0830 h1        1 4XX      0.097700
     14 H6          2.5250   -0.2390   -3.0570 ho        1 4XX      0.434000
@<TRIPOS>BOND
     1    1    2 1   
     2    1    9 1   
     3    1   10 1   
     4    1   11 1   
     5    2    3 1   
     6    2    7 2   
     7    3    4 1   
     8    4    5 1   
     9    4   12 1   
    10    4   13 1   
    11    5    6 2   
    12    5    7 1   
    13    7    8 1   
    14    8   14 1   
@<TRIPOS>SUBSTRUCTURE
     1 4XX         1 TEMP              0 ****  ****    0 ROOT
