@<TRIPOS>MOLECULE
4XY
   31    32     1     0     0
SMALL
bcc


@<TRIPOS>ATOM
      1 C3          0.0030   -0.0350   -0.0170 ca        1 4XY      0.690200
      2 C5          3.5130   -0.2170    1.1060 cx        1 4XY     -0.182000
      3 C7          4.2840   -1.0540    2.0970 cx        1 4XY     -0.109900
      4 C9         -0.2580    0.0640   -4.9610 c3        1 4XY     -0.093100
      5 C10        -1.0100    0.1730   -3.6600 c3        1 4XY     -0.093400
      6 C11        -0.0420    0.0350   -2.4850 c3        1 4XY      0.202800
      7 C           0.0610   -0.2120    2.3900 ca        1 4XY      0.556300
      8 N           1.4150   -0.2450    2.3820 nb        1 4XY     -0.735000
      9 C1          2.0180   -0.1780    1.1570 ca        1 4XY      0.729300
     10 N2          1.3730   -0.0830   -0.0430 nb        1 4XY     -0.760000
     11 C4         -0.7260   -0.1100    1.2290 ca        1 4XY     -0.364900
     12 C6          4.3250    0.4380    2.1970 cx        1 4XY     -0.109900
     13 C8         -2.2000   -0.0690    1.2450 c3        1 4XY     -0.042800
     14 Cl         -0.6950   -0.3060    3.9290 cl        1 4XY     -0.151000
     15 N12        -0.6990    0.1560   -1.2040 nu        1 4XY     -0.846900
     16 H1          3.9040   -0.1570    0.0690 hc        1 4XY      0.103700
     17 H2          3.7370   -1.6290    2.8650 hc        1 4XY      0.079700
     18 H3          5.1740   -1.5970    1.7290 hc        1 4XY      0.079700
     19 H4         -0.9620    0.1640   -5.8210 hc        1 4XY      0.039033
     20 H5          0.5130    0.8680   -5.0400 hc        1 4XY      0.039033
     21 H6          0.2570   -0.9240   -5.0390 hc        1 4XY      0.039033
     22 H7         -1.5370    1.1630   -3.6100 hc        1 4XY      0.045200
     23 H8         -1.7950   -0.6270   -3.6110 hc        1 4XY      0.045200
     24 H9          0.7390    0.8460   -2.5530 h1        1 4XY      0.055700
     25 H10         0.4920   -0.9570   -2.5700 h1        1 4XY      0.055700
     26 H11         3.8070    0.9340    3.0370 hc        1 4XY      0.079700
     27 H12         5.2440    0.9770    1.9020 hc        1 4XY      0.079700
     28 H13        -2.6240   -0.9320    0.6700 hc        1 4XY      0.049367
     29 H14        -2.6070   -0.1230    2.2850 hc        1 4XY      0.049367
     30 H15        -2.5710    0.8820    0.7840 hc        1 4XY      0.049367
     31 H16        -1.6550   -0.1230   -1.1790 hn        1 4XY      0.422800
@<TRIPOS>BOND
     1    1   10 ar  
     2    1   11 ar  
     3    1   15 1   
     4    2    3 1   
     5    2    9 1   
     6    2   12 1   
     7    2   16 1   
     8    3   12 1   
     9    3   17 1   
    10    3   18 1   
    11    4    5 1   
    12    4   19 1   
    13    4   20 1   
    14    4   21 1   
    15    5    6 1   
    16    5   22 1   
    17    5   23 1   
    18    6   15 1   
    19    6   24 1   
    20    6   25 1   
    21    7    8 ar  
    22    7   11 ar  
    23    7   14 1   
    24    8    9 ar  
    25    9   10 ar  
    26   11   13 1   
    27   12   26 1   
    28   12   27 1   
    29   13   28 1   
    30   13   29 1   
    31   13   30 1   
    32   15   31 1   
@<TRIPOS>SUBSTRUCTURE
     1 4XY         1 TEMP              0 ****  ****    0 ROOT
