@<TRIPOS>MOLECULE
4XY
   31    32     1     0     0
SMALL
bcc


@<TRIPOS>ATOM
      1 C3          0.0000   -0.1330   -0.0200 ca        1 4XY      0.690200
      2 C5          3.5130   -0.2900    1.0970 cx        1 4XY     -0.182000
      3 C7          4.2780   -1.0950    2.1200 cx        1 4XY     -0.109900
      4 C9         -0.2620    0.2250   -4.9520 c3        1 4XY     -0.093100
      5 C10        -1.0220    0.0520   -3.6620 c3        1 4XY     -0.093400
      6 C11        -0.0470    0.0200   -2.4840 c3        1 4XY      0.202800
      7 C           0.0690   -0.1730    2.3930 ca        1 4XY      0.556300
      8 N           1.4220   -0.2320    2.3810 nb        1 4XY     -0.735000
      9 C1          2.0200   -0.2310    1.1510 ca        1 4XY      0.729300
     10 N2          1.3710   -0.1750   -0.0490 nb        1 4XY     -0.760000
     11 C4         -0.7230   -0.1180    1.2310 ca        1 4XY     -0.364900
     12 C6          4.3390    0.4010    2.1550 cx        1 4XY     -0.109900
     13 C8         -2.1960   -0.0600    1.2520 c3        1 4XY     -0.042800
     14 CL         -0.6810   -0.1650    3.9380 cl        1 4XY     -0.151000
     15 N12        -0.7120   -0.1690   -1.2160 nh        1 4XY     -0.846900
     16 H1          3.9010   -0.2820    0.0560 hc        1 4XY      0.103700
     17 H2          5.1580   -1.6660    1.7730 hc        1 4XY      0.079700
     18 H3          3.7260   -1.6270    2.9150 hc        1 4XY      0.079700
     19 H4          0.4530   -0.6200   -5.1060 hc        1 4XY      0.039033
     20 H5         -0.9710    0.2490   -5.8140 hc        1 4XY      0.039033
     21 H6          0.3190    1.1790   -4.9450 hc        1 4XY      0.039033
     22 H7         -1.6140   -0.9000   -3.6970 hc        1 4XY      0.045200
     23 H8         -1.7500    0.8970   -3.5380 hc        1 4XY      0.045200
     24 H9          0.5530    0.9770   -2.4840 h1        1 4XY      0.055700
     25 H10         0.6770   -0.8330   -2.6280 h1        1 4XY      0.055700
     26 H11         3.8320    0.9400    2.9750 hc        1 4XY      0.079700
     27 H12         5.2640    0.9120    1.8330 hc        1 4XY      0.079700
     28 H13        -2.6310   -0.9390    0.7100 hc        1 4XY      0.049367
     29 H14        -2.5600    0.8770    0.7570 hc        1 4XY      0.049367
     30 H15        -2.5990   -0.0710    2.2950 hc        1 4XY      0.049367
     31 H16        -1.6470    0.1710   -1.1610 hn        1 4XY      0.422800
@<TRIPOS>BOND
     1    1   10 ar  
     2    1   11 ar  
     3    1   15 1   
     4    2    3 1   
     5    2    9 1   
     6    2   12 1   
     7    2   16 1   
     8    3   12 1   
     9    3   17 1   
    10    3   18 1   
    11    4    5 1   
    12    4   19 1   
    13    4   20 1   
    14    4   21 1   
    15    5    6 1   
    16    5   22 1   
    17    5   23 1   
    18    6   15 1   
    19    6   24 1   
    20    6   25 1   
    21    7    8 ar  
    22    7   11 ar  
    23    7   14 1   
    24    8    9 ar  
    25    9   10 ar  
    26   11   13 1   
    27   12   26 1   
    28   12   27 1   
    29   13   28 1   
    30   13   29 1   
    31   13   30 1   
    32   15   31 1   
@<TRIPOS>SUBSTRUCTURE
     1 4XY         1 TEMP              0 ****  ****    0 ROOT
