@<TRIPOS>MOLECULE
4Y0
   41    43     1     0     0
SMALL
bcc


@<TRIPOS>ATOM
      1 N1          0.4110   -0.9760    0.0870 na        1 4Y0     -0.008600
      2 C2          2.0830    0.0400    1.1930 cc        1 4Y0     -0.270300
      3 C3          1.0700   -0.4820    2.0960 cc        1 4Y0      0.419200
      4 C4          1.6270   -0.3020   -0.0940 cd        1 4Y0     -0.048300
      5 N5          0.0680   -1.1050    1.3650 nd        1 4Y0     -0.558800
      6 N6          1.0560   -0.3880    3.4890 n         1 4Y0     -0.530400
      7 C7          2.0870    0.1460    4.2520 c         1 4Y0      0.688700
      8 C9          1.8720    0.1460    5.7280 ca        1 4Y0     -0.146600
      9 C10         2.9810   -0.1390    6.5400 ca        1 4Y0     -0.132000
     10 C11         2.8430   -0.1380    7.9250 ca        1 4Y0      0.096100
     11 C12         1.5790    0.1600    8.5100 ca        1 4Y0      0.127100
     12 C13         2.2410   -0.0390   -1.3800 ca        1 4Y0     -0.020000
     13 C15         0.6390    0.4470    6.3000 ca        1 4Y0     -0.098000
     14 C16         0.4910    0.4540    7.6890 ca        1 4Y0     -0.192000
     15 O17         3.8560   -0.4160    8.8190 os        1 4Y0     -0.302900
     16 O18         1.5460    0.1310    9.8860 os        1 4Y0     -0.298900
     17 C19         1.4800    0.0330   -2.5560 ca        1 4Y0     -0.115500
     18 C20         3.6290    0.1570   -1.4470 ca        1 4Y0     -0.115500
     19 C21         5.1460   -0.6240    8.2510 c3        1 4Y0      0.107700
     20 C22         4.2420    0.4170   -2.6710 ca        1 4Y0     -0.127500
     21 C23         2.1000    0.2920   -3.7770 ca        1 4Y0     -0.127500
     22 O2          3.1360    0.5860    3.7460 o         1 4Y0     -0.588100
     23 C           0.2940    0.4430   10.4880 c3        1 4Y0      0.108700
     24 C24         3.4800    0.4830   -3.8370 ca        1 4Y0     -0.123000
     25 H1         -0.1480   -1.3930   -0.6190 hn        1 4Y0      0.322700
     26 H2          2.9830    0.5790    1.4740 ha        1 4Y0      0.196000
     27 H6          0.2740   -0.7850    3.9620 hn        1 4Y0      0.331500
     28 H10         3.9520   -0.3450    6.0620 ha        1 4Y0      0.163000
     29 H15        -0.2300    0.7010    5.6730 ha        1 4Y0      0.140000
     30 H16        -0.4890    0.6970    8.1250 ha        1 4Y0      0.145000
     31 H19         0.3880   -0.0990   -2.5250 ha        1 4Y0      0.136500
     32 H20         4.2300    0.1030   -0.5260 ha        1 4Y0      0.136500
     33 H211        5.1460   -1.5300    7.5970 h1        1 4Y0      0.047367
     34 H212        5.4760    0.2750    7.6760 h1        1 4Y0      0.047367
     35 H213        5.7970   -0.7840    9.1470 h1        1 4Y0      0.047367
     36 HC1         0.5090    0.3610   11.5840 h1        1 4Y0      0.047033
     37 HC2        -0.0250    1.4800   10.2250 h1        1 4Y0      0.047033
     38 HC3        -0.4860   -0.2970   10.1840 h1        1 4Y0      0.047033
     39 H23         1.4960    0.3490   -4.6940 ha        1 4Y0      0.135000
     40 H22         5.3300    0.5710   -2.7140 ha        1 4Y0      0.135000
     41 H24         3.9660    0.6880   -4.8020 ha        1 4Y0      0.134000
@<TRIPOS>BOND
     1    1    4 1   
     2    1    5 1   
     3    1   25 1   
     4    2    3 1   
     5    2    4 2   
     6    2   26 1   
     7    3    5 2   
     8    3    6 1   
     9    4   12 1   
    10    6    7 1   
    11    6   27 1   
    12    7    8 1   
    13    7   22 2   
    14    8    9 ar  
    15    8   13 ar  
    16    9   10 ar  
    17    9   28 1   
    18   10   11 ar  
    19   10   15 1   
    20   11   14 ar  
    21   11   16 1   
    22   12   17 ar  
    23   12   18 ar  
    24   13   14 ar  
    25   13   29 1   
    26   14   30 1   
    27   15   19 1   
    28   16   23 1   
    29   17   21 ar  
    30   17   31 1   
    31   18   20 ar  
    32   18   32 1   
    33   19   33 1   
    34   19   34 1   
    35   19   35 1   
    36   20   24 ar  
    37   20   40 1   
    38   21   24 ar  
    39   21   39 1   
    40   23   36 1   
    41   23   37 1   
    42   23   38 1   
    43   24   41 1   
@<TRIPOS>SUBSTRUCTURE
     1 4Y0         1 TEMP              0 ****  ****    0 ROOT
