@<TRIPOS>MOLECULE
4Y0
   41    43     1     0     0
SMALL
bcc


@<TRIPOS>ATOM
      1 N1          0.4080   -0.9770    0.0890 na        1 4Y0     -0.008600
      2 C2          2.0830    0.0370    1.1930 cc        1 4Y0     -0.270300
      3 C3          1.0690   -0.4820    2.0970 cc        1 4Y0      0.419200
      4 C4          1.6250   -0.3050   -0.0930 cd        1 4Y0     -0.048300
      5 N5          0.0660   -1.1040    1.3670 nd        1 4Y0     -0.558800
      6 N6          1.0560   -0.3870    3.4890 ns        1 4Y0     -0.530400
      7 C7          2.0880    0.1460    4.2510 c         1 4Y0      0.688700
      8 C9          1.8740    0.1480    5.7280 ca        1 4Y0     -0.146600
      9 C10         2.9820   -0.1380    6.5400 ca        1 4Y0     -0.132000
     10 C11         2.8450   -0.1360    7.9250 ca        1 4Y0      0.096100
     11 C12         1.5820    0.1650    8.5100 ca        1 4Y0      0.127100
     12 C13         2.2380   -0.0440   -1.3810 ca        1 4Y0     -0.020000
     13 C15         0.6410    0.4510    6.3000 ca        1 4Y0     -0.098000
     14 C16         0.4930    0.4600    7.6890 ca        1 4Y0     -0.192000
     15 O17         3.8580   -0.4150    8.8190 os        1 4Y0     -0.302900
     16 O18         1.5490    0.1380    9.8860 os        1 4Y0     -0.298900
     17 C19         1.4760    0.0290   -2.5550 ca        1 4Y0     -0.115500
     18 C20         3.6270    0.1490   -1.4480 ca        1 4Y0     -0.115500
     19 C21         5.1470   -0.6240    8.2510 c3        1 4Y0      0.107700
     20 C22         4.2390    0.4080   -2.6720 ca        1 4Y0     -0.127500
     21 C23         2.0960    0.2870   -3.7770 ca        1 4Y0     -0.127500
     22 O2          3.1380    0.5840    3.7450 o         1 4Y0     -0.588100
     23 C           0.2970    0.4530   10.4890 c3        1 4Y0      0.108700
     24 C24         3.4770    0.4750   -3.8390 ca        1 4Y0     -0.123000
     25 H1         -0.1520   -1.3940   -0.6170 hn        1 4Y0      0.322700
     26 H2          2.9830    0.5760    1.4730 ha        1 4Y0      0.196000
     27 H6          0.2740   -0.7830    3.9630 hn        1 4Y0      0.331500
     28 H10         3.9520   -0.3470    6.0620 ha        1 4Y0      0.163000
     29 H15        -0.2270    0.7070    5.6730 ha        1 4Y0      0.140000
     30 H16        -0.4860    0.7060    8.1250 ha        1 4Y0      0.145000
     31 H19         0.3850   -0.1000   -2.5230 ha        1 4Y0      0.136500
     32 H20         4.2290    0.0950   -0.5270 ha        1 4Y0      0.136500
     33 H211        5.4780    0.2740    7.6750 h1        1 4Y0      0.047367
     34 H212        5.7990   -0.7840    9.1470 h1        1 4Y0      0.047367
     35 H213        5.1460   -1.5300    7.5970 h1        1 4Y0      0.047367
     36 HC1        -0.4840   -0.2860   10.1850 h1        1 4Y0      0.047033
     37 HC2        -0.0190    1.4910   10.2240 h1        1 4Y0      0.047033
     38 HC3         0.5140    0.3720   11.5840 h1        1 4Y0      0.047033
     39 H23         1.4920    0.3440   -4.6940 ha        1 4Y0      0.135000
     40 H22         5.3280    0.5590   -2.7170 ha        1 4Y0      0.135000
     41 H24         3.9630    0.6780   -4.8040 ha        1 4Y0      0.134000
@<TRIPOS>BOND
     1    1    4 1   
     2    1    5 1   
     3    1   25 1   
     4    2    3 1   
     5    2    4 2   
     6    2   26 1   
     7    3    5 2   
     8    3    6 1   
     9    4   12 1   
    10    6    7 1   
    11    6   27 1   
    12    7    8 1   
    13    7   22 2   
    14    8    9 ar  
    15    8   13 ar  
    16    9   10 ar  
    17    9   28 1   
    18   10   11 ar  
    19   10   15 1   
    20   11   14 ar  
    21   11   16 1   
    22   12   17 ar  
    23   12   18 ar  
    24   13   14 ar  
    25   13   29 1   
    26   14   30 1   
    27   15   19 1   
    28   16   23 1   
    29   17   21 ar  
    30   17   31 1   
    31   18   20 ar  
    32   18   32 1   
    33   19   33 1   
    34   19   34 1   
    35   19   35 1   
    36   20   24 ar  
    37   20   40 1   
    38   21   24 ar  
    39   21   39 1   
    40   23   36 1   
    41   23   37 1   
    42   23   38 1   
    43   24   41 1   
@<TRIPOS>SUBSTRUCTURE
     1 4Y0         1 TEMP              0 ****  ****    0 ROOT
