@<TRIPOS>MOLECULE
4Y1
   46    48     1     0     0
SMALL
bcc


@<TRIPOS>ATOM
      1 C3         -0.1260    0.0490    0.0970 ca        1 4Y1      0.705200
      2 C5         -2.3940    0.1270    1.2350 c3        1 4Y1     -0.038800
      3 N6         -0.7680   -0.0850   -1.1290 nh        1 4Y1     -0.845900
      4 C7         -0.0330    0.0430   -2.3710 c3        1 4Y1      0.288100
      5 C9         -2.2520   -0.5130   -5.5130 cc        1 4Y1      0.400700
      6 C11        -1.5130    1.1060   -4.1690 cd        1 4Y1      0.366600
      7 C12        -2.9510   -1.1930   -6.6240 c3        1 4Y1     -0.134400
      8 C13        -1.3390    2.5000   -3.6980 c3        1 4Y1     -0.130400
      9 C15         5.3540    0.1270    2.1930 c3        1 4Y1     -0.138700
     10 N17         6.1130    0.9350    4.3940 nb        1 4Y1     -0.666000
     11 C18         6.9340    0.8220    5.4520 ca        1 4Y1      0.400200
     12 C20         8.0300   -1.1210    4.5590 ca        1 4Y1     -0.091000
     13 C21         7.1870   -1.0260    3.4520 ca        1 4Y1     -0.241300
     14 C          -0.2040    0.1570    2.5140 ca        1 4Y1      0.579300
     15 N           1.1490    0.1430    2.5920 nb        1 4Y1     -0.779000
     16 O           3.1780    0.0700    1.3320 os        1 4Y1     -0.426100
     17 S          -1.3220   -1.4070   -4.3820 ss        1 4Y1     -0.066300
     18 CL         -1.0460    0.2330    4.0070 cl        1 4Y1     -0.143000
     19 C1          1.8010    0.0900    1.3870 ca        1 4Y1      0.898300
     20 N2          1.2450    0.0520    0.1350 nb        1 4Y1     -0.764000
     21 C4         -0.9210    0.1150    1.3060 ca        1 4Y1     -0.391900
     22 C8         -0.9210   -0.0040   -3.5560 cc        1 4Y1     -0.248700
     23 N10        -2.2760    0.8060   -5.2920 nd        1 4Y1     -0.635000
     24 C14         3.8840    0.1570    2.5900 c3        1 4Y1      0.147400
     25 C16         6.2370    0.0180    3.4000 ca        1 4Y1      0.407600
     26 C19         7.9090   -0.1840    5.5850 ca        1 4Y1     -0.248300
     27 H1         -2.7710   -0.7980    0.7270 hc        1 4Y1      0.048367
     28 H2         -2.7550    1.0190    0.6610 hc        1 4Y1      0.048367
     29 H3         -2.8590    0.1690    2.2510 hc        1 4Y1      0.048367
     30 H4         -1.7170    0.2210   -1.1510 hn        1 4Y1      0.430800
     31 H5          0.5490    1.0150   -2.3930 h1        1 4Y1      0.070700
     32 H6          0.7180   -0.8000   -2.4170 h1        1 4Y1      0.070700
     33 H7         -4.0540   -1.0080   -6.5650 hc        1 4Y1      0.061033
     34 H8         -2.5850   -0.8100   -7.6100 hc        1 4Y1      0.061033
     35 H9         -2.7690   -2.2950   -6.5770 hc        1 4Y1      0.061033
     36 H10        -0.3120    2.8570   -3.9650 hc        1 4Y1      0.055367
     37 H11        -2.0870    3.1920   -4.1590 hc        1 4Y1      0.055367
     38 H12        -1.4510    2.5400   -2.5860 hc        1 4Y1      0.055367
     39 H13         5.5360   -0.7430    1.5080 hc        1 4Y1      0.070700
     40 H14         5.6060    1.0620    1.6240 hc        1 4Y1      0.070700
     41 H16         8.7780   -1.9260    4.6210 ha        1 4Y1      0.139000
     42 H17         7.2570   -1.7500    2.6290 ha        1 4Y1      0.144000
     43 H18         3.6160    1.1130    3.1080 h1        1 4Y1      0.068700
     44 H19         3.6160   -0.7210    3.2310 h1        1 4Y1      0.068700
     45 H20         8.5510   -0.2240    6.4740 ha        1 4Y1      0.144000
     46 H15         6.8000    1.5860    6.2390 h4        1 4Y1      0.023100
@<TRIPOS>BOND
     1    1    3 1   
     2    1   20 ar  
     3    1   21 ar  
     4    2   21 1   
     5    2   27 1   
     6    2   28 1   
     7    2   29 1   
     8    3    4 1   
     9    3   30 1   
    10    4   22 1   
    11    4   31 1   
    12    4   32 1   
    13    5    7 1   
    14    5   17 1   
    15    5   23 2   
    16    6    8 1   
    17    6   22 2   
    18    6   23 1   
    19    7   33 1   
    20    7   34 1   
    21    7   35 1   
    22    8   36 1   
    23    8   37 1   
    24    8   38 1   
    25    9   24 1   
    26    9   25 1   
    27    9   39 1   
    28    9   40 1   
    29   10   11 ar  
    30   10   25 ar  
    31   11   26 ar  
    32   11   46 1   
    33   12   13 ar  
    34   12   26 ar  
    35   12   41 1   
    36   13   25 ar  
    37   13   42 1   
    38   14   15 ar  
    39   14   18 1   
    40   14   21 ar  
    41   15   19 ar  
    42   16   19 1   
    43   16   24 1   
    44   17   22 1   
    45   19   20 ar  
    46   24   43 1   
    47   24   44 1   
    48   26   45 1   
@<TRIPOS>SUBSTRUCTURE
     1 4Y1         1 TEMP              0 ****  ****    0 ROOT
