@<TRIPOS>MOLECULE
4Y1
   46    48     1     0     0
SMALL
bcc


@<TRIPOS>ATOM
      1 C3         -0.1260    0.0550    0.0960 ca        1 4Y1      0.705200
      2 C5         -2.3950    0.1500    1.2310 c3        1 4Y1     -0.038800
      3 N6         -0.7680   -0.0810   -1.1300 nu        1 4Y1     -0.845900
      4 C7         -0.0310    0.0370   -2.3720 c3        1 4Y1      0.288100
      5 C9         -2.2510   -0.5210   -5.5140 cc        1 4Y1      0.400700
      6 C11        -1.5030    1.1010   -4.1770 cd        1 4Y1      0.366600
      7 C12        -2.9530   -1.2020   -6.6210 c3        1 4Y1     -0.134400
      8 C13        -1.3220    2.4960   -3.7120 c3        1 4Y1     -0.130400
      9 C15         5.3510    0.1170    2.1960 c3        1 4Y1     -0.138700
     10 N17         6.1130    0.9340    4.3940 nb        1 4Y1     -0.666000
     11 C18         6.9320    0.8240    5.4530 ca        1 4Y1      0.400200
     12 C20         8.0200   -1.1300    4.5730 ca        1 4Y1     -0.091000
     13 C21         7.1780   -1.0360    3.4630 ca        1 4Y1     -0.241300
     14 C          -0.2060    0.1760    2.5120 ca        1 4Y1      0.579300
     15 N           1.1470    0.1550    2.5910 nb        1 4Y1     -0.779000
     16 O           3.1770    0.0660    1.3340 os        1 4Y1     -0.426100
     17 S          -1.3270   -1.4150   -4.3770 ss        1 4Y1     -0.066300
     18 Cl         -1.0490    0.2630    4.0040 cl        1 4Y1     -0.143000
     19 C1          1.7990    0.0920    1.3870 ca        1 4Y1      0.898300
     20 N2          1.2450    0.0510    0.1350 nb        1 4Y1     -0.764000
     21 C4         -0.9220    0.1320    1.3030 ca        1 4Y1     -0.391900
     22 C8         -0.9180   -0.0100   -3.5580 cc        1 4Y1     -0.248700
     23 N10        -2.2670    0.7990   -5.2990 nd        1 4Y1     -0.635000
     24 C14         3.8820    0.1560    2.5920 c3        1 4Y1      0.147400
     25 C16         6.2330    0.0110    3.4050 ca        1 4Y1      0.407600
     26 C19         7.9020   -0.1860    5.5930 ca        1 4Y1     -0.248300
     27 H1         -2.8610    0.1990    2.2460 hc        1 4Y1      0.048367
     28 H2         -2.7760   -0.7750    0.7270 hc        1 4Y1      0.048367
     29 H3         -2.7510    1.0410    0.6520 hc        1 4Y1      0.048367
     30 H4         -1.7150    0.2290   -1.1550 hn        1 4Y1      0.430800
     31 H5          0.7160   -0.8100   -2.4140 h1        1 4Y1      0.070700
     32 H6          0.5560    1.0060   -2.3980 h1        1 4Y1      0.070700
     33 H7         -4.0540   -1.0100   -6.5640 hc        1 4Y1      0.061033
     34 H8         -2.7770   -2.3050   -6.5700 hc        1 4Y1      0.061033
     35 H9         -2.5840   -0.8250   -7.6090 hc        1 4Y1      0.061033
     36 H10        -0.2920    2.8450   -3.9790 hc        1 4Y1      0.055367
     37 H11        -1.4340    2.5420   -2.6000 hc        1 4Y1      0.055367
     38 H12        -2.0640    3.1900   -4.1770 hc        1 4Y1      0.055367
     39 H13         5.6080    1.0480    1.6220 hc        1 4Y1      0.070700
     40 H14         5.5310   -0.7570    1.5170 hc        1 4Y1      0.070700
     41 H16         8.7640   -1.9370    4.6390 ha        1 4Y1      0.139000
     42 H17         7.2470   -1.7660    2.6450 ha        1 4Y1      0.144000
     43 H18         3.6090   -0.7170    3.2370 h1        1 4Y1      0.068700
     44 H19         3.6170    1.1160    3.1050 h1        1 4Y1      0.068700
     45 H20         8.5430   -0.2230    6.4820 ha        1 4Y1      0.144000
     46 H15         6.8010    1.5930    6.2360 h4        1 4Y1      0.023100
@<TRIPOS>BOND
     1    1    3 1   
     2    1   20 ar  
     3    1   21 ar  
     4    2   21 1   
     5    2   27 1   
     6    2   28 1   
     7    2   29 1   
     8    3    4 1   
     9    3   30 1   
    10    4   22 1   
    11    4   31 1   
    12    4   32 1   
    13    5    7 1   
    14    5   17 1   
    15    5   23 2   
    16    6    8 1   
    17    6   22 2   
    18    6   23 1   
    19    7   33 1   
    20    7   34 1   
    21    7   35 1   
    22    8   36 1   
    23    8   37 1   
    24    8   38 1   
    25    9   24 1   
    26    9   25 1   
    27    9   39 1   
    28    9   40 1   
    29   10   11 ar  
    30   10   25 ar  
    31   11   26 ar  
    32   11   46 1   
    33   12   13 ar  
    34   12   26 ar  
    35   12   41 1   
    36   13   25 ar  
    37   13   42 1   
    38   14   15 ar  
    39   14   18 1   
    40   14   21 ar  
    41   15   19 ar  
    42   16   19 1   
    43   16   24 1   
    44   17   22 1   
    45   19   20 ar  
    46   24   43 1   
    47   24   44 1   
    48   26   45 1   
@<TRIPOS>SUBSTRUCTURE
     1 4Y1         1 TEMP              0 ****  ****    0 ROOT
