@<TRIPOS>MOLECULE
4Y2
   37    38     1     0     0
SMALL
bcc


@<TRIPOS>ATOM
      1 C3         -0.1600   -0.1000   -0.0070 c2        1 4Y2      0.165000
      2 C5         -2.3920    0.1130    1.1830 c3        1 4Y2     -0.171000
      3 C7          3.9680    0.8570    1.7020 c3        1 4Y2     -0.252000
      4 C9         -2.4060   -0.1580   -5.5990 c2        1 4Y2     -0.269000
      5 C11        -1.5000    1.3110   -4.1860 c2        1 4Y2     -0.055000
      6 C12        -1.0070    0.1190   -3.6430 c2        1 4Y2     -0.448000
      7 C15        -0.1030    0.0200   -2.4720 c3        1 4Y2      0.045000
      8 C          -0.1800   -0.1090    2.4100 c2        1 4Y2      0.059000
      9 N           1.1680   -0.2450    2.4450 n2        1 4Y2     -0.206000
     10 S          -1.5490   -1.1940   -4.5320 ss        1 4Y2      0.518000
     11 C1          1.8040   -0.2970    1.2380 c2        1 4Y2      0.071000
     12 N2          1.2070   -0.2200    0.0160 n2        1 4Y2     -0.237000
     13 C4         -0.9240   -0.0270    1.2180 c2        1 4Y2     -0.220000
     14 C6          3.3150   -0.4410    1.2640 c3        1 4Y2     -0.127000
     15 C8          5.4090    0.8810    1.7690 c1        1 4Y2     -0.053000
     16 Cl         -0.9820   -0.0340    3.9240 cl        1 4Y2      0.022000
     17 N10        -2.3030    1.1430   -5.3090 n2        1 4Y2     -0.109000
     18 C14        -1.1910    2.6560   -3.6470 c3        1 4Y2     -0.154000
     19 N16        -0.8310   -0.1170   -1.2260 nu        1 4Y2     -0.290000
     20 H1         -2.8560   -0.7490    0.6390 hc        1 4Y2      0.091000
     21 H2         -2.6850    1.0610    0.6620 hc        1 4Y2      0.091000
     22 H3         -2.8320    0.1420    2.2110 hc        1 4Y2      0.091000
     23 H4          3.6050    1.1500    2.7340 hc        1 4Y2      0.159500
     24 H5          3.6530    1.7000    1.0180 hc        1 4Y2      0.159500
     25 H6         -3.1020   -1.8250   -6.7450 hc        1 4Y2      0.100667
     26 H7         -4.2600   -0.4260   -6.6420 hc        1 4Y2      0.100667
     27 H8         -2.7930   -0.3090   -7.7020 hc        1 4Y2      0.100667
     28 H9          0.5690   -0.8820   -2.5800 h1        1 4Y2      0.106500
     29 H10         0.5610    0.9360   -2.4500 h1        1 4Y2      0.106500
     30 H11         3.6910   -0.7320    0.2480 hc        1 4Y2      0.108500
     31 H12         3.5870   -1.2660    1.9750 hc        1 4Y2      0.108500
     32 H13         5.9380   -0.0600    1.5500 ha        1 4Y2      0.038000
     33 H14        -1.2730    2.6450   -2.5320 hc        1 4Y2      0.094667
     34 H15        -1.8830    3.4360   -4.0500 hc        1 4Y2      0.094667
     35 H16        -0.1420    2.9350   -3.9230 hc        1 4Y2      0.094667
     36 H17        -1.7470    0.2780   -1.2150 hn        1 4Y2      0.225000
     37 C13        -3.1800   -0.7100   -6.7300 c3        1 4Y2     -0.158000
@<TRIPOS>BOND
     1    1   12 1   
     2    1   13 1   
     3    1   19 1   
     4    2   13 1   
     5    2   20 1   
     6    2   21 1   
     7    2   22 1   
     8    3   14 1   
     9    3   15 1   
    10    3   23 1   
    11    3   24 1   
    12    4   10 1   
    13    4   17 1   
    14    4   37 1   
    15    5    6 1   
    16    5   17 1   
    17    5   18 1   
    18    6    7 1   
    19    6   10 1   
    20    7   19 1   
    21    7   28 1   
    22    7   29 1   
    23    8    9 1   
    24    8   13 1   
    25    8   16 1   
    26    9   11 1   
    27   11   12 1   
    28   11   14 1   
    29   14   30 1   
    30   14   31 1   
    31   15   32 1   
    32   18   33 1   
    33   18   34 1   
    34   18   35 1   
    35   19   36 1   
    36   25   37 1   
    37   26   37 1   
    38   27   37 1   
@<TRIPOS>SUBSTRUCTURE
     1 4Y2         1 TEMP              0 ****  ****    0 ROOT
