@<TRIPOS>MOLECULE
4Y2
   37    39     1     0     0
SMALL
bcc


@<TRIPOS>ATOM
      1 C3         -0.0110    0.0990   -0.0090 ca        1 4Y2      0.683200
      2 C5         -2.1990    0.2360    1.2710 c3        1 4Y2     -0.043800
      3 C7          4.3330    0.9010    2.0700 cx        1 4Y2     -0.108900
      4 C9         -2.4860   -0.5090   -5.4710 cc        1 4Y2      0.400700
      5 C11        -1.6240    1.1160   -4.2090 cd        1 4Y2      0.365600
      6 C12        -1.0280    0.0020   -3.6070 cc        1 4Y2     -0.247700
      7 C15        -0.0710    0.0490   -2.4760 c3        1 4Y2      0.286100
      8 C           0.0770    0.2640    2.3980 ca        1 4Y2      0.554300
      9 N           1.4310    0.2310    2.3770 nb        1 4Y2     -0.732000
     10 S          -1.5160   -1.4060   -4.3750 ss        1 4Y2     -0.066300
     11 C1          2.0190    0.1400    1.1470 ca        1 4Y2      0.729300
     12 N2          1.3590    0.0820   -0.0480 nb        1 4Y2     -0.761000
     13 C4         -0.7240    0.2050    1.2430 ca        1 4Y2     -0.359900
     14 C6          3.5130    0.1060    1.0820 cx        1 4Y2     -0.183000
     15 C8          4.3030   -0.5930    2.1630 cx        1 4Y2     -0.108900
     16 CL         -0.6600    0.3880    3.9430 cl        1 4Y2     -0.148000
     17 N10        -2.4600    0.8140   -5.2790 nd        1 4Y2     -0.635000
     18 C14        -1.3850    2.5140   -3.7810 c3        1 4Y2     -0.130400
     19 N16        -0.7340   -0.0580   -1.1910 nh        1 4Y2     -0.843900
     20 H1         -2.6200   -0.6940    0.8090 hc        1 4Y2      0.050367
     21 H2         -2.5940    0.3060    2.3150 hc        1 4Y2      0.050367
     22 H3         -2.5840    1.1210    0.7030 hc        1 4Y2      0.050367
     23 H4          3.8220    1.4980    2.8460 hc        1 4Y2      0.079950
     24 H5          5.2450    1.4020    1.6960 hc        1 4Y2      0.079950
     25 H6         -4.3600   -0.9740   -6.4030 hc        1 4Y2      0.061033
     26 H7         -2.9510   -0.8400   -7.5370 hc        1 4Y2      0.061033
     27 H8         -3.1140   -2.2980   -6.4620 hc        1 4Y2      0.061033
     28 H9          0.5230    1.0100   -2.5450 h1        1 4Y2      0.067200
     29 H10         0.6620   -0.8070   -2.5570 h1        1 4Y2      0.067200
     30 H11         3.8920    0.0330    0.0410 hc        1 4Y2      0.103700
     31 H12         3.7690   -1.0670    3.0060 hc        1 4Y2      0.079950
     32 H13         5.1920   -1.1730    1.8570 hc        1 4Y2      0.079950
     33 H14        -2.1390    3.2170   -4.2140 hc        1 4Y2      0.054700
     34 H15        -0.3660    2.8360   -4.1140 hc        1 4Y2      0.054700
     35 H16        -1.4310    2.5810   -2.6660 hc        1 4Y2      0.054700
     36 H17        -1.6690    0.2890   -1.1610 hn        1 4Y2      0.425800
     37 C13        -3.2680   -1.1920   -6.5220 c3        1 4Y2     -0.134400
@<TRIPOS>BOND
     1    1   12 ar  
     2    1   13 ar  
     3    1   19 1   
     4    2   13 1   
     5    2   20 1   
     6    2   21 1   
     7    2   22 1   
     8    3   14 1   
     9    3   15 1   
    10    3   23 1   
    11    3   24 1   
    12    4   10 1   
    13    4   17 2   
    14    4   37 1   
    15    5    6 2   
    16    5   17 1   
    17    5   18 1   
    18    6    7 1   
    19    6   10 1   
    20    7   19 1   
    21    7   28 1   
    22    7   29 1   
    23    8    9 ar  
    24    8   13 ar  
    25    8   16 1   
    26    9   11 ar  
    27   11   12 ar  
    28   11   14 1   
    29   14   15 1   
    30   14   30 1   
    31   15   31 1   
    32   15   32 1   
    33   18   33 1   
    34   18   34 1   
    35   18   35 1   
    36   19   36 1   
    37   25   37 1   
    38   26   37 1   
    39   27   37 1   
@<TRIPOS>SUBSTRUCTURE
     1 4Y2         1 TEMP              0 ****  ****    0 ROOT
