@<TRIPOS>MOLECULE
4Y8
   11    10     1     0     0
SMALL
bcc


@<TRIPOS>ATOM
      1 O           0.0260    0.2360   -0.2680 o         1 4Y8     -0.530100
      2 C           1.2430    0.0820   -0.1220 c         1 4Y8      0.532100
      3 CM2         1.9140    0.0540    1.2080 c3        1 4Y8     -0.201100
      4 CM1         2.1510   -0.0790   -1.3180 c3        1 4Y8      0.029400
      5 O1          1.4610   -0.4520   -2.4900 oh        1 4Y8     -0.589800
      6 H1          2.1920   -1.0000    1.4570 hc        1 4Y8      0.068700
      7 H2          1.2330    0.4410    2.0050 hc        1 4Y8      0.068700
      8 H3          2.8430    0.6740    1.1860 hc        1 4Y8      0.068700
      9 H4          2.9000   -0.8980   -1.1410 h1        1 4Y8      0.066200
     10 H5          2.6930    0.8920   -1.4900 h1        1 4Y8      0.066200
     11 H6          0.6060    0.0040   -2.4870 ho        1 4Y8      0.421000
@<TRIPOS>BOND
     1    1    2 2   
     2    2    3 1   
     3    2    4 1   
     4    3    6 1   
     5    3    7 1   
     6    3    8 1   
     7    4    5 1   
     8    4    9 1   
     9    4   10 1   
    10    5   11 1   
@<TRIPOS>SUBSTRUCTURE
     1 4Y8         1 TEMP              0 ****  ****    0 ROOT
