@<TRIPOS>MOLECULE
4YB
   60    63     1     0     0
SMALL
bcc


@<TRIPOS>ATOM
      1 C1          0.1680    0.8030   -0.5710 ca        1 4YB      0.442800
      2 C2          1.6090    0.6700   -0.4280 ca        1 4YB     -0.217200
      3 C3          2.2770    1.6490    0.3800 ca        1 4YB      0.761200
      4 C4          0.9700   -0.9760   -1.7170 cc        1 4YB      0.449700
      5 N1          1.5280    2.6400    0.9760 nb        1 4YB     -0.796000
      6 N2         -0.5710    1.7950    0.0110 nb        1 4YB     -0.771000
      7 O1          1.4660   -3.0420   -4.1030 o         1 4YB     -0.863300
      8 O2          1.7310   -1.3640   -5.5060 o         1 4YB     -0.863300
      9 C6          3.2830   -3.2090   -5.6710 ca        1 4YB     -0.087600
     10 C7          4.5400   -2.7640   -5.2340 ca        1 4YB     -0.111000
     11 C8          5.7120   -3.3410   -5.7090 ca        1 4YB     -0.119000
     12 C9          5.6460   -4.3850   -6.6330 ca        1 4YB     -0.139000
     13 C10         4.4080   -4.8390   -7.0710 ca        1 4YB     -0.111000
     14 C11         3.2170   -4.2540   -6.6060 ca        1 4YB     -0.156600
     15 C12         1.9690   -4.8510   -7.1540 c         1 4YB      0.584700
     16 O3          1.5590   -5.9630   -6.8220 o         1 4YB     -0.495100
     17 C13         1.2350   -4.0690   -8.2380 c3        1 4YB     -0.168400
     18 C14         0.9920   -2.6960   -7.6810 c3        1 4YB     -0.183400
     19 C15         0.2430   -1.6770   -8.4630 c         1 4YB      0.584100
     20 O4         -0.2870   -1.7380   -9.5640 o         1 4YB     -0.462100
     21 N3          0.1880   -0.3620   -7.7420 n4        1 4YB     -0.630700
     22 S1         -1.2470   -0.0250   -6.5230 s6        1 4YB      1.651400
     23 O5         -0.6750    0.9220   -5.7150 o         1 4YB     -0.593300
     24 O6         -2.2760    0.2310   -7.3910 o         1 4YB     -0.593300
     25 O7         -1.3890   -1.5190   -5.9190 os        1 4YB     -0.519500
     26 C16        -1.0080   -1.8370   -4.5850 c3        1 4YB      0.129400
     27 C17        -2.2070   -1.7330   -3.6450 c3        1 4YB      0.110100
     28 O8         -1.7330   -1.8630   -2.2980 os        1 4YB     -0.379600
     29 C18        -2.9720   -0.3980   -3.6970 c3        1 4YB      0.133100
     30 O9         -2.8370    0.1930   -4.9840 oh        1 4YB     -0.702800
     31 C19        -2.3170    0.4680   -2.5990 c3        1 4YB      0.074100
     32 O10        -3.3530    1.1270   -1.9080 oh        1 4YB     -0.598800
     33 C20        -1.5990   -0.5750   -1.6750 c3        1 4YB      0.232800
     34 N4         -0.2200   -0.2580   -1.4090 na        1 4YB     -0.308000
     35 N5          2.0620   -0.4440   -1.1540 nd        1 4YB     -0.548100
     36 C21         0.1890    2.6390    0.7490 ca        1 4YB      0.686900
     37 N6          3.6370    1.6030    0.5350 nh        1 4YB     -0.958500
     38 H1          0.9570   -1.8650   -2.3830 h5        1 4YB      0.136800
     39 H6          4.3530   -5.6780   -7.7820 ha        1 4YB      0.133000
     40 H7          1.8740   -4.0360   -9.1580 hc        1 4YB      0.079700
     41 H8          0.2770   -4.5880   -8.4990 hc        1 4YB      0.079700
     42 H9          2.0110   -2.2400   -7.4660 hc        1 4YB      0.135200
     43 H10         0.4430   -2.8170   -6.6940 hc        1 4YB      0.135200
     44 H11         0.1920    0.3830   -8.4310 hn        1 4YB      0.474300
     45 H12        -0.6390   -2.9060   -4.6390 h1        1 4YB      0.140700
     46 H13        -0.1380   -1.1950   -4.2590 h1        1 4YB      0.140700
     47 H14        -2.9010   -2.6040   -3.7970 h1        1 4YB      0.106700
     48 H15        -4.0660   -0.5490   -3.4830 h1        1 4YB      0.098700
     49 H16        -3.3560    1.0090   -4.9930 ho        1 4YB      0.474000
     50 H17        -1.6010    1.2090   -3.0490 h1        1 4YB      0.094700
     51 H18        -2.9380    1.6660   -1.2180 ho        1 4YB      0.445000
     52 H19        -2.1500   -0.6630   -0.6880 h2        1 4YB      0.108700
     53 H20        -0.3640    3.4620    1.2510 h5        1 4YB      0.048100
     54 H21         4.0980    2.2350    1.1400 hn        1 4YB      0.449300
     55 H22         4.1330    0.8380    0.1500 hn        1 4YB      0.449300
     56 H3          4.5830   -1.9450   -4.4980 ha        1 4YB      0.150000
     57 C5          2.0960   -2.5080   -5.0530 c         1 4YB      0.919200
     58 H4          6.6890   -2.9810   -5.3530 ha        1 4YB      0.132000
     59 H32         1.0490   -0.2960   -7.1670 hn        1 4YB      0.474300
     60 H5          6.5680   -4.8540   -7.0060 ha        1 4YB      0.132000
@<TRIPOS>BOND
     1    1    2 ar  
     2    1    6 ar  
     3    1   34 1   
     4    2    3 ar  
     5    2   35 1   
     6    3    5 ar  
     7    3   37 1   
     8    4   34 1   
     9    4   35 2   
    10    4   38 1   
    11    5   36 ar  
    12    6   36 ar  
    13    7   57 1   
    14    8   57 1   
    15    9   10 ar  
    16    9   14 ar  
    17    9   57 1   
    18   10   11 ar  
    19   10   56 1   
    20   11   12 ar  
    21   11   58 1   
    22   12   13 ar  
    23   12   60 1   
    24   13   14 ar  
    25   13   39 1   
    26   14   15 1   
    27   15   16 2   
    28   15   17 1   
    29   17   18 1   
    30   17   40 1   
    31   17   41 1   
    32   18   19 1   
    33   18   42 1   
    34   18   43 1   
    35   19   20 2   
    36   19   21 1   
    37   21   22 1   
    38   21   44 1   
    39   21   59 1   
    40   22   23 2   
    41   22   24 2   
    42   22   25 1   
    43   25   26 1   
    44   26   27 1   
    45   26   45 1   
    46   26   46 1   
    47   27   28 1   
    48   27   29 1   
    49   27   47 1   
    50   28   33 1   
    51   29   30 1   
    52   29   31 1   
    53   29   48 1   
    54   30   49 1   
    55   31   32 1   
    56   31   33 1   
    57   31   50 1   
    58   32   51 1   
    59   33   34 1   
    60   33   52 1   
    61   36   53 1   
    62   37   54 1   
    63   37   55 1   
@<TRIPOS>SUBSTRUCTURE
     1 4YB         1 TEMP              0 ****  ****    0 ROOT
