@<TRIPOS>MOLECULE
4YC
   47    49     1     0     0
SMALL
bcc


@<TRIPOS>ATOM
      1 C1         -0.0190    0.0320    0.9180 c3        1 4YC     -0.256000
      2 C2          1.4800   -0.0570    0.6940 c3        1 4YC     -0.075000
      3 C3          2.2220    0.7990    1.7530 c3        1 4YC     -0.076000
      4 N4          3.6560    0.7710    1.5380 n3        1 4YC     -0.265000
      5 C5          4.4180    1.3470    2.6300 c3        1 4YC     -0.125000
      6 C6          5.8410    0.7790    2.7050 c2        1 4YC      0.319000
      7 C10         7.9360   -0.6300    5.4250 c3        1 4YC     -0.041000
      8 C11         8.3290   -2.0830    5.2280 c3        1 4YC     -0.205000
      9 C12         8.9690    0.0780    6.2840 c3        1 4YC     -0.205000
     10 C13         6.5640   -0.5080    6.0180 c2        1 4YC     -0.032000
     11 C14         5.9920   -1.1720    7.0470 c2        1 4YC     -0.182000
     12 C15         4.5800   -1.0560    7.2720 c2        1 4YC      0.035000
     13 C16         3.7880   -0.3450    6.3970 c2        1 4YC     -0.185000
     14 C19         5.7650    0.4950    5.2180 c3        1 4YC     -0.014000
     15 C21         3.3380    0.4210   -0.8830 c3        1 4YC     -0.130000
     16 O7          6.5090    0.5470    1.6760 o         1 4YC     -0.376000
     17 N8          6.4520    0.6620    3.9470 n         1 4YC     -0.291000
     18 C9          7.7950    0.0850    4.0430 c3        1 4YC     -0.040000
     19 C18         4.3030    0.3600    5.2900 c1        1 4YC     -0.109000
     20 C20         4.0250    1.2480    0.2180 c3        1 4YC     -0.100000
     21 N22         1.8540    0.3830   -0.7030 ny        1 4YC     -0.040000
     22 H23         1.9990    0.3420    2.7610 h1        1 4YC      0.117500
     23 H25        -0.3850    1.0850    0.8530 hc        1 4YC      0.117667
     24 H24        -0.5820   -0.5970    0.1860 hc        1 4YC      0.117667
     25 H26        -0.2410   -0.3500    1.9470 hc        1 4YC      0.117667
     26 H27         1.8210   -1.1330    0.7850 hx        1 4YC      0.159000
     27 H28         1.7950    1.8440    1.7390 h1        1 4YC      0.117500
     28 H30         3.8690    1.1290    3.6160 h1        1 4YC      0.155000
     29 H29         4.5340    2.4650    2.5220 h1        1 4YC      0.155000
     30 H35         7.5780   -2.6140    4.5960 hc        1 4YC      0.090500
     31 H33         9.3250   -2.1400    4.7250 hc        1 4YC      0.090500
     32 H34         8.3980   -2.6000    6.2160 hc        1 4YC      0.090500
     33 H37         9.0360   -0.4090    7.2860 hc        1 4YC      0.090500
     34 H36         8.6970    1.1520    6.4220 hc        1 4YC      0.090500
     35 H38         9.9720    0.0240    5.7930 hc        1 4YC      0.090500
     36 H39         6.5710   -1.8520    7.6930 ha        1 4YC      0.165000
     37 H40         4.1490   -1.5970    8.1340 ha        1 4YC      0.165000
     38 H44         3.7170   -0.6400   -0.8590 hx        1 4YC      0.149500
     39 H45         3.5610    0.8760   -1.8890 hx        1 4YC      0.149500
     40 H32         8.5400    0.9220    3.9550 h1        1 4YC      0.116500
     41 H31         7.9710   -0.6370    3.1980 h1        1 4YC      0.116500
     42 H41         5.8730    1.5000    5.7900 h1        1 4YC      0.184000
     43 H43         3.7800    2.3400    0.0670 h1        1 4YC      0.131000
     44 H42         5.1430    1.1140    0.0930 h1        1 4YC      0.131000
     45 H47         1.4700    1.3200   -0.8630 hn        1 4YC      0.240000
     46 H46         1.4360   -0.2600   -1.3810 hn        1 4YC      0.240000
     47 Cl1         2.0990   -0.3400    6.6050 cl        1 4YC      0.005000
@<TRIPOS>BOND
     1    1    2 1   
     2    1   23 1   
     3    1   24 1   
     4    1   25 1   
     5    2    3 1   
     6    2   21 1   
     7    2   26 1   
     8    3    4 1   
     9    3   22 1   
    10    3   27 1   
    11    4    5 1   
    12    4   20 1   
    13    5    6 1   
    14    5   28 1   
    15    5   29 1   
    16    6   16 1   
    17    6   17 1   
    18    7    8 1   
    19    7    9 1   
    20    7   10 1   
    21    7   18 1   
    22    8   30 1   
    23    8   31 1   
    24    8   32 1   
    25    9   33 1   
    26    9   34 1   
    27    9   35 1   
    28   10   11 1   
    29   10   14 1   
    30   11   12 1   
    31   11   36 1   
    32   12   13 1   
    33   12   37 1   
    34   13   19 1   
    35   13   47 1   
    36   14   17 1   
    37   14   19 1   
    38   14   42 1   
    39   15   20 1   
    40   15   21 1   
    41   15   38 1   
    42   15   39 1   
    43   17   18 1   
    44   18   40 1   
    45   18   41 1   
    46   20   43 1   
    47   20   44 1   
    48   21   45 1   
    49   21   46 1   
@<TRIPOS>SUBSTRUCTURE
     1 4YC         1 TEMP              0 ****  ****    0 ROOT
