@<TRIPOS>MOLECULE
4YC
   47    49     1     0     0
SMALL
bcc


@<TRIPOS>ATOM
      1 C1          0.1660   -0.6570    0.1520 c3        1 4YC     -0.139100
      2 C2          1.6590   -0.3800    0.1120 c3        1 4YC      0.124500
      3 C3          2.1320    0.1390    1.4950 c3        1 4YC      0.157800
      4 N4          3.5480    0.4580    1.4780 n3        1 4YC     -0.744600
      5 C5          4.1080    0.7050    2.7950 c3        1 4YC      0.110800
      6 C6          5.6370    0.5710    2.8410 c         1 4YC      0.664100
      7 C10         7.9300   -0.6790    5.4730 c3        1 4YC     -0.013700
      8 C11         8.2450   -2.1470    5.2620 c3        1 4YC     -0.086600
      9 C12         9.0640    0.0010    6.2160 c3        1 4YC     -0.086600
     10 C13         6.6150   -0.4930    6.1850 ca        1 4YC     -0.105300
     11 C14         6.2690   -0.8410    7.4760 ca        1 4YC     -0.073000
     12 C15         4.9920   -0.5190    7.9570 ca        1 4YC     -0.130000
     13 C16         4.0980    0.1700    7.1410 ca        1 4YC      0.037400
     14 C19         5.6790    0.1760    5.3330 ca        1 4YC      0.045600
     15 C21         3.4500    0.9890   -0.9280 c3        1 4YC      0.106800
     16 O7          6.3370    0.6400    1.8110 o         1 4YC     -0.599100
     17 N8          6.2620    0.4400    4.0690 n         1 4YC     -0.353000
     18 C9          7.6790    0.0320    4.1030 c3        1 4YC      0.083000
     19 C18         4.4280    0.5410    5.8260 ca        1 4YC     -0.169000
     20 C20         3.8710    1.4570    0.4760 c3        1 4YC      0.139800
     21 N22         2.0060    0.6080   -0.9780 n4        1 4YC     -0.766000
     22 H23        -0.4180    0.2580    0.4170 hc        1 4YC      0.080033
     23 H25        -0.2030   -1.0560   -0.8240 hc        1 4YC      0.080033
     24 H24        -0.0260   -1.4330    0.9370 hc        1 4YC      0.080033
     25 H26         2.2220   -1.3310   -0.1370 hx        1 4YC      0.122700
     26 H27         1.9540   -0.6950    2.2320 h1        1 4YC      0.073700
     27 H28         1.4880    1.0170    1.7960 h1        1 4YC      0.073700
     28 H30         3.8500    1.7390    3.1710 h1        1 4YC      0.078200
     29 H29         3.6640   -0.0630    3.4960 h1        1 4YC      0.078200
     30 H35         9.2010   -2.2560    4.6940 hc        1 4YC      0.047867
     31 H33         8.3540   -2.6590    6.2480 hc        1 4YC      0.047867
     32 H34         7.4280   -2.6480    4.6890 hc        1 4YC      0.047867
     33 H37         9.2130   -0.4850    7.2110 hc        1 4YC      0.047867
     34 H36         8.8400    1.0820    6.3770 hc        1 4YC      0.047867
     35 H38        10.0110   -0.0870    5.6300 hc        1 4YC      0.047867
     36 H39         6.9890   -1.3620    8.1260 ha        1 4YC      0.155000
     37 H40         4.7090   -0.8000    8.9840 ha        1 4YC      0.162000
     38 H44         3.6240    1.8210   -1.6670 hx        1 4YC      0.114700
     39 H45         4.0590    0.0880   -1.2290 hx        1 4YC      0.114700
     40 H32         7.9030   -0.6520    3.2410 h1        1 4YC      0.075700
     41 H31         8.3110    0.9550    4.0080 h1        1 4YC      0.075700
     42 H41         3.7130    1.1360    5.2420 ha        1 4YC      0.139000
     43 H43         4.9950    1.5980    0.4550 h1        1 4YC      0.094700
     44 H42         3.3920    2.4570    0.6940 h1        1 4YC      0.094700
     45 H47         1.4290    1.4460   -0.8550 hn        1 4YC      0.447300
     46 H46         1.7860    0.1930   -1.8880 hn        1 4YC      0.447300
     47 CL1         2.5630    0.5900    7.7370 cl        1 4YC     -0.079400
@<TRIPOS>BOND
     1    1    2 1   
     2    1   22 1   
     3    1   23 1   
     4    1   24 1   
     5    2    3 1   
     6    2   21 1   
     7    2   25 1   
     8    3    4 1   
     9    3   26 1   
    10    3   27 1   
    11    4    5 1   
    12    4   20 1   
    13    5    6 1   
    14    5   28 1   
    15    5   29 1   
    16    6   16 2   
    17    6   17 1   
    18    7    8 1   
    19    7    9 1   
    20    7   10 1   
    21    7   18 1   
    22    8   30 1   
    23    8   31 1   
    24    8   32 1   
    25    9   33 1   
    26    9   34 1   
    27    9   35 1   
    28   10   11 ar  
    29   10   14 ar  
    30   11   12 ar  
    31   11   36 1   
    32   12   13 ar  
    33   12   37 1   
    34   13   19 ar  
    35   13   47 1   
    36   14   17 1   
    37   14   19 ar  
    38   15   20 1   
    39   15   21 1   
    40   15   38 1   
    41   15   39 1   
    42   17   18 1   
    43   18   40 1   
    44   18   41 1   
    45   19   42 1   
    46   20   43 1   
    47   20   44 1   
    48   21   45 1   
    49   21   46 1   
@<TRIPOS>SUBSTRUCTURE
     1 4YC         1 TEMP              0 ****  ****    0 ROOT
