@<TRIPOS>MOLECULE
4YD
   37    38     1     0     0
SMALL
bcc


@<TRIPOS>ATOM
      1 C1          0.0310   -0.1880    0.3450 c3        1 4YD     -0.139100
      2 C2          1.5440   -0.1090    0.2410 c3        1 4YD      0.124500
      3 C3          2.1370    0.3930    1.5850 c3        1 4YD      0.158800
      4 N4          3.5790    0.5240    1.5040 n3        1 4YD     -0.745600
      5 C5          4.2320    0.7320    2.7830 c3        1 4YD      0.114800
      6 C6          5.7190    0.3300    2.7610 c         1 4YD      0.663100
      7 C10         6.6620   -0.6260    6.2310 c3        1 4YD     -0.090400
      8 C11         7.9840   -0.7580    5.4810 c3        1 4YD     -0.090400
      9 C12         7.6680   -0.5430    3.9930 c3        1 4YD      0.086500
     10 C13         3.9840    1.4390    0.4530 c3        1 4YD      0.137800
     11 C14         3.4530    0.9790   -0.9150 c3        1 4YD      0.106800
     12 O7          6.4300    0.5280    1.7530 o         1 4YD     -0.619100
     13 N8          6.2430   -0.2560    3.8860 n         1 4YD     -0.456800
     14 C9          5.5870   -0.3070    5.1780 c3        1 4YD      0.086500
     15 N15         1.9710    0.7850   -0.9000 n4        1 4YD     -0.766000
     16 H16        -0.2270   -0.9040    1.1670 hc        1 4YD      0.079367
     17 H18        -0.4250   -0.5700   -0.6010 hc        1 4YD      0.079367
     18 H17        -0.4200    0.8040    0.5940 hc        1 4YD      0.079367
     19 H19         1.9700   -1.1330    0.0130 hx        1 4YD      0.122700
     20 H20         1.6230    1.3570    1.8730 h1        1 4YD      0.071200
     21 H21         1.8820   -0.3850    2.3600 h1        1 4YD      0.071200
     22 H23         3.6780    0.1210    3.5520 h1        1 4YD      0.068700
     23 H22         4.2020    1.8160    3.1040 h1        1 4YD      0.068700
     24 H26         6.7120    0.1920    6.9910 hc        1 4YD      0.063700
     25 H28         8.7210    0.0040    5.8340 hc        1 4YD      0.063700
     26 H29         8.4340   -1.7690    5.6370 hc        1 4YD      0.063700
     27 H30         8.2660    0.3060    3.5620 h1        1 4YD      0.053450
     28 H31         7.8960   -1.4660    3.3920 h1        1 4YD      0.053450
     29 H33         5.1160    1.4400    0.3880 h1        1 4YD      0.097700
     30 H32         3.6400    2.4970    0.6480 h1        1 4YD      0.097700
     31 H34         3.9290   -0.0030   -1.2010 hx        1 4YD      0.114700
     32 H35         3.7010    1.7540   -1.6940 hx        1 4YD      0.114700
     33 H25         4.7980   -1.1090    5.1650 h1        1 4YD      0.053450
     34 H24         5.0870    0.6740    5.4080 h1        1 4YD      0.053450
     35 H37         1.6640    0.3680   -1.7840 hn        1 4YD      0.446800
     36 H36         1.5110    1.6940   -0.7910 hn        1 4YD      0.446800
     37 H27         6.4070   -1.5750    6.7640 hc        1 4YD      0.063700
@<TRIPOS>BOND
     1    1    2 1   
     2    1   16 1   
     3    1   17 1   
     4    1   18 1   
     5    2    3 1   
     6    2   15 1   
     7    2   19 1   
     8    3    4 1   
     9    3   20 1   
    10    3   21 1   
    11    4    5 1   
    12    4   10 1   
    13    5    6 1   
    14    5   22 1   
    15    5   23 1   
    16    6   12 2   
    17    6   13 1   
    18    7    8 1   
    19    7   14 1   
    20    7   24 1   
    21    7   37 1   
    22    8    9 1   
    23    8   25 1   
    24    8   26 1   
    25    9   13 1   
    26    9   27 1   
    27    9   28 1   
    28   10   11 1   
    29   10   29 1   
    30   10   30 1   
    31   11   15 1   
    32   11   31 1   
    33   11   32 1   
    34   13   14 1   
    35   14   33 1   
    36   14   34 1   
    37   15   35 1   
    38   15   36 1   
@<TRIPOS>SUBSTRUCTURE
     1 4YD         1 TEMP              0 ****  ****    0 ROOT
