@<TRIPOS>MOLECULE
4YD
   37    38     1     0     0
SMALL
bcc


@<TRIPOS>ATOM
      1 C1          0.0490   -0.2050    0.3130 c3        1 4YD     -0.139100
      2 C2          1.5620   -0.1180    0.2200 c3        1 4YD      0.124500
      3 C3          2.1410    0.3840    1.5690 c3        1 4YD      0.158800
      4 N4          3.5830    0.5230    1.5000 n3        1 4YD     -0.745600
      5 C5          4.2250    0.7320    2.7850 c3        1 4YD      0.114800
      6 C6          5.7140    0.3370    2.7740 c         1 4YD      0.663100
      7 C10         6.6360   -0.6230    6.2480 c3        1 4YD     -0.090400
      8 C11         7.9640   -0.7460    5.5070 c3        1 4YD     -0.090400
      9 C12         7.6590   -0.5290    4.0180 c3        1 4YD      0.086500
     10 C13         3.9920    1.4430    0.4540 c3        1 4YD      0.137800
     11 C14         3.4740    0.9830   -0.9190 c3        1 4YD      0.106800
     12 O7          6.4320    0.5420    1.7720 o         1 4YD     -0.619100
     13 N8          6.2330   -0.2490    3.9000 n         1 4YD     -0.456800
     14 C9          5.5670   -0.3070    5.1870 c3        1 4YD      0.086500
     15 N15         1.9920    0.7800   -0.9150 ny        1 4YD     -0.766000
     16 H16        -0.3980   -0.5880   -0.6380 hc        1 4YD      0.079367
     17 H18        -0.4100    0.7830    0.5600 hc        1 4YD      0.079367
     18 H17        -0.2120   -0.9250    1.1310 hc        1 4YD      0.079367
     19 H19         1.9950   -1.1400   -0.0070 hx        1 4YD      0.122700
     20 H20         1.6200    1.3450    1.8550 h1        1 4YD      0.071200
     21 H21         1.8840   -0.3970    2.3410 h1        1 4YD      0.071200
     22 H23         3.6680    0.1170    3.5490 h1        1 4YD      0.068700
     23 H22         4.1870    1.8140    3.1080 h1        1 4YD      0.068700
     24 H26         6.3820   -1.5750    6.7760 hc        1 4YD      0.063700
     25 H28         8.4180   -1.7550    5.6650 hc        1 4YD      0.063700
     26 H29         8.6940    0.0190    5.8680 hc        1 4YD      0.063700
     27 H30         7.8960   -1.4490    3.4160 h1        1 4YD      0.053450
     28 H31         8.2560    0.3250    3.5930 h1        1 4YD      0.053450
     29 H33         5.1240    1.4500    0.3990 h1        1 4YD      0.097700
     30 H32         3.6410    2.4990    0.6490 h1        1 4YD      0.097700
     31 H34         3.7240    1.7610   -1.6940 hx        1 4YD      0.114700
     32 H35         3.9580    0.0040   -1.2030 hx        1 4YD      0.114700
     33 H25         5.0600    0.6710    5.4160 h1        1 4YD      0.053450
     34 H24         4.7820   -1.1130    5.1660 h1        1 4YD      0.053450
     35 H37         1.6940    0.3640   -1.8020 hn        1 4YD      0.446800
     36 H36         1.5270    1.6880   -0.8090 hn        1 4YD      0.446800
     37 H27         6.6760    0.1930    7.0100 hc        1 4YD      0.063700
@<TRIPOS>BOND
     1    1    2 1   
     2    1   16 1   
     3    1   17 1   
     4    1   18 1   
     5    2    3 1   
     6    2   15 1   
     7    2   19 1   
     8    3    4 1   
     9    3   20 1   
    10    3   21 1   
    11    4    5 1   
    12    4   10 1   
    13    5    6 1   
    14    5   22 1   
    15    5   23 1   
    16    6   12 2   
    17    6   13 1   
    18    7    8 1   
    19    7   14 1   
    20    7   24 1   
    21    7   37 1   
    22    8    9 1   
    23    8   25 1   
    24    8   26 1   
    25    9   13 1   
    26    9   27 1   
    27    9   28 1   
    28   10   11 1   
    29   10   29 1   
    30   10   30 1   
    31   11   15 1   
    32   11   31 1   
    33   11   32 1   
    34   13   14 1   
    35   14   33 1   
    36   14   34 1   
    37   15   35 1   
    38   15   36 1   
@<TRIPOS>SUBSTRUCTURE
     1 4YD         1 TEMP              0 ****  ****    0 ROOT
