@<TRIPOS>MOLECULE
4YE
   41    43     1     0     0
SMALL
bcc


@<TRIPOS>ATOM
      1 C1          0.0750   -0.4240    0.1680 c3        1 4YE     -0.139100
      2 C2          1.5820   -0.2430    0.1230 c3        1 4YE      0.124500
      3 C3          2.0920    0.2470    1.5040 c3        1 4YE      0.159800
      4 N4          3.5240    0.4740    1.4820 n3        1 4YE     -0.746600
      5 C5          4.1110    0.6750    2.7950 c3        1 4YE      0.112800
      6 C6          5.6270    0.4330    2.8250 c         1 4YE      0.663100
      7 C10         7.8420   -0.9680    5.4210 c3        1 4YE     -0.049100
      8 C11         6.5670   -0.7060    6.1530 ca        1 4YE     -0.110300
      9 C12         6.2210   -1.0340    7.4480 ca        1 4YE     -0.083000
     10 C13         4.9760   -0.6210    7.9450 ca        1 4YE     -0.133000
     11 C14         4.1160    0.1280    7.1520 ca        1 4YE     -0.107000
     12 C15         4.4500    0.4720    5.8340 ca        1 4YE     -0.165000
     13 C16         5.6660    0.0290    5.3160 ca        1 4YE      0.030600
     14 O7          6.3190    0.4540    1.7870 o         1 4YE     -0.604100
     15 N8          6.2530    0.2600    4.0460 n         1 4YE     -0.353000
     16 C9          7.6390   -0.2500    4.0650 c3        1 4YE      0.082000
     17 C17         3.9080    1.4500    0.4790 c3        1 4YE      0.140800
     18 C18         3.4550    1.0080   -0.9230 c3        1 4YE      0.106800
     19 N19         1.9890    0.7180   -0.9690 n4        1 4YE     -0.766000
     20 H20        -0.3210   -0.8000   -0.8070 hc        1 4YE      0.079700
     21 H22        -0.4490    0.5270    0.4320 hc        1 4YE      0.079700
     22 H21        -0.1640   -1.1850    0.9540 hc        1 4YE      0.079700
     23 H23         2.0830   -1.2290   -0.1240 hx        1 4YE      0.122700
     24 H24         1.8620   -0.5730    2.2440 h1        1 4YE      0.072700
     25 H25         1.5060    1.1650    1.8050 h1        1 4YE      0.072700
     26 H27         3.6220   -0.0620    3.4980 h1        1 4YE      0.077200
     27 H26         3.9300    1.7230    3.1780 h1        1 4YE      0.077200
     28 H31         8.7210   -0.5420    5.9640 hc        1 4YE      0.075200
     29 H32         6.9140   -1.6030    8.0860 ha        1 4YE      0.150000
     30 H33         4.6910   -0.8810    8.9750 ha        1 4YE      0.148000
     31 H34         3.1540    0.4720    7.5620 ha        1 4YE      0.140000
     32 H35         3.7640    1.1100    5.2620 ha        1 4YE      0.125000
     33 H28         8.3340    0.6250    3.9610 h1        1 4YE      0.073200
     34 H29         7.8050   -0.9460    3.1990 h1        1 4YE      0.073200
     35 H37         5.0380    1.5200    0.4560 h1        1 4YE      0.094700
     36 H36         3.4920    2.4780    0.6980 h1        1 4YE      0.094700
     37 H38         4.0050    0.0700   -1.2240 hx        1 4YE      0.114700
     38 H39         3.6780    1.8260   -1.6640 hx        1 4YE      0.114700
     39 H41         1.4660    1.5920   -0.8470 hn        1 4YE      0.446800
     40 H40         1.7410    0.3160   -1.8780 hn        1 4YE      0.446800
     41 H30         8.0140   -2.0630    5.2740 hc        1 4YE      0.075200
@<TRIPOS>BOND
     1    1    2 1   
     2    1   20 1   
     3    1   21 1   
     4    1   22 1   
     5    2    3 1   
     6    2   19 1   
     7    2   23 1   
     8    3    4 1   
     9    3   24 1   
    10    3   25 1   
    11    4    5 1   
    12    4   17 1   
    13    5    6 1   
    14    5   26 1   
    15    5   27 1   
    16    6   14 2   
    17    6   15 1   
    18    7    8 1   
    19    7   16 1   
    20    7   28 1   
    21    7   41 1   
    22    8    9 ar  
    23    8   13 ar  
    24    9   10 ar  
    25    9   29 1   
    26   10   11 ar  
    27   10   30 1   
    28   11   12 ar  
    29   11   31 1   
    30   12   13 ar  
    31   12   32 1   
    32   13   15 1   
    33   15   16 1   
    34   16   33 1   
    35   16   34 1   
    36   17   18 1   
    37   17   35 1   
    38   17   36 1   
    39   18   19 1   
    40   18   37 1   
    41   18   38 1   
    42   19   39 1   
    43   19   40 1   
@<TRIPOS>SUBSTRUCTURE
     1 4YE         1 TEMP              0 ****  ****    0 ROOT
