@<TRIPOS>MOLECULE
4YE
   41    43     1     0     0
SMALL
bcc


@<TRIPOS>ATOM
      1 C1          0.0720   -0.4290    0.1730 c3        1 4YE     -0.139100
      2 C2          1.5780   -0.2450    0.1270 c3        1 4YE      0.124500
      3 C3          2.0900    0.2440    1.5080 c3        1 4YE      0.159800
      4 N4          3.5220    0.4740    1.4830 n3        1 4YE     -0.746600
      5 C5          4.1100    0.6740    2.7950 c3        1 4YE      0.112800
      6 C6          5.6260    0.4360    2.8230 c         1 4YE      0.663100
      7 C10         7.8480   -0.9620    5.4150 c3        1 4YE     -0.049100
      8 C11         6.5740   -0.7030    6.1490 ca        1 4YE     -0.110300
      9 C12         6.2310   -1.0340    7.4440 ca        1 4YE     -0.083000
     10 C13         4.9850   -0.6240    7.9430 ca        1 4YE     -0.133000
     11 C14         4.1220    0.1230    7.1510 ca        1 4YE     -0.107000
     12 C15         4.4530    0.4700    5.8340 ca        1 4YE     -0.165000
     13 C16         5.6690    0.0300    5.3140 ca        1 4YE      0.030600
     14 O7          6.3170    0.4590    1.7840 o         1 4YE     -0.604100
     15 N8          6.2550    0.2630    4.0430 n         1 4YE     -0.353000
     16 C9          7.6420   -0.2430    4.0600 c3        1 4YE      0.082000
     17 C17         3.9020    1.4510    0.4810 c3        1 4YE      0.140800
     18 C18         3.4470    1.0100   -0.9210 c3        1 4YE      0.106800
     19 N19         1.9820    0.7170   -0.9650 ny        1 4YE     -0.766000
     20 H20        -0.3250   -0.8050   -0.8020 hc        1 4YE      0.079700
     21 H22        -0.1650   -1.1910    0.9590 hc        1 4YE      0.079700
     22 H21        -0.4540    0.5210    0.4400 hc        1 4YE      0.079700
     23 H23         2.0800   -1.2300   -0.1220 hx        1 4YE      0.122700
     24 H24         1.5020    1.1600    1.8100 h1        1 4YE      0.072700
     25 H25         1.8620   -0.5770    2.2460 h1        1 4YE      0.072700
     26 H27         3.9270    1.7220    3.1800 h1        1 4YE      0.077200
     27 H26         3.6230   -0.0640    3.4980 h1        1 4YE      0.077200
     28 H31         8.0230   -2.0560    5.2670 hc        1 4YE      0.075200
     29 H32         6.9250   -1.6020    8.0810 ha        1 4YE      0.150000
     30 H33         4.7010   -0.8870    8.9730 ha        1 4YE      0.148000
     31 H34         3.1600    0.4650    7.5630 ha        1 4YE      0.140000
     32 H35         3.7650    1.1060    5.2630 ha        1 4YE      0.125000
     33 H28         8.3350    0.6340    3.9560 h1        1 4YE      0.073200
     34 H29         7.8080   -0.9370    3.1930 h1        1 4YE      0.073200
     35 H37         3.4850    2.4780    0.7000 h1        1 4YE      0.094700
     36 H36         5.0320    1.5230    0.4550 h1        1 4YE      0.094700
     37 H38         3.6690    1.8290   -1.6620 hx        1 4YE      0.114700
     38 H39         3.9980    0.0720   -1.2240 hx        1 4YE      0.114700
     39 H41         1.4580    1.5900   -0.8420 hn        1 4YE      0.446800
     40 H40         1.7340    0.3160   -1.8740 hn        1 4YE      0.446800
     41 H30         8.7270   -0.5340    5.9570 hc        1 4YE      0.075200
@<TRIPOS>BOND
     1    1    2 1   
     2    1   20 1   
     3    1   21 1   
     4    1   22 1   
     5    2    3 1   
     6    2   19 1   
     7    2   23 1   
     8    3    4 1   
     9    3   24 1   
    10    3   25 1   
    11    4    5 1   
    12    4   17 1   
    13    5    6 1   
    14    5   26 1   
    15    5   27 1   
    16    6   14 2   
    17    6   15 1   
    18    7    8 1   
    19    7   16 1   
    20    7   28 1   
    21    7   41 1   
    22    8    9 ar  
    23    8   13 ar  
    24    9   10 ar  
    25    9   29 1   
    26   10   11 ar  
    27   10   30 1   
    28   11   12 ar  
    29   11   31 1   
    30   12   13 ar  
    31   12   32 1   
    32   13   15 1   
    33   15   16 1   
    34   16   33 1   
    35   16   34 1   
    36   17   18 1   
    37   17   35 1   
    38   17   36 1   
    39   18   19 1   
    40   18   37 1   
    41   18   38 1   
    42   19   39 1   
    43   19   40 1   
@<TRIPOS>SUBSTRUCTURE
     1 4YE         1 TEMP              0 ****  ****    0 ROOT
