@<TRIPOS>MOLECULE
4YF
   40    42     1     0     0
SMALL
bcc


@<TRIPOS>ATOM
      1 C1         -0.0400   -0.1380    0.1920 c3        1 4YF     -0.139100
      2 C2          1.4750   -0.0560    0.1320 c3        1 4YF      0.125500
      3 C3          2.0330    0.3410    1.5240 c3        1 4YF      0.158800
      4 N4          3.4770    0.4750    1.4910 n3        1 4YF     -0.746600
      5 C5          4.0860    0.5900    2.8040 c3        1 4YF      0.112800
      6 C6          5.5830    0.2500    2.8100 c         1 4YF      0.671100
      7 C10         7.8230   -1.1580    5.4310 c3        1 4YF     -0.039100
      8 C11         6.5760   -0.8210    6.1740 ca        1 4YF     -0.236600
      9 C12         6.2270   -1.0380    7.5020 ca        1 4YF      0.454200
     10 C14         4.2080    0.0430    7.2130 ca        1 4YF      0.520300
     11 C16         4.4550    0.3290    5.8430 ca        1 4YF     -0.289300
     12 C19         3.4140    1.1090   -0.8900 c3        1 4YF      0.106800
     13 O7          6.2690    0.2410    1.7700 o         1 4YF     -0.589100
     14 N8          6.2050   -0.0130    4.0180 n         1 4YF     -0.367000
     15 C9          7.5760   -0.5640    4.0220 c3        1 4YF      0.086000
     16 N13         5.0500   -0.6240    8.0250 nb        1 4YF     -0.652000
     17 C17         5.6560   -0.1380    5.3100 ca        1 4YF      0.088600
     18 C18         3.9150    1.4620    0.5210 c3        1 4YF      0.140800
     19 N20         1.9320    0.9210   -0.9260 ny        1 4YF     -0.766000
     20 H21         1.7580   -0.4920    2.2320 h1        1 4YF      0.074200
     21 H23        -0.3210   -0.9130    0.9500 hc        1 4YF      0.080700
     22 H22        -0.4720   -0.4460   -0.7920 hc        1 4YF      0.080700
     23 H24        -0.4960    0.8340    0.5030 hc        1 4YF      0.080700
     24 H25         1.9050   -1.0610   -0.1630 hx        1 4YF      0.122700
     25 H26         1.5130    1.2820    1.8720 h1        1 4YF      0.074200
     26 H28         3.5560   -0.1410    3.4840 h1        1 4YF      0.079200
     27 H27         3.9770    1.6320    3.2280 h1        1 4YF      0.079200
     28 H31         7.9850   -2.2640    5.3760 hc        1 4YF      0.080200
     29 H32         8.7230   -0.6920    5.9030 hc        1 4YF      0.080200
     30 H33         6.9000   -1.5650    8.2050 h4        1 4YF      0.048100
     31 H34         3.7280    0.9210    5.2780 ha        1 4YF      0.147000
     32 H37         3.8950    0.1490   -1.2380 hx        1 4YF      0.115700
     33 H38         3.6840    1.9400   -1.6010 hx        1 4YF      0.115700
     34 H29         8.2940    0.2700    3.7990 h1        1 4YF      0.075200
     35 H30         7.6690   -1.3440    3.2200 h1        1 4YF      0.075200
     36 H36         5.0470    1.4540    0.4820 h1        1 4YF      0.094200
     37 H35         3.5750    2.5060    0.7860 h1        1 4YF      0.094200
     38 H40         1.4710    1.8220   -0.7600 hn        1 4YF      0.448300
     39 H39         1.6470    0.5750   -1.8470 hn        1 4YF      0.448300
     40 Cl          2.7230    0.5990    7.8560 cl        1 4YF     -0.134000
@<TRIPOS>BOND
     1    1    2 1   
     2    1   21 1   
     3    1   22 1   
     4    1   23 1   
     5    2    3 1   
     6    2   19 1   
     7    2   24 1   
     8    3    4 1   
     9    3   20 1   
    10    3   25 1   
    11    4    5 1   
    12    4   18 1   
    13    5    6 1   
    14    5   26 1   
    15    5   27 1   
    16    6   13 2   
    17    6   14 1   
    18    7    8 1   
    19    7   15 1   
    20    7   28 1   
    21    7   29 1   
    22    8    9 ar  
    23    8   17 ar  
    24    9   16 ar  
    25    9   30 1   
    26   10   11 ar  
    27   10   16 ar  
    28   10   40 1   
    29   11   17 ar  
    30   11   31 1   
    31   12   18 1   
    32   12   19 1   
    33   12   32 1   
    34   12   33 1   
    35   14   15 1   
    36   14   17 1   
    37   15   34 1   
    38   15   35 1   
    39   18   36 1   
    40   18   37 1   
    41   19   38 1   
    42   19   39 1   
@<TRIPOS>SUBSTRUCTURE
     1 4YF         1 TEMP              0 ****  ****    0 ROOT
