@<TRIPOS>MOLECULE
4YF
   40    42     1     0     0
SMALL
bcc


@<TRIPOS>ATOM
      1 C1          0.0920   -0.4210    0.0520 c3        1 4YF     -0.139100
      2 C2          1.5970   -0.2190    0.0290 c3        1 4YF      0.125500
      3 C3          2.0930    0.1750    1.4450 c3        1 4YF      0.158800
      4 N4          3.5230    0.4230    1.4500 n3        1 4YF     -0.746600
      5 C5          4.0940    0.5430    2.7790 c3        1 4YF      0.112800
      6 C6          5.6120    0.3220    2.8080 c         1 4YF      0.671100
      7 C10         7.9040   -0.9880    5.4360 c3        1 4YF     -0.039100
      8 C11         6.6200   -0.7740    6.1600 ca        1 4YF     -0.236600
      9 C12         6.2620   -1.0610    7.4730 ca        1 4YF      0.454200
     10 C14         4.1690   -0.1340    7.1700 ca        1 4YF      0.520300
     11 C16         4.4200    0.2140    5.8160 ca        1 4YF     -0.289300
     12 C19         3.4580    1.1270   -0.9130 c3        1 4YF      0.106800
     13 O7          6.3180    0.4010    1.7840 o         1 4YF     -0.589100
     14 N8          6.2290    0.0710    4.0220 n         1 4YF     -0.367000
     15 C9          7.6390   -0.3700    4.0400 c3        1 4YF      0.086000
     16 N13         5.0450   -0.7570    7.9810 nb        1 4YF     -0.652000
     17 C17         5.6650   -0.1390    5.2960 ca        1 4YF      0.088600
     18 C18         3.9000    1.4720    0.5200 c3        1 4YF      0.140800
     19 N20         1.9970    0.8250   -0.9880 n4        1 4YF     -0.766000
     20 H21        -0.4460    0.5010    0.3820 hc        1 4YF      0.080700
     21 H23        -0.1410   -1.2410    0.7790 hc        1 4YF      0.080700
     22 H22        -0.2940   -0.7310   -0.9500 hc        1 4YF      0.080700
     23 H24         2.1110   -1.1780   -0.2870 hx        1 4YF      0.122700
     24 H25         1.8710   -0.7000    2.1200 h1        1 4YF      0.074200
     25 H26         1.4940    1.0610    1.8100 h1        1 4YF      0.074200
     26 H28         3.6100   -0.2490    3.4240 h1        1 4YF      0.079200
     27 H27         3.8940    1.5590    3.2320 h1        1 4YF      0.079200
     28 H31         8.7540   -0.4670    5.9420 hc        1 4YF      0.080200
     29 H32         8.1550   -2.0750    5.3510 hc        1 4YF      0.080200
     30 H33         6.9600   -1.5540    8.1740 h4        1 4YF      0.048100
     31 H34         3.6600    0.7650    5.2520 ha        1 4YF      0.147000
     32 H37         4.0210    0.2200   -1.2790 hx        1 4YF      0.115700
     33 H38         3.6760    1.9990   -1.5910 hx        1 4YF      0.115700
     34 H29         7.8100   -1.1150    3.2170 h1        1 4YF      0.075200
     35 H30         8.2920    0.5240    3.8580 h1        1 4YF      0.075200
     36 H36         5.0300    1.5540    0.5070 h1        1 4YF      0.094200
     37 H35         3.4740    2.4770    0.8090 h1        1 4YF      0.094200
     38 H40         1.4620    1.6810   -0.8050 hn        1 4YF      0.448300
     39 H39         1.7580    0.4870   -1.9250 hn        1 4YF      0.448300
     40 CL          2.6320    0.2820    7.7960 cl        1 4YF     -0.134000
@<TRIPOS>BOND
     1    1    2 1   
     2    1   20 1   
     3    1   21 1   
     4    1   22 1   
     5    2    3 1   
     6    2   19 1   
     7    2   23 1   
     8    3    4 1   
     9    3   24 1   
    10    3   25 1   
    11    4    5 1   
    12    4   18 1   
    13    5    6 1   
    14    5   26 1   
    15    5   27 1   
    16    6   13 2   
    17    6   14 1   
    18    7    8 1   
    19    7   15 1   
    20    7   28 1   
    21    7   29 1   
    22    8    9 ar  
    23    8   17 ar  
    24    9   16 ar  
    25    9   30 1   
    26   10   11 ar  
    27   10   16 ar  
    28   10   40 1   
    29   11   17 ar  
    30   11   31 1   
    31   12   18 1   
    32   12   19 1   
    33   12   32 1   
    34   12   33 1   
    35   14   15 1   
    36   14   17 1   
    37   15   34 1   
    38   15   35 1   
    39   18   36 1   
    40   18   37 1   
    41   19   38 1   
    42   19   39 1   
@<TRIPOS>SUBSTRUCTURE
     1 4YF         1 TEMP              0 ****  ****    0 ROOT
