@<TRIPOS>MOLECULE
4YH
   72    73     1     0     0
SMALL
bcc


@<TRIPOS>ATOM
      1 C30        -0.6240   -0.1480    0.3270 c3        1 4YH      0.108700
      2 O19         0.6860    0.3970    0.2000 os        1 4YH     -0.298900
      3 C6          1.4860    0.3140    1.3190 ca        1 4YH      0.108100
      4 C5          1.0170    0.1190    2.6130 ca        1 4YH     -0.179000
      5 C9          2.8820    0.4860    1.0880 ca        1 4YH      0.131100
      6 O23         3.2440    0.6830   -0.2220 os        1 4YH     -0.294900
      7 C32         4.6420    0.8100   -0.4750 c3        1 4YH      0.106700
      8 C13         3.7560    0.4500    2.1710 ca        1 4YH     -0.188000
      9 C11         3.2690    0.2450    3.4670 ca        1 4YH     -0.105000
     10 C2          1.9090    0.0810    3.7040 ca        1 4YH     -0.106300
     11 C1          1.3090   -0.1030    5.0810 c3        1 4YH      0.094400
     12 C15         2.2700   -0.5670    6.2010 c3        1 4YH     -0.051700
     13 C29         2.9980   -1.8450    5.8380 c3        1 4YH     -0.099100
     14 C28         3.2260    0.5120    6.6710 c3        1 4YH     -0.099100
     15 C3          0.2510   -1.1200    4.9900 c1        1 4YH      0.203700
     16 N4         -0.5850   -1.9260    4.9260 n1        1 4YH     -0.363800
     17 C22         0.6460    1.2400    5.4600 c3        1 4YH     -0.077400
     18 C26        -0.1550    1.1750    6.7470 c3        1 4YH     -0.110400
     19 C25        -0.9680    2.4560    6.8920 c3        1 4YH      0.105800
     20 N8         -1.9430    2.4150    8.0340 n4        1 4YH     -0.684400
     21 C27        -1.2420    2.4630    9.3410 c3        1 4YH      0.082100
     22 C16        -2.9410    3.5320    7.9100 c3        1 4YH      0.102800
     23 C21        -4.1590    3.3680    8.8200 c3        1 4YH     -0.037100
     24 C17        -5.1440    4.4340    8.4880 ca        1 4YH     -0.137300
     25 C12        -5.1160    5.6490    9.1920 ca        1 4YH     -0.174000
     26 C18        -6.1010    4.2210    7.4990 ca        1 4YH     -0.108000
     27 C14        -7.0370    5.2120    7.1910 ca        1 4YH     -0.184000
     28 C10        -7.0190    6.4250    7.8780 ca        1 4YH      0.140100
     29 O24        -7.8800    7.4710    7.6620 os        1 4YH     -0.290900
     30 C33        -8.8990    7.2610    6.6850 c3        1 4YH      0.104700
     31 C7         -6.0430    6.6440    8.8970 ca        1 4YH      0.115100
     32 O20        -6.1010    7.8760    9.5050 os        1 4YH     -0.290900
     33 C31        -5.2650    8.0590   10.6430 c3        1 4YH      0.107700
     34 H1         -1.0060   -0.1470   -0.7250 h1        1 4YH      0.047367
     35 H2         -0.5910   -1.1860    0.7370 h1        1 4YH      0.047367
     36 H3         -1.2540    0.5090    0.9740 h1        1 4YH      0.047367
     37 H4         -0.0610   -0.0180    2.7810 ha        1 4YH      0.138000
     38 H5          5.0550    1.7100    0.0410 h1        1 4YH      0.051367
     39 H6          5.1860   -0.1120   -0.1590 h1        1 4YH      0.051367
     40 H7          4.6870    0.9360   -1.5880 h1        1 4YH      0.051367
     41 H8          4.8390    0.5730    2.0200 ha        1 4YH      0.151000
     42 H9          4.0040    0.2070    4.2850 ha        1 4YH      0.142000
     43 H10         1.6060   -0.8210    7.0830 hc        1 4YH      0.036700
     44 H11         3.7300   -1.6880    5.0110 hc        1 4YH      0.046867
     45 H12         3.5540   -2.2260    6.7300 hc        1 4YH      0.046867
     46 H13         2.2710   -2.6290    5.5140 hc        1 4YH      0.046867
     47 H14         2.7730    1.0920    7.5120 hc        1 4YH      0.046867
     48 H15         4.1750    0.0520    7.0410 hc        1 4YH      0.046867
     49 H16         3.4820    1.2380    5.8630 hc        1 4YH      0.046867
     50 H17         1.4500    2.0170    5.5540 hc        1 4YH      0.069200
     51 H18        -0.0250    1.5470    4.6130 hc        1 4YH      0.069200
     52 H19        -0.8340    0.2810    6.7290 hc        1 4YH      0.070200
     53 H20         0.5450    1.0560    7.6170 hc        1 4YH      0.070200
     54 H21        -0.2840    3.3370    7.0530 hx        1 4YH      0.103200
     55 H22        -1.5600    2.6310    5.9460 hx        1 4YH      0.103200
     56 H24        -0.6740    3.4270    9.4300 hx        1 4YH      0.102700
     57 H25        -1.9960    2.3960   10.1710 hx        1 4YH      0.102700
     58 H26        -0.5280    1.5990    9.4150 hx        1 4YH      0.102700
     59 H27        -2.4110    4.4980    8.1440 hx        1 4YH      0.106200
     60 H28        -3.2910    3.5640    6.8370 hx        1 4YH      0.106200
     61 H29        -4.6270    2.3580    8.6700 hc        1 4YH      0.065700
     62 H30        -3.8560    3.4490    9.8980 hc        1 4YH      0.065700
     63 H31        -4.3690    5.8050    9.9840 ha        1 4YH      0.137000
     64 H32        -6.1380    3.2640    6.9570 ha        1 4YH      0.131000
     65 H33        -7.7880    5.0220    6.4100 ha        1 4YH      0.155000
     66 H34        -8.4480    7.0930    5.6770 h1        1 4YH      0.054700
     67 H35        -9.5530    6.4040    6.9760 h1        1 4YH      0.054700
     68 H36        -9.4720    8.2240    6.7080 h1        1 4YH      0.054700
     69 H37        -5.4780    7.2890   11.4230 h1        1 4YH      0.049700
     70 H38        -4.1880    8.0330   10.3450 h1        1 4YH      0.049700
     71 H39        -5.5490    9.0810   11.0050 h1        1 4YH      0.049700
     72 H81        -2.4570    1.5240    7.9810 hn        1 4YH      0.447800
@<TRIPOS>BOND
     1    1    2 1   
     2    1   34 1   
     3    1   35 1   
     4    1   36 1   
     5    2    3 1   
     6    3    4 ar  
     7    3    5 ar  
     8    4   10 ar  
     9    4   37 1   
    10    5    6 1   
    11    5    8 ar  
    12    6    7 1   
    13    7   38 1   
    14    7   39 1   
    15    7   40 1   
    16    8    9 ar  
    17    8   41 1   
    18    9   10 ar  
    19    9   42 1   
    20   10   11 1   
    21   11   12 1   
    22   11   15 1   
    23   11   17 1   
    24   12   13 1   
    25   12   14 1   
    26   12   43 1   
    27   13   44 1   
    28   13   45 1   
    29   13   46 1   
    30   14   47 1   
    31   14   48 1   
    32   14   49 1   
    33   15   16 3   
    34   17   18 1   
    35   17   50 1   
    36   17   51 1   
    37   18   19 1   
    38   18   52 1   
    39   18   53 1   
    40   19   20 1   
    41   19   54 1   
    42   19   55 1   
    43   20   21 1   
    44   20   22 1   
    45   20   72 1   
    46   21   56 1   
    47   21   57 1   
    48   21   58 1   
    49   22   23 1   
    50   22   59 1   
    51   22   60 1   
    52   23   24 1   
    53   23   61 1   
    54   23   62 1   
    55   24   25 ar  
    56   24   26 ar  
    57   25   31 ar  
    58   25   63 1   
    59   26   27 ar  
    60   26   64 1   
    61   27   28 ar  
    62   27   65 1   
    63   28   29 1   
    64   28   31 ar  
    65   29   30 1   
    66   30   66 1   
    67   30   67 1   
    68   30   68 1   
    69   31   32 1   
    70   32   33 1   
    71   33   69 1   
    72   33   70 1   
    73   33   71 1   
@<TRIPOS>SUBSTRUCTURE
     1 4YH         1 TEMP              0 ****  ****    0 ROOT
