@<TRIPOS>MOLECULE
4YH
   72    73     1     0     0
SMALL
bcc


@<TRIPOS>ATOM
      1 C30        -0.5890   -0.1340    0.3180 c3        1 4YH      0.108700
      2 O19         0.7240    0.4030    0.1960 os        1 4YH     -0.298900
      3 C6          1.5200    0.3150    1.3180 ca        1 4YH      0.108100
      4 C5          1.0440    0.1230    2.6100 ca        1 4YH     -0.179000
      5 C9          2.9170    0.4800    1.0930 ca        1 4YH      0.131100
      6 O23         3.2860    0.6750   -0.2160 os        1 4YH     -0.294900
      7 C32         4.6850    0.7940   -0.4640 c3        1 4YH      0.106700
      8 C13         3.7870    0.4390    2.1790 ca        1 4YH     -0.188000
      9 C11         3.2940    0.2360    3.4730 ca        1 4YH     -0.105000
     10 C2          1.9320    0.0800    3.7050 ca        1 4YH     -0.106300
     11 C1          1.3250   -0.1000    5.0800 c3        1 4YH      0.094400
     12 C15         2.2790   -0.5700    6.2030 c3        1 4YH     -0.051700
     13 C29         3.0010   -1.8520    5.8420 c3        1 4YH     -0.099100
     14 C28         3.2390    0.5020    6.6770 c3        1 4YH     -0.099100
     15 C3          0.2610   -1.1110    4.9840 c1        1 4YH      0.203700
     16 N4         -0.5790   -1.9120    4.9170 n1        1 4YH     -0.363800
     17 C22         0.6680    1.2470    5.4560 c3        1 4YH     -0.077400
     18 C26        -0.1380    1.1850    6.7400 c3        1 4YH     -0.110400
     19 C25        -0.9440    2.4710    6.8830 c3        1 4YH      0.105800
     20 N8         -1.9260    2.4350    8.0180 nx        1 4YH     -0.684400
     21 C27        -1.2330    2.4700    9.3300 c3        1 4YH      0.082100
     22 C16        -2.9120    3.5610    7.8940 c3        1 4YH      0.102800
     23 C21        -4.1420    3.4010    8.7900 c3        1 4YH     -0.037100
     24 C17        -5.1120    4.4790    8.4590 ca        1 4YH     -0.137300
     25 C12        -5.0900    5.6810    9.1860 ca        1 4YH     -0.174000
     26 C18        -6.0510    4.2920    7.4470 ca        1 4YH     -0.108000
     27 C14        -6.9730    5.2950    7.1390 ca        1 4YH     -0.184000
     28 C10        -6.9620    6.4950    7.8500 ca        1 4YH      0.140100
     29 O24        -7.8120    7.5510    7.6360 os        1 4YH     -0.290900
     30 C33        -8.8120    7.3660    6.6350 c3        1 4YH      0.104700
     31 C7         -6.0050    6.6870    8.8910 ca        1 4YH      0.115100
     32 O20        -6.0680    7.9090    9.5210 os        1 4YH     -0.290900
     33 C31        -5.2530    8.0640   10.6790 c3        1 4YH      0.107700
     34 H1         -0.5650   -1.1720    0.7280 h1        1 4YH      0.047367
     35 H2         -0.9680   -0.1300   -0.7360 h1        1 4YH      0.047367
     36 H3         -1.2180    0.5280    0.9630 h1        1 4YH      0.047367
     37 H4         -0.0360   -0.0070    2.7740 ha        1 4YH      0.138000
     38 H5          5.1010    1.6910    0.0550 h1        1 4YH      0.051367
     39 H6          5.2220   -0.1320   -0.1450 h1        1 4YH      0.051367
     40 H7          4.7350    0.9190   -1.5760 h1        1 4YH      0.051367
     41 H8          4.8710    0.5550    2.0320 ha        1 4YH      0.151000
     42 H9          4.0250    0.1940    4.2940 ha        1 4YH      0.142000
     43 H10         1.6100   -0.8210    7.0820 hc        1 4YH      0.036700
     44 H11         3.7370   -1.6990    5.0190 hc        1 4YH      0.046867
     45 H12         2.2710   -2.6320    5.5150 hc        1 4YH      0.046867
     46 H13         3.5510   -2.2370    6.7360 hc        1 4YH      0.046867
     47 H14         2.7860    1.0850    7.5160 hc        1 4YH      0.046867
     48 H15         4.1840    0.0370    7.0510 hc        1 4YH      0.046867
     49 H16         3.5030    1.2270    5.8700 hc        1 4YH      0.046867
     50 H17         0.0030    1.5580    4.6060 hc        1 4YH      0.069200
     51 H18         1.4760    2.0180    5.5530 hc        1 4YH      0.069200
     52 H19        -0.8230    0.2950    6.7180 hc        1 4YH      0.070200
     53 H20         0.5570    1.0610    7.6130 hc        1 4YH      0.070200
     54 H21        -1.5280    2.6520    5.9340 hx        1 4YH      0.103200
     55 H22        -0.2550    3.3470    7.0500 hx        1 4YH      0.103200
     56 H24        -1.9930    2.4090   10.1550 hx        1 4YH      0.102700
     57 H25        -0.5310    1.5970    9.4050 hx        1 4YH      0.102700
     58 H26        -0.6530    3.4260    9.4260 hx        1 4YH      0.102700
     59 H27        -2.3770    4.5200    8.1420 hx        1 4YH      0.106200
     60 H28        -3.2520    3.6060    6.8180 hx        1 4YH      0.106200
     61 H29        -3.8490    3.4670    9.8710 hc        1 4YH      0.065700
     62 H30        -4.6180    2.3970    8.6240 hc        1 4YH      0.065700
     63 H31        -4.3590    5.8160    9.9950 ha        1 4YH      0.137000
     64 H32        -6.0830    3.3460    6.8870 ha        1 4YH      0.131000
     65 H33        -7.7100    5.1250    6.3400 ha        1 4YH      0.155000
     66 H34        -9.3790    8.3320    6.6650 h1        1 4YH      0.054700
     67 H35        -9.4770    6.5080    6.8970 h1        1 4YH      0.054700
     68 H36        -8.3420    7.2130    5.6340 h1        1 4YH      0.054700
     69 H37        -5.5370    9.0800   11.0550 h1        1 4YH      0.049700
     70 H38        -4.1710    8.0360   10.4030 h1        1 4YH      0.049700
     71 H39        -5.4860    7.2810   11.4400 h1        1 4YH      0.049700
     72 H81        -2.4480    1.5490    7.9580 hn        1 4YH      0.447800
@<TRIPOS>BOND
     1    1    2 1   
     2    1   34 1   
     3    1   35 1   
     4    1   36 1   
     5    2    3 1   
     6    3    4 ar  
     7    3    5 ar  
     8    4   10 ar  
     9    4   37 1   
    10    5    6 1   
    11    5    8 ar  
    12    6    7 1   
    13    7   38 1   
    14    7   39 1   
    15    7   40 1   
    16    8    9 ar  
    17    8   41 1   
    18    9   10 ar  
    19    9   42 1   
    20   10   11 1   
    21   11   12 1   
    22   11   15 1   
    23   11   17 1   
    24   12   13 1   
    25   12   14 1   
    26   12   43 1   
    27   13   44 1   
    28   13   45 1   
    29   13   46 1   
    30   14   47 1   
    31   14   48 1   
    32   14   49 1   
    33   15   16 3   
    34   17   18 1   
    35   17   50 1   
    36   17   51 1   
    37   18   19 1   
    38   18   52 1   
    39   18   53 1   
    40   19   20 1   
    41   19   54 1   
    42   19   55 1   
    43   20   21 1   
    44   20   22 1   
    45   20   72 1   
    46   21   56 1   
    47   21   57 1   
    48   21   58 1   
    49   22   23 1   
    50   22   59 1   
    51   22   60 1   
    52   23   24 1   
    53   23   61 1   
    54   23   62 1   
    55   24   25 ar  
    56   24   26 ar  
    57   25   31 ar  
    58   25   63 1   
    59   26   27 ar  
    60   26   64 1   
    61   27   28 ar  
    62   27   65 1   
    63   28   29 1   
    64   28   31 ar  
    65   29   30 1   
    66   30   66 1   
    67   30   67 1   
    68   30   68 1   
    69   31   32 1   
    70   32   33 1   
    71   33   69 1   
    72   33   70 1   
    73   33   71 1   
@<TRIPOS>SUBSTRUCTURE
     1 4YH         1 TEMP              0 ****  ****    0 ROOT
