@<TRIPOS>MOLECULE
4YL
   53    53     1     0     0
SMALL
bcc


@<TRIPOS>ATOM
      1 C1          2.5490    1.4780    0.6180 c         1 4YL      0.566900
      2 C3          3.8030    1.5190    3.3270 c3        1 4YL     -0.117100
      3 C5          3.3980    0.3240    1.1510 c3        1 4YL     -0.061500
      4 C7          5.1930    0.2260   -0.5800 c3        1 4YL      0.081500
      5 C8          5.8810   -0.6560   -1.6060 c3        1 4YL     -0.129100
      6 C11         5.7840    2.8180    1.6070 c3        1 4YL      0.121800
      7 C12         5.0410    3.5510    0.4750 c         1 4YL      0.654500
      8 C15         3.7990    5.5900    0.5250 c2        1 4YL      0.558200
      9 C16         2.6040    6.4330    0.9520 c3        1 4YL     -0.059000
     10 C19         1.3610    5.6070    1.0960 ca        1 4YL     -0.188600
     11 C22        -0.8440    3.9840    1.4760 ca        1 4YL      0.487300
     12 C24        -0.8700    4.9400    0.4400 ca        1 4YL     -0.224300
     13 C25         0.2520    5.7480    0.2510 ca        1 4YL     -0.071000
     14 O2          2.2670    1.5620   -0.5740 o         1 4YL     -0.490100
     15 C4          4.4860    0.7610    2.1950 c3        1 4YL      0.221500
     16 N6          4.0160   -0.4800    0.0470 ny        1 4YL     -0.750000
     17 C9          6.2110    0.6650    0.5030 c3        1 4YL      0.176800
     18 N10         5.6570    1.3860    1.6230 n3        1 4YL     -0.759600
     19 O13         5.3300    3.3170   -0.7110 o         1 4YL     -0.566100
     20 N14         3.9580    4.3610    0.8590 ne        1 4YL     -0.717100
     21 C18         2.4380    7.5350   -0.0930 c3        1 4YL     -0.097100
     22 C20         1.2710    4.6320    2.1160 ca        1 4YL      0.412200
     23 N21         0.2150    3.8260    2.3080 nb        1 4YL     -0.682000
     24 Cl         -2.2060    2.9780    1.6930 cl        1 4YL     -0.131000
     25 H26         1.1280   -0.8450    3.9360 ha        1 4YL      0.001500
     26 H27         1.5920   -0.9050    3.4460 ha        1 4YL      0.001500
     27 H28        -1.7540    5.0430   -0.2060 ha        1 4YL      0.170000
     28 H29         3.4370    2.5260    3.0110 hc        1 4YL      0.072033
     29 H30         4.5220    1.6550    4.1730 hc        1 4YL      0.072033
     30 H32         2.9330    0.9210    3.6960 hc        1 4YL      0.072033
     31 H33         2.6760   -0.3600    1.7030 hx        1 4YL      0.127700
     32 H36         4.7700    1.1500   -1.0900 hx        1 4YL      0.146700
     33 H38         6.7000   -0.0590   -2.0830 hc        1 4YL      0.078033
     34 H37         5.1750   -0.9730   -2.4120 hc        1 4YL      0.078033
     35 H39         6.3340   -1.5630   -1.1370 hc        1 4YL      0.078033
     36 H42         6.8790    3.0600    1.4620 h1        1 4YL      0.097200
     37 H43         5.4770    3.2170    2.6150 h1        1 4YL      0.097200
     38 H45         2.1920    2.1830    1.3990 h4        1 4YL      0.091200
     39 H44         4.5480    6.1620   -0.0720 h4        1 4YL      0.002800
     40 H53         0.2420    6.4890   -0.5640 ha        1 4YL      0.156000
     41 H31         4.8710   -0.2130    2.6440 h1        1 4YL      0.071700
     42 H35         4.3240   -1.3830    0.4190 hn        1 4YL      0.452300
     43 H34         3.3090   -0.6370   -0.6840 hn        1 4YL      0.452300
     44 H40         6.7300   -0.2510    0.9090 h1        1 4YL      0.094200
     45 H41         6.9760    1.3060   -0.0240 h1        1 4YL      0.094200
     46 H48         3.1580    6.3240    3.0720 hc        1 4YL      0.055033
     47 H46         2.1150    7.7380    2.6210 hc        1 4YL      0.055033
     48 H47         3.8720    7.7270    2.1690 hc        1 4YL      0.055033
     49 H50         3.3500    8.1800   -0.1190 hc        1 4YL      0.055033
     50 H49         2.2820    7.1010   -1.1100 hc        1 4YL      0.055033
     51 H51         1.5640    8.1780    0.1700 hc        1 4YL      0.055033
     52 H52         2.0990    4.4840    2.8350 h4        1 4YL      0.025100
     53 C17         2.9610    7.0910    2.2860 c3        1 4YL     -0.097100
@<TRIPOS>BOND
     1    1    3 1   
     2    1   14 2   
     3    1   38 1   
     4    2   15 1   
     5    2   28 1   
     6    2   29 1   
     7    2   30 1   
     8    3   15 1   
     9    3   16 1   
    10    3   31 1   
    11    4    5 1   
    12    4   16 1   
    13    4   17 1   
    14    4   32 1   
    15    5   33 1   
    16    5   34 1   
    17    5   35 1   
    18    6    7 1   
    19    6   18 1   
    20    6   36 1   
    21    6   37 1   
    22    7   19 2   
    23    7   20 1   
    24    8    9 1   
    25    8   20 2   
    26    8   39 1   
    27    9   10 1   
    28    9   21 1   
    29    9   53 1   
    30   10   13 ar  
    31   10   22 ar  
    32   11   12 ar  
    33   11   23 ar  
    34   11   24 1   
    35   12   13 ar  
    36   12   27 1   
    37   13   40 1   
    38   15   18 1   
    39   15   41 1   
    40   16   42 1   
    41   16   43 1   
    42   17   18 1   
    43   17   44 1   
    44   17   45 1   
    45   21   49 1   
    46   21   50 1   
    47   21   51 1   
    48   22   23 ar  
    49   22   52 1   
    50   25   26 1   
    51   46   53 1   
    52   47   53 1   
    53   48   53 1   
@<TRIPOS>SUBSTRUCTURE
     1 4YL         1 TEMP              0 ****  ****    0 ROOT
