@<TRIPOS>MOLECULE
4YM
   53    56     1     0     0
SMALL
bcc


@<TRIPOS>ATOM
      1 C01        -0.3430    0.8350    0.6340 c3        1 4YM     -0.106100
      2 C02         1.0170    0.2920    0.2710 c3        1 4YM      0.143400
      3 O03         1.7630    0.2370    1.5080 os        1 4YM     -0.430900
      4 C04         3.0450   -0.2190    1.4290 c         1 4YM      0.658700
      5 O05         3.4660   -0.5610    0.3170 o         1 4YM     -0.570000
      6 C06         3.7470   -0.2270    2.7210 ca        1 4YM     -0.294900
      7 C07         3.1670    0.5580    3.7720 ca        1 4YM      0.486200
      8 N08         3.6510    0.6930    5.0020 nb        1 4YM     -0.641000
      9 C09         4.7920   -0.0220    5.2400 ca        1 4YM      0.443800
     10 N10         5.5570   -0.1040    6.4160 na        1 4YM     -0.086800
     11 N11         6.5920   -0.9260    6.2750 nc        1 4YM     -0.462100
     12 C12         6.5900   -1.4270    5.0080 cd        1 4YM      0.377500
     13 C13         7.5770   -2.3960    4.5510 ca        1 4YM     -0.069900
     14 C14         7.1700   -3.6720    4.1370 ca        1 4YM     -0.077000
     15 C15         8.1190   -4.6110    3.7300 ca        1 4YM     -0.153000
     16 C16         9.4740   -4.2890    3.7240 ca        1 4YM     -0.149000
     17 C17         9.8850   -3.0120    4.1380 ca        1 4YM     -0.038000
     18 C18        11.2670   -2.6810    4.1350 cg        1 4YM      0.195800
     19 N19        12.3980   -2.4090    4.1310 n1        1 4YM     -0.309800
     20 C20         8.9400   -2.0700    4.5690 ca        1 4YM     -0.077000
     21 C21         5.4610   -0.8760    4.2670 ca        1 4YM     -0.310200
     22 C22         4.9330   -0.9500    2.9560 ca        1 4YM      0.260600
     23 N23         5.6540   -1.7390    2.0140 nh        1 4YM     -0.670000
     24 C24         4.9680   -2.9120    1.4860 c3        1 4YM      0.139800
     25 C25         5.9750   -3.8290    0.7860 c3        1 4YM      0.120400
     26 O26         6.7790   -3.1590   -0.1870 os        1 4YM     -0.427600
     27 C27         7.3090   -1.9000    0.1930 c3        1 4YM      0.131100
     28 C28         8.5810   -2.0830    1.0490 c3        1 4YM      0.048800
     29 N29         9.4570   -3.1830    0.5590 nz        1 4YM     -0.832600
     30 C30         6.3260   -0.9950    0.9580 c3        1 4YM      0.149800
     31 H01        -0.9650    0.8920   -0.2920 hc        1 4YM      0.057033
     32 H01A       -0.8490    0.1710    1.3740 hc        1 4YM      0.057033
     33 H01B       -0.2550    1.8560    1.0770 hc        1 4YM      0.057033
     34 H02         0.9610   -0.7430   -0.1550 h1        1 4YM      0.057700
     35 H02A        1.5650    0.9600   -0.4440 h1        1 4YM      0.057700
     36 H07         2.2280    1.1190    3.5670 h4        1 4YM      0.068100
     37 HN10        5.3620    0.3330    7.2910 hn        1 4YM      0.358700
     38 H14         6.1000   -3.9340    4.1450 ha        1 4YM      0.160000
     39 H15         7.7950   -5.6250    3.4470 ha        1 4YM      0.154000
     40 H16        10.2250   -5.0490    3.4550 ha        1 4YM      0.151000
     41 H20         9.2680   -1.0840    4.9380 ha        1 4YM      0.172000
     42 H24         4.5030   -3.4740    2.3420 h1        1 4YM      0.081200
     43 H24A        4.1550   -2.6350    0.7530 h1        1 4YM      0.081200
     44 H25         5.4340   -4.6110    0.1880 h1        1 4YM      0.061200
     45 H25A        6.6580   -4.3110    1.5380 h1        1 4YM      0.061200
     46 H27         7.5700   -1.4130   -0.7910 h1        1 4YM      0.102700
     47 H28         8.2850   -2.3370    2.1130 hx        1 4YM      0.123200
     48 H28A        9.1700   -1.1240    1.0530 hx        1 4YM      0.123200
     49 HN29       10.0040   -3.5630    1.3410 hn        1 4YM      0.463467
     50 HN2A        8.8610   -3.9280    0.1650 hn        1 4YM      0.463467
     51 H30         6.8930   -0.1400    1.4200 h1        1 4YM      0.089700
     52 H30A        5.6010   -0.5750    0.1980 h1        1 4YM      0.089700
     53 H293       10.0880   -2.8490   -0.1730 hn        1 4YM      0.463467
@<TRIPOS>BOND
     1    1    2 1   
     2    1   31 1   
     3    1   32 1   
     4    1   33 1   
     5    2    3 1   
     6    2   34 1   
     7    2   35 1   
     8    3    4 1   
     9    4    5 2   
    10    4    6 1   
    11    6    7 ar  
    12    6   22 ar  
    13    7    8 ar  
    14    7   36 1   
    15    8    9 ar  
    16    9   10 1   
    17    9   21 ar  
    18   10   11 1   
    19   10   37 1   
    20   11   12 2   
    21   12   13 1   
    22   12   21 1   
    23   13   14 ar  
    24   13   20 ar  
    25   14   15 ar  
    26   14   38 1   
    27   15   16 ar  
    28   15   39 1   
    29   16   17 ar  
    30   16   40 1   
    31   17   18 1   
    32   17   20 ar  
    33   18   19 3   
    34   20   41 1   
    35   21   22 ar  
    36   22   23 1   
    37   23   24 1   
    38   23   30 1   
    39   24   25 1   
    40   24   42 1   
    41   24   43 1   
    42   25   26 1   
    43   25   44 1   
    44   25   45 1   
    45   26   27 1   
    46   27   28 1   
    47   27   30 1   
    48   27   46 1   
    49   28   29 1   
    50   28   47 1   
    51   28   48 1   
    52   29   49 1   
    53   29   50 1   
    54   29   53 1   
    55   30   51 1   
    56   30   52 1   
@<TRIPOS>SUBSTRUCTURE
     1 4YM         1 TEMP              0 ****  ****    0 ROOT
