@<TRIPOS>MOLECULE
4YM
   52    55     1     0     0
SMALL
bcc


@<TRIPOS>ATOM
      1 C01         6.9230    0.4640    0.4340 c3        1 4YM     -0.101100
      2 C02         5.6870    0.9630   -0.2720 c3        1 4YM      0.138400
      3 O03         4.6660   -0.0270   -0.0390 os        1 4YM     -0.440900
      4 C04         3.4390    0.2230   -0.5950 c         1 4YM      0.654700
      5 O05         3.3050    1.2640   -1.2440 o         1 4YM     -0.539000
      6 C06         2.4690   -0.8530   -0.3460 ca        1 4YM     -0.311900
      7 C07         2.9810   -2.1850   -0.4200 ca        1 4YM      0.480200
      8 N08         2.2670   -3.2990   -0.2870 nb        1 4YM     -0.667000
      9 C09         0.9390   -3.0830   -0.0350 ca        1 4YM      0.435800
     10 N10        -0.0830   -4.0270    0.1500 na        1 4YM     -0.103800
     11 N11        -1.2540   -3.4440    0.4040 nc        1 4YM     -0.498100
     12 C12        -1.0880   -2.0930    0.3940 cd        1 4YM      0.422500
     13 C13        -2.1920   -1.1810    0.6630 ca        1 4YM     -0.101900
     14 C14        -2.0810   -0.2020    1.6590 ca        1 4YM     -0.068000
     15 C15        -3.1600    0.6350    1.9380 ca        1 4YM     -0.146000
     16 C16        -4.3560    0.5060    1.2350 ca        1 4YM     -0.073000
     17 C17        -4.4710   -0.4750    0.2390 ca        1 4YM     -0.026000
     18 C18        -5.6880   -0.6150   -0.4830 cg        1 4YM      0.235800
     19 N19        -6.6840   -0.7290   -1.0730 n1        1 4YM     -0.362800
     20 C20        -3.3920   -1.3210   -0.0460 ca        1 4YM     -0.065000
     21 C21         0.3080   -1.7760    0.1030 ca        1 4YM     -0.306200
     22 C22         1.1050   -0.6210   -0.0720 ca        1 4YM      0.277600
     23 N23         0.4870    0.6570    0.0680 nh        1 4YM     -0.646000
     24 C24         1.0980    1.5150    1.0750 c3        1 4YM      0.139800
     25 C25         0.3310    2.8340    1.2200 c3        1 4YM      0.128400
     26 O26         0.2130    3.5060   -0.0260 os        1 4YM     -0.410600
     27 C27        -0.4020    2.7230   -1.0460 c3        1 4YM      0.098100
     28 C28        -1.9240    2.6280   -0.8310 c3        1 4YM      0.118800
     29 N29        -2.6020    3.8690   -0.5670 n3        1 4YM     -0.893800
     30 C30         0.2340    1.3320   -1.2020 c3        1 4YM      0.147800
     31 H01         7.7460    1.2050    0.2910 hc        1 4YM      0.050033
     32 H01A        6.7290    0.3400    1.5270 hc        1 4YM      0.050033
     33 H01B        7.2430   -0.5210    0.0200 hc        1 4YM      0.050033
     34 H02         5.3340    1.9450    0.1390 h1        1 4YM      0.054200
     35 H02A        5.8440    1.0640   -1.3770 h1        1 4YM      0.054200
     36 H07         4.0640   -2.3320   -0.6060 h4        1 4YM      0.047100
     37 HN10        0.0070   -5.0180    0.1430 hn        1 4YM      0.343700
     38 H14        -1.1380   -0.0920    2.2170 ha        1 4YM      0.145000
     39 H15        -3.0670    1.4050    2.7190 ha        1 4YM      0.141000
     40 H16        -5.2040    1.1730    1.4540 ha        1 4YM      0.150000
     41 H20        -3.4890   -2.0960   -0.8230 ha        1 4YM      0.154000
     42 H24         1.0710    0.9680    2.0580 h1        1 4YM      0.050200
     43 H24A        2.1730    1.7580    0.8330 h1        1 4YM      0.050200
     44 H25        -0.6880    2.6570    1.6570 h1        1 4YM      0.055200
     45 H25A        0.9110    3.5450    1.8650 h1        1 4YM      0.055200
     46 H27        -0.1830    3.3150   -1.9820 h1        1 4YM      0.077700
     47 H28        -2.3730    2.1640   -1.7530 h1        1 4YM      0.063700
     48 H28A       -2.1260    1.9330    0.0370 h1        1 4YM      0.063700
     49 HN29       -2.1920    4.3250    0.2270 hn        1 4YM      0.346800
     50 HN2A       -2.5290    4.4870   -1.3530 hn        1 4YM      0.346800
     51 H30         1.1870    1.4550   -1.7960 h1        1 4YM      0.066700
     52 H30A       -0.4710    0.6800   -1.7920 h1        1 4YM      0.066700
@<TRIPOS>BOND
     1    1    2 1   
     2    1   31 1   
     3    1   32 1   
     4    1   33 1   
     5    2    3 1   
     6    2   34 1   
     7    2   35 1   
     8    3    4 1   
     9    4    5 2   
    10    4    6 1   
    11    6    7 ar  
    12    6   22 ar  
    13    7    8 ar  
    14    7   36 1   
    15    8    9 ar  
    16    9   10 1   
    17    9   21 ar  
    18   10   11 1   
    19   10   37 1   
    20   11   12 2   
    21   12   13 1   
    22   12   21 1   
    23   13   14 ar  
    24   13   20 ar  
    25   14   15 ar  
    26   14   38 1   
    27   15   16 ar  
    28   15   39 1   
    29   16   17 ar  
    30   16   40 1   
    31   17   18 1   
    32   17   20 ar  
    33   18   19 3   
    34   20   41 1   
    35   21   22 ar  
    36   22   23 1   
    37   23   24 1   
    38   23   30 1   
    39   24   25 1   
    40   24   42 1   
    41   24   43 1   
    42   25   26 1   
    43   25   44 1   
    44   25   45 1   
    45   26   27 1   
    46   27   28 1   
    47   27   30 1   
    48   27   46 1   
    49   28   29 1   
    50   28   47 1   
    51   28   48 1   
    52   29   49 1   
    53   29   50 1   
    54   30   51 1   
    55   30   52 1   
@<TRIPOS>SUBSTRUCTURE
     1 4YM         1 TEMP              0 ****  ****    0 ROOT
