@<TRIPOS>MOLECULE
4YM
   52    44     1     0     0
SMALL
bcc


@<TRIPOS>ATOM
      1 C01        -6.1790    2.3210   -2.1520 c2        1 4YM     -0.219000
      2 C02        -4.6860    2.1000   -2.3990 c2        1 4YM     -0.012000
      3 O03        -4.1000    1.4970   -1.2520 os        1 4YM     -0.279000
      4 C04        -2.6800    1.5530   -1.2330 c2        1 4YM      0.355000
      5 O05        -2.0630    1.6720   -2.2750 o         1 4YM     -0.350000
      6 C06        -1.9310    1.5510    0.1040 c2        1 4YM     -0.225000
      7 C07        -2.3920    2.3290    1.1570 c2        1 4YM      0.015000
      8 N08        -1.7970    2.2420    2.3860 n1        1 4YM     -0.142000
      9 C09        -0.7270    1.3730    2.5830 c1        1 4YM      0.045000
     10 N10        -0.0110    1.0410    3.7080 n3        1 4YM     -0.171000
     11 N11         0.8970    0.0570    3.3630 n2        1 4YM     -0.032000
     12 C12         0.7430   -0.2130    2.0420 c1        1 4YM     -0.033000
     13 C13         1.8210   -1.1400    2.6270 c1        1 4YM     -0.016000
     14 C14         3.1440   -0.7120    2.6930 c2        1 4YM     -0.080000
     15 C15         4.1350   -1.5800    3.1420 c1        1 4YM     -0.141000
     16 C16         3.8030   -2.8750    3.5250 c1        1 4YM     -0.072000
     17 C17         2.4810   -3.3030    3.4590 c1        1 4YM     -0.029000
     18 C18         2.1100   -4.6990    3.9330 c1        1 4YM     -0.093000
     19 N19         2.3150   -5.5790    2.9390 n1        1 4YM     -0.042000
     20 C20         1.4900   -2.4350    3.0100 c2        1 4YM     -0.052000
     21 C21        -0.2700    0.6060    1.5510 c1        1 4YM     -0.159000
     22 C22        -0.8760    0.6940    0.2980 c1        1 4YM      0.198000
     23 N23        -0.1410    0.1910   -0.7440 n1        1 4YM     -0.250000
     24 C24        -0.7100   -0.9350   -1.3320 c2        1 4YM     -0.097000
     25 C25         0.2210   -1.7080   -2.2060 c3        1 4YM     -0.023000
     26 O26         0.8410   -0.8400   -3.1460 o         1 4YM     -0.267000
     27 C27         1.4810    0.3210   -2.5610 c2        1 4YM     -0.012000
     28 C28         2.7900   -0.0760   -1.8630 c3        1 4YM     -0.116000
     29 N29         3.8720   -0.0210   -2.8070 n3        1 4YM     -0.326000
     30 C30         0.4710    1.0840   -1.6630 c1        1 4YM     -0.089000
     31 H01        -6.5640    2.8280   -2.9020 ha        1 4YM      0.089333
     32 H01A       -6.3020    2.8260   -1.3180 ha        1 4YM      0.089333
     33 H01B       -6.6310    1.4520   -2.0780 ha        1 4YM      0.089333
     34 H02        -4.2510    2.9640   -2.5730 h4        1 4YM      0.093500
     35 H02A       -4.5660    1.5110   -3.1760 h4        1 4YM      0.093500
     36 H07        -3.1190    2.9720    1.0090 h4        1 4YM      0.184000
     37 HN10       -0.1170    1.4070    4.5430 hn        1 4YM      0.293000
     38 H14         3.3780    0.2020    2.4230 ha        1 4YM      0.147000
     39 H15         5.0680   -1.2780    3.1880 ha        1 4YM      0.144000
     40 H16         4.5020   -3.4880    3.8410 ha        1 4YM      0.150000
     41 H20         0.5580   -2.7370    2.9640 ha        1 4YM      0.151000
     42 H24        -1.0340   -1.5290   -0.6180 ha        1 4YM      0.091000
     43 H24A       -1.4790   -0.6490   -1.8730 ha        1 4YM      0.091000
     44 H25         0.9180   -2.2320   -1.7520 h1        1 4YM      0.098500
     45 H25A       -0.2960   -2.4240   -2.6400 h1        1 4YM      0.098500
     46 H27         1.8180    0.9330   -3.2540 ha        1 4YM      0.116000
     47 H28         2.9690    0.5470   -1.1230 h1        1 4YM      0.101000
     48 H28A        2.7090   -0.9880   -1.5110 h1        1 4YM      0.101000
     49 HN29        3.9700   -0.8400   -3.2080 hn        1 4YM      0.143000
     50 HN2A        3.6890    0.6120   -3.4460 hn        1 4YM      0.143000
     51 H30        -0.1840    1.5770   -2.2030 DU        1 4YM      0.104000
     52 H30A        0.9110    1.8210   -1.1810 DU        1 4YM      0.104000
@<TRIPOS>BOND
     1    1   31 1   
     2    1   32 1   
     3    1   33 1   
     4    2    3 1   
     5    2   34 1   
     6    2   35 1   
     7    3    4 1   
     8    4    5 1   
     9    4    6 1   
    10    6    7 1   
    11    6   22 1   
    12    7    8 1   
    13    7   36 1   
    14    9   10 1   
    15    9   21 1   
    16   10   11 1   
    17   10   37 1   
    18   11   12 1   
    19   12   21 1   
    20   13   14 1   
    21   13   20 1   
    22   14   15 1   
    23   14   38 1   
    24   15   39 1   
    25   16   17 1   
    26   16   40 1   
    27   17   20 1   
    28   18   19 1   
    29   20   41 1   
    30   23   30 1   
    31   24   25 1   
    32   24   42 1   
    33   24   43 1   
    34   25   26 1   
    35   25   44 1   
    36   25   45 1   
    37   27   28 1   
    38   27   30 1   
    39   27   46 1   
    40   28   29 1   
    41   28   47 1   
    42   28   48 1   
    43   29   49 1   
    44   29   50 1   
@<TRIPOS>SUBSTRUCTURE
     1 4YM         1 TEMP              0 ****  ****    0 ROOT
