@<TRIPOS>MOLECULE
4YN
   66    69     1     0     0
SMALL
bcc


@<TRIPOS>ATOM
      1 C1          0.3500    0.2090    1.6710 c3        1 4YN      0.110700
      2 C3          2.5530    0.2580    2.5400 c3        1 4YN      0.123400
      3 C5          4.3770   -0.8220    1.2560 c3        1 4YN      0.100800
      4 C7          6.1430    0.4950    0.0950 c3        1 4YN      0.125500
      5 C8          7.6270    0.5740   -0.2110 c3        1 4YN     -0.138100
      6 C11         3.6620    2.8510    1.7040 c3        1 4YN      0.123800
      7 C12         3.7570    4.0040    0.6990 c         1 4YN      0.673100
      8 C15         3.0990    6.2670   -0.0240 c3        1 4YN      0.090000
      9 C16         2.1810    7.4120    0.5190 c3        1 4YN     -0.001700
     10 C19         1.6700    6.8330    1.8080 ca        1 4YN     -0.234600
     11 C22         0.9460    5.4760    4.0790 ca        1 4YN      0.446600
     12 C23         0.5170    4.7130    5.3060 c3        1 4YN     -0.097400
     13 C24         1.6540    4.0340    5.9870 ca        1 4YN     -0.081300
     14 C25         1.8020    2.6440    5.9060 ca        1 4YN     -0.128500
     15 C26         2.8390    2.0060    6.5850 ca        1 4YN     -0.131500
     16 C27         3.7410    2.7510    7.3450 ca        1 4YN     -0.128000
     17 C28         3.6010    4.1370    7.4260 ca        1 4YN     -0.131500
     18 C31         2.1980    5.5160    2.0170 ca        1 4YN      0.091600
     19 O2          1.7420    0.1450    1.3810 os        1 4YN     -0.427600
     20 C4          4.0140    0.4410    2.0870 c3        1 4YN      0.194500
     21 N6          5.7890   -0.8080    0.7770 n4        1 4YN     -0.763000
     22 C9          5.7190    1.6970    0.9760 c3        1 4YN      0.152800
     23 N10         4.3060    1.6250    1.2870 n3        1 4YN     -0.751600
     24 O13         4.4550    3.9480   -0.3340 o         1 4YN     -0.603100
     25 N14         3.0440    5.1610    0.9490 n         1 4YN     -0.370000
     26 C18         1.0520    7.6890   -0.4540 c3        1 4YN     -0.087100
     27 C20         0.8160    7.3770    2.7610 ca        1 4YN      0.448200
     28 N21         0.4530    6.7170    3.8840 nb        1 4YN     -0.671000
     29 C29         2.5610    4.7760    6.7530 ca        1 4YN     -0.128500
     30 C30         1.8270    4.8280    3.1710 ca        1 4YN     -0.294300
     31 H32        -0.1390    0.0900    0.6710 h1        1 4YN      0.050367
     32 H33         0.0910    1.1980    2.1230 h1        1 4YN      0.050367
     33 H34         0.0560   -0.6220    2.3580 h1        1 4YN      0.050367
     34 H35         2.2250    1.1160    3.1870 h1        1 4YN      0.053200
     35 H36         2.4790   -0.6910    3.1400 h1        1 4YN      0.053200
     36 H39         3.6920   -0.8730    0.3580 hx        1 4YN      0.119700
     37 H38         4.2300   -1.7400    1.8910 hx        1 4YN      0.119700
     38 H42         5.5460    0.5200   -0.8690 hx        1 4YN      0.129700
     39 H44         8.2430    0.5890    0.7220 hc        1 4YN      0.078700
     40 H43         7.9590   -0.2760   -0.8560 hc        1 4YN      0.078700
     41 H45         7.8170    1.5270   -0.7690 hc        1 4YN      0.078700
     42 H48         2.5600    2.6150    1.8100 h1        1 4YN      0.080700
     43 H49         4.0710    3.2200    2.6910 h1        1 4YN      0.080700
     44 H51         2.7410    5.8950   -1.0210 h1        1 4YN      0.072700
     45 H50         4.1620    6.6110   -0.1260 h1        1 4YN      0.072700
     46 H60        -0.2510    3.9580    4.9800 hc        1 4YN      0.079200
     47 H59         0.0120    5.4010    6.0420 hc        1 4YN      0.079200
     48 H61         1.0830    2.0510    5.3220 ha        1 4YN      0.134500
     49 H62         2.9330    0.9120    6.5400 ha        1 4YN      0.133500
     50 H63         4.5520    2.2470    7.8910 ha        1 4YN      0.136000
     51 H64         4.3050    4.7260    8.0320 ha        1 4YN      0.133500
     52 H37         4.6360    0.4360    3.0380 h1        1 4YN      0.042700
     53 H41         6.4200   -0.9360    1.5750 hn        1 4YN      0.443800
     54 H40         5.9370   -1.5800    0.1200 hn        1 4YN      0.443800
     55 H46         5.9270    2.6290    0.3710 h1        1 4YN      0.089700
     56 H47         6.3680    1.7230    1.9010 h1        1 4YN      0.089700
     57 H54         3.8350    8.4720    1.4600 hc        1 4YN      0.048033
     58 H52         2.3420    9.4660    1.1940 hc        1 4YN      0.048033
     59 H53         3.4110    9.0430   -0.2100 hc        1 4YN      0.048033
     60 H56         1.4640    8.0600   -1.4230 hc        1 4YN      0.048033
     61 H55         0.3700    8.4680   -0.0340 hc        1 4YN      0.048033
     62 H57         0.4590    6.7630   -0.6470 hc        1 4YN      0.048033
     63 H58         0.3890    8.3900    2.6400 h4        1 4YN      0.039100
     64 H65         2.4430    5.8690    6.8300 ha        1 4YN      0.134500
     65 H66         2.1850    3.8250    3.4320 ha        1 4YN      0.138000
     66 C17         2.9930    8.6710    0.7560 c3        1 4YN     -0.087100
@<TRIPOS>BOND
     1    1   19 1   
     2    1   31 1   
     3    1   32 1   
     4    1   33 1   
     5    2   19 1   
     6    2   20 1   
     7    2   34 1   
     8    2   35 1   
     9    3   20 1   
    10    3   21 1   
    11    3   36 1   
    12    3   37 1   
    13    4    5 1   
    14    4   21 1   
    15    4   22 1   
    16    4   38 1   
    17    5   39 1   
    18    5   40 1   
    19    5   41 1   
    20    6    7 1   
    21    6   23 1   
    22    6   42 1   
    23    6   43 1   
    24    7   24 2   
    25    7   25 1   
    26    8    9 1   
    27    8   25 1   
    28    8   44 1   
    29    8   45 1   
    30    9   10 1   
    31    9   26 1   
    32    9   66 1   
    33   10   18 ar  
    34   10   27 ar  
    35   11   12 1   
    36   11   28 ar  
    37   11   30 ar  
    38   12   13 1   
    39   12   46 1   
    40   12   47 1   
    41   13   14 ar  
    42   13   29 ar  
    43   14   15 ar  
    44   14   48 1   
    45   15   16 ar  
    46   15   49 1   
    47   16   17 ar  
    48   16   50 1   
    49   17   29 ar  
    50   17   51 1   
    51   18   25 1   
    52   18   30 ar  
    53   20   23 1   
    54   20   52 1   
    55   21   53 1   
    56   21   54 1   
    57   22   23 1   
    58   22   55 1   
    59   22   56 1   
    60   26   60 1   
    61   26   61 1   
    62   26   62 1   
    63   27   28 ar  
    64   27   63 1   
    65   29   64 1   
    66   30   65 1   
    67   57   66 1   
    68   58   66 1   
    69   59   66 1   
@<TRIPOS>SUBSTRUCTURE
     1 4YN         1 TEMP              0 ****  ****    0 ROOT
