@<TRIPOS>MOLECULE
4YP
   48    48     1     0     0
SMALL
bcc


@<TRIPOS>ATOM
      1 CAB        -0.1670   -0.3940    0.0480 c3        1 4YP     -0.062900
      2 CAO         1.2480    0.0420   -0.0210 c2        1 4YP     -0.103400
      3 CAC         1.5390    1.3830    0.5400 c3        1 4YP     -0.062900
      4 CAI         2.1990   -0.7320   -0.5690 c2        1 4YP     -0.195200
      5 CAK         3.6250   -0.3380   -0.6560 c3        1 4YP     -0.034200
      6 CAM         4.4050   -1.2580   -1.5790 c3        1 4YP     -0.055200
      7 CAP         5.8390   -0.8550   -1.6810 c2        1 4YP     -0.058400
      8 CAD         6.1200    0.3440   -2.5080 c3        1 4YP     -0.079900
      9 CAJ         6.7950   -1.5760   -1.0750 c2        1 4YP     -0.227200
     10 CAL         8.2530   -1.3080   -1.1710 c3        1 4YP     -0.012000
     11 CAS         8.8360   -1.0110    0.1730 cc        1 4YP     -0.111400
     12 CAV         8.8570    0.4160    0.5490 c         1 4YP      0.549500
     13 OAH         8.6880    1.3420   -0.2440 o         1 4YP     -0.438100
     14 CAQ         9.3310   -1.9700    0.9860 cd        1 4YP     -0.098400
     15 CAE         9.3650   -3.4020    0.6030 c3        1 4YP     -0.077900
     16 CAU         9.8780   -1.6490    2.3200 c         1 4YP      0.592500
     17 OAG        10.4770   -2.4570    3.0390 o         1 4YP     -0.503100
     18 CAR         9.6480   -0.2630    2.8120 cc        1 4YP     -0.267200
     19 NAF         9.9960   -0.0020    4.2030 n4        1 4YP     -0.679400
     20 CAT         9.1310    0.7170    2.0000 cd        1 4YP      0.173900
     21 OAN         8.9200    1.9290    2.5610 os        1 4YP     -0.330900
     22 CAA         8.4050    3.0130    1.7620 c3        1 4YP      0.119700
     23 H1         -0.3200   -1.3850   -0.4440 hc        1 4YP      0.044033
     24 H2         -0.8240    0.3570   -0.4590 hc        1 4YP      0.044033
     25 H3         -0.4910   -0.4750    1.1160 hc        1 4YP      0.044033
     26 H4          1.7170    2.1150   -0.2890 hc        1 4YP      0.044033
     27 H5          0.6870    1.7560    1.1590 hc        1 4YP      0.044033
     28 H6          2.4570    1.3550    1.1790 hc        1 4YP      0.044033
     29 H7          1.9440   -1.7210   -0.9840 ha        1 4YP      0.128000
     30 H8          3.7070    0.7220   -1.0220 hc        1 4YP      0.041700
     31 H9          4.0800   -0.3650    0.3720 hc        1 4YP      0.041700
     32 H10         4.3210   -2.3140   -1.2060 hc        1 4YP      0.060200
     33 H11         3.9470   -1.2320   -2.6050 hc        1 4YP      0.060200
     34 H12         5.1820    0.9090   -2.7330 hc        1 4YP      0.054033
     35 H13         6.8300    1.0350   -1.9870 hc        1 4YP      0.054033
     36 H14         6.5820    0.0370   -3.4810 hc        1 4YP      0.054033
     37 H15         6.5290   -2.4650   -0.4780 ha        1 4YP      0.127000
     38 H16         8.4620   -0.4460   -1.8650 hc        1 4YP      0.082700
     39 H17         8.7610   -2.2130   -1.6080 hc        1 4YP      0.082700
     40 H18        10.0790   -3.5510   -0.2490 hc        1 4YP      0.080367
     41 H19         8.3500   -3.7390    0.2700 hc        1 4YP      0.080367
     42 H20         9.6970   -4.0470    1.4540 hc        1 4YP      0.080367
     43 H21        10.5590    0.8530    4.2670 hn        1 4YP      0.469467
     44 H22        10.5340   -0.8060    4.5650 hn        1 4YP      0.469467
     45 H23         8.2540    3.8160    2.5300 h1        1 4YP      0.086367
     46 H24         9.1640    3.3100    0.9980 h1        1 4YP      0.086367
     47 H25         7.4410    2.7170    1.2820 h1        1 4YP      0.086367
     48 HAF3        9.1410    0.1180    4.7570 hn        1 4YP      0.469467
@<TRIPOS>BOND
     1    1    2 1   
     2    1   23 1   
     3    1   24 1   
     4    1   25 1   
     5    2    3 1   
     6    2    4 2   
     7    3   26 1   
     8    3   27 1   
     9    3   28 1   
    10    4    5 1   
    11    4   29 1   
    12    5    6 1   
    13    5   30 1   
    14    5   31 1   
    15    6    7 1   
    16    6   32 1   
    17    6   33 1   
    18    7    8 1   
    19    7    9 2   
    20    8   34 1   
    21    8   35 1   
    22    8   36 1   
    23    9   10 1   
    24    9   37 1   
    25   10   11 1   
    26   10   38 1   
    27   10   39 1   
    28   11   12 1   
    29   11   14 2   
    30   12   13 2   
    31   12   20 1   
    32   14   15 1   
    33   14   16 1   
    34   15   40 1   
    35   15   41 1   
    36   15   42 1   
    37   16   17 2   
    38   16   18 1   
    39   18   19 1   
    40   18   20 2   
    41   19   43 1   
    42   19   44 1   
    43   19   48 1   
    44   20   21 1   
    45   21   22 1   
    46   22   45 1   
    47   22   46 1   
    48   22   47 1   
@<TRIPOS>SUBSTRUCTURE
     1 4YP         1 TEMP              0 ****  ****    0 ROOT
