@<TRIPOS>MOLECULE
4YP
   48    48     1     0     0
SMALL
bcc


@<TRIPOS>ATOM
      1 CAB        -0.1700   -0.3720    0.1000 c3        1 4YP     -0.062900
      2 CAO         1.2470    0.0580    0.0180 c2        1 4YP     -0.103400
      3 CAC         1.5480    1.4000    0.5730 c3        1 4YP     -0.062900
      4 CAI         2.1900   -0.7210   -0.5360 c2        1 4YP     -0.195200
      5 CAK         3.6170   -0.3330   -0.6350 c3        1 4YP     -0.034200
      6 CAM         4.3860   -1.2590   -1.5610 c3        1 4YP     -0.055200
      7 CAP         5.8210   -0.8620   -1.6760 c2        1 4YP     -0.058400
      8 CAD         6.1000    0.3320   -2.5110 c3        1 4YP     -0.079900
      9 CAJ         6.7790   -1.5840   -1.0740 c2        1 4YP     -0.227200
     10 CAL         8.2360   -1.3220   -1.1830 c3        1 4YP     -0.012000
     11 CAS         8.8320   -1.0210    0.1550 cc        1 4YP     -0.111400
     12 CAV         8.8610    0.4080    0.5230 c         1 4YP      0.549500
     13 OAH         8.6900    1.3310   -0.2720 o         1 4YP     -0.438100
     14 CAQ         9.3290   -1.9780    0.9690 cd        1 4YP     -0.098400
     15 CAE         9.3540   -3.4120    0.5910 c3        1 4YP     -0.077900
     16 CAU         9.8880   -1.6530    2.2960 c         1 4YP      0.592500
     17 OAG        10.4880   -2.4600    3.0150 o         1 4YP     -0.503100
     18 CAR         9.6680   -0.2640    2.7840 cc        1 4YP     -0.267200
     19 NAF        10.0270    0.0020    4.1700 nz        1 4YP     -0.679400
     20 CAT         9.1480    0.7150    1.9710 cd        1 4YP      0.173900
     21 OAN         8.9470    1.9300    2.5270 os        1 4YP     -0.330900
     22 CAA         8.4300    3.0130    1.7280 c3        1 4YP      0.119700
     23 H1         -0.4850   -0.4480    1.1710 hc        1 4YP      0.044033
     24 H2         -0.3310   -1.3640   -0.3870 hc        1 4YP      0.044033
     25 H3         -0.8270    0.3800   -0.4040 hc        1 4YP      0.044033
     26 H4          2.4700    1.3700    1.2050 hc        1 4YP      0.044033
     27 H5          1.7220    2.1280   -0.2600 hc        1 4YP      0.044033
     28 H6          0.7020    1.7780    1.1980 hc        1 4YP      0.044033
     29 H7          1.9280   -1.7100   -0.9460 ha        1 4YP      0.128000
     30 H8          3.7000    0.7260   -1.0060 hc        1 4YP      0.041700
     31 H9          4.0800   -0.3570    0.3890 hc        1 4YP      0.041700
     32 H10         3.9200   -1.2350   -2.5830 hc        1 4YP      0.060200
     33 H11         4.3010   -2.3130   -1.1830 hc        1 4YP      0.060200
     34 H12         5.1620    0.9000   -2.7290 hc        1 4YP      0.054033
     35 H13         6.5520    0.0200   -3.4860 hc        1 4YP      0.054033
     36 H14         6.8170    1.0230   -1.9980 hc        1 4YP      0.054033
     37 H15         6.5150   -2.4700   -0.4720 ha        1 4YP      0.127000
     38 H16         8.4430   -0.4640   -1.8830 hc        1 4YP      0.082700
     39 H17         8.7390   -2.2310   -1.6200 hc        1 4YP      0.082700
     40 H18         8.3350   -3.7460    0.2680 hc        1 4YP      0.080367
     41 H19         9.6900   -4.0550    1.4440 hc        1 4YP      0.080367
     42 H20        10.0610   -3.5680   -0.2650 hc        1 4YP      0.080367
     43 H21         9.1780    0.1290    4.7310 hn        1 4YP      0.469467
     44 H22        10.5650   -0.8030    4.5330 hn        1 4YP      0.469467
     45 H23         8.2900    3.8200    2.4930 h1        1 4YP      0.086367
     46 H24         9.1840    3.3020    0.9560 h1        1 4YP      0.086367
     47 H25         7.4620    2.7190    1.2570 h1        1 4YP      0.086367
     48 HAF3       10.5950    0.8550    4.2260 hn        1 4YP      0.469467
@<TRIPOS>BOND
     1    1    2 1   
     2    1   23 1   
     3    1   24 1   
     4    1   25 1   
     5    2    3 1   
     6    2    4 2   
     7    3   26 1   
     8    3   27 1   
     9    3   28 1   
    10    4    5 1   
    11    4   29 1   
    12    5    6 1   
    13    5   30 1   
    14    5   31 1   
    15    6    7 1   
    16    6   32 1   
    17    6   33 1   
    18    7    8 1   
    19    7    9 2   
    20    8   34 1   
    21    8   35 1   
    22    8   36 1   
    23    9   10 1   
    24    9   37 1   
    25   10   11 1   
    26   10   38 1   
    27   10   39 1   
    28   11   12 1   
    29   11   14 2   
    30   12   13 2   
    31   12   20 1   
    32   14   15 1   
    33   14   16 1   
    34   15   40 1   
    35   15   41 1   
    36   15   42 1   
    37   16   17 2   
    38   16   18 1   
    39   18   19 1   
    40   18   20 2   
    41   19   43 1   
    42   19   44 1   
    43   19   48 1   
    44   20   21 1   
    45   21   22 1   
    46   22   45 1   
    47   22   46 1   
    48   22   47 1   
@<TRIPOS>SUBSTRUCTURE
     1 4YP         1 TEMP              0 ****  ****    0 ROOT
