@<TRIPOS>MOLECULE
4YQ
   52    56     1     0     0
SMALL
bcc


@<TRIPOS>ATOM
      1 O14         0.1330   -0.8430    0.0060 o         1 4YQ     -0.596100
      2 C13         1.2680   -0.3300    0.0710 c         1 4YQ      0.715700
      3 C5          1.9960   -0.1660    1.3390 cc        1 4YQ     -0.284000
      4 S6          3.6810   -0.2950    1.4560 ss        1 4YQ     -0.147300
      5 C7          3.5820    0.0070    3.1610 cc        1 4YQ      0.640700
      6 O9          4.6380    0.0640    4.0350 os        1 4YQ     -0.403100
      7 C10         5.9140   -0.1760    3.4110 c3        1 4YQ      0.066400
      8 C11         6.9240   -0.1640    4.5550 c3        1 4YQ      0.133400
      9 O12         6.8120   -1.3210    5.3530 oh        1 4YQ     -0.591800
     10 C4          1.4270    0.0870    2.5910 cd        1 4YQ      0.490600
     11 N8          2.3440    0.1940    3.6390 nd        1 4YQ     -0.666000
     12 C3         -0.0120    0.2490    2.8290 cx        1 4YQ     -0.194000
     13 C2         -0.5160    1.3260    3.7620 cx        1 4YQ     -0.107900
     14 C1         -0.6220   -0.1110    4.1640 cx        1 4YQ     -0.107900
     15 N15         1.9390    0.0800   -1.0720 n         1 4YQ     -0.563900
     16 C16         1.3110    0.0680   -2.3720 c3        1 4YQ      0.101700
     17 C17         2.2430   -0.4990   -3.4730 c3        1 4YQ     -0.071200
     18 C18         3.4020    0.4490   -3.7530 c3        1 4YQ     -0.072400
     19 C21         0.8120    1.4600   -2.8380 c3        1 4YQ     -0.071200
     20 C20         1.9820    2.3940   -3.1190 c3        1 4YQ     -0.072400
     21 C22        -0.0060    1.2720   -4.1090 c3        1 4YQ     -0.099900
     22 C23         0.8850    0.6790   -5.2080 c3        1 4YQ      0.148800
     23 C25         1.4200   -0.6820   -4.7420 c3        1 4YQ     -0.099900
     24 O26         0.1690    0.5510   -6.4290 oh        1 4YQ     -0.591800
     25 C24         2.0590    1.6270   -5.4880 c3        1 4YQ     -0.061400
     26 C19         2.8690    1.8020   -4.2090 c3        1 4YQ     -0.064700
     27 H15         2.7550    0.6370   -0.9760 hn        1 4YQ      0.305500
     28 H101        6.1280    0.6430    2.6760 h1        1 4YQ      0.062200
     29 H102        5.8980   -1.1730    2.8970 h1        1 4YQ      0.062200
     30 H111        7.9630   -0.1990    4.1310 h1        1 4YQ      0.064700
     31 H112        6.7890    0.7610    5.1760 h1        1 4YQ      0.064700
     32 H12         5.9370   -1.3030    5.7610 ho        1 4YQ      0.416000
     33 H3         -0.6080    0.0250    1.9170 hc        1 4YQ      0.122700
     34 H21C       -1.4280    1.8770    3.4700 hc        1 4YQ      0.078700
     35 H22C        0.2140    1.9740    4.2800 hc        1 4YQ      0.078700
     36 H11C       -1.6110   -0.6030    4.1600 hc        1 4YQ      0.078700
     37 H12C        0.0280   -0.4920    4.9720 hc        1 4YQ      0.078700
     38 H16         0.4070   -0.6130   -2.2980 h1        1 4YQ      0.090700
     39 H17         2.6450   -1.4960   -3.1480 hc        1 4YQ      0.062700
     40 H21         0.1570    1.9080   -2.0420 hc        1 4YQ      0.062700
     41 H181        4.0350    0.5760   -2.8380 hc        1 4YQ      0.041700
     42 H182        4.0540    0.0130   -4.5540 hc        1 4YQ      0.041700
     43 H251        2.0560   -1.1270   -5.5500 hc        1 4YQ      0.052450
     44 H252        0.5660   -1.3810   -4.5530 hc        1 4YQ      0.052450
     45 H19         3.7290    2.4960   -4.4090 hc        1 4YQ      0.053700
     46 H201        2.5810    2.5630   -2.1890 hc        1 4YQ      0.041700
     47 H202        1.5910    3.3900   -3.4530 hc        1 4YQ      0.041700
     48 H221       -0.8740    0.5910   -3.9150 hc        1 4YQ      0.052450
     49 H222       -0.4120    2.2580   -4.4530 hc        1 4YQ      0.052450
     50 H26        -0.5740   -0.0390   -6.2550 ho        1 4YQ      0.400000
     51 H241        1.6640    2.6120   -5.8410 hc        1 4YQ      0.056700
     52 H242        2.6970    1.1980   -6.3010 hc        1 4YQ      0.056700
@<TRIPOS>BOND
     1    1    2 2   
     2    2    3 1   
     3    2   15 1   
     4    3    4 1   
     5    3   10 2   
     6    4    5 1   
     7    5    6 1   
     8    5   11 2   
     9    6    7 1   
    10    7    8 1   
    11    7   28 1   
    12    7   29 1   
    13    8    9 1   
    14    8   30 1   
    15    8   31 1   
    16    9   32 1   
    17   10   11 1   
    18   10   12 1   
    19   12   13 1   
    20   12   14 1   
    21   12   33 1   
    22   13   14 1   
    23   13   34 1   
    24   13   35 1   
    25   14   36 1   
    26   14   37 1   
    27   15   16 1   
    28   15   27 1   
    29   16   17 1   
    30   16   19 1   
    31   16   38 1   
    32   17   18 1   
    33   17   23 1   
    34   17   39 1   
    35   18   26 1   
    36   18   41 1   
    37   18   42 1   
    38   19   20 1   
    39   19   21 1   
    40   19   40 1   
    41   20   26 1   
    42   20   46 1   
    43   20   47 1   
    44   21   22 1   
    45   21   48 1   
    46   21   49 1   
    47   22   23 1   
    48   22   24 1   
    49   22   25 1   
    50   23   43 1   
    51   23   44 1   
    52   24   50 1   
    53   25   26 1   
    54   25   51 1   
    55   25   52 1   
    56   26   45 1   
@<TRIPOS>SUBSTRUCTURE
     1 4YQ         1 TEMP              0 ****  ****    0 ROOT
