@<TRIPOS>MOLECULE
4YQ
   53    57     1     0     0
SMALL
bcc


@<TRIPOS>ATOM
      1 O14        -0.3770   -0.8680    0.1050 o         1 4YQ     -0.462100
      2 C13         0.8110   -0.5720    0.1840 c         1 4YQ      0.628700
      3 C5          1.5540    0.0400    1.2320 cc        1 4YQ     -0.399000
      4 S6          3.1400    0.6420    1.0870 ss        1 4YQ     -0.150300
      5 C7          3.1370    1.0700    2.7710 cc        1 4YQ      0.747700
      6 O9          4.1120    1.7080    3.4610 os        1 4YQ     -0.367100
      7 C10         5.3980    1.8210    2.8170 c3        1 4YQ      0.113400
      8 C11         6.3010    0.6670    3.2330 c3        1 4YQ      0.097400
      9 O12         6.0750   -0.3940    2.3190 oh        1 4YQ     -0.625800
     10 C4          1.0760    0.2140    2.5640 cd        1 4YQ      0.606600
     11 N8          1.9860    0.7900    3.4230 nd        1 4YQ     -0.678000
     12 C3         -0.2520   -0.1830    3.0280 cx        1 4YQ     -0.255000
     13 C2         -0.9720    0.6440    4.0800 cx        1 4YQ     -0.079400
     14 C1         -0.4470   -0.7030    4.4420 cx        1 4YQ     -0.079400
     15 N15         1.6240   -0.9760   -1.0480 ny        1 4YQ     -0.677800
     16 C16         1.1590   -0.2750   -2.2940 c3        1 4YQ      0.122500
     17 C17         1.7530   -0.9300   -3.5610 c3        1 4YQ     -0.074700
     18 C18         3.2560   -0.6940   -3.6420 c3        1 4YQ     -0.086900
     19 C21         1.5030    1.2290   -2.2920 c3        1 4YQ     -0.074700
     20 C20         3.0070    1.4510   -2.3900 c3        1 4YQ     -0.086900
     21 C22         0.8150    1.8560   -3.5010 c3        1 4YQ     -0.086400
     22 C23         1.3600    1.2140   -4.7850 c3        1 4YQ      0.152800
     23 C25         1.0690   -0.2940   -4.7660 c3        1 4YQ     -0.086400
     24 O26         0.6780    1.8420   -5.8570 oh        1 4YQ     -0.574800
     25 C24         2.8760    1.4350   -4.8730 c3        1 4YQ     -0.107400
     26 C19         3.5480    0.8020   -3.6600 c3        1 4YQ     -0.062700
     27 H15         1.5000   -1.9850   -1.1890 hn        1 4YQ      0.451300
     28 H101        5.2880    1.8790    1.7030 h1        1 4YQ      0.090200
     29 H102        5.7880    2.7910    3.2320 h1        1 4YQ      0.090200
     30 H111        7.3710    1.0030    3.1800 h1        1 4YQ      0.064700
     31 H112        6.0590    0.3390    4.2800 h1        1 4YQ      0.064700
     32 H12         6.6680   -1.1120    2.5710 ho        1 4YQ      0.426000
     33 H3         -0.8750   -0.6370    2.2280 hc        1 4YQ      0.117700
     34 H21C       -2.0610    0.7890    3.9490 hc        1 4YQ      0.094700
     35 H22C       -0.4780    1.5440    4.4880 hc        1 4YQ      0.094700
     36 H11C        0.4270   -0.7780    5.1140 hc        1 4YQ      0.094700
     37 H12C       -1.1510   -1.5450    4.5780 hc        1 4YQ      0.094700
     38 H16         0.0320   -0.3930   -2.3110 hx        1 4YQ      0.121700
     39 H17         1.5380   -2.0340   -3.5620 hc        1 4YQ      0.070200
     40 H21         1.1050    1.7090   -1.3570 hc        1 4YQ      0.070200
     41 H181        3.7850   -1.1810   -2.7830 hc        1 4YQ      0.053950
     42 H182        3.6500   -1.1640   -4.5810 hc        1 4YQ      0.053950
     43 H251       -0.0380   -0.4620   -4.7290 hc        1 4YQ      0.076700
     44 H252        1.4550   -0.7670   -5.7050 hc        1 4YQ      0.076700
     45 H19         4.6580    0.9660   -3.7200 hc        1 4YQ      0.077700
     46 H201        3.2110    2.5540   -2.4180 hc        1 4YQ      0.053950
     47 H202        3.5330    1.0430   -1.4860 hc        1 4YQ      0.053950
     48 H221       -0.2940    1.7110   -3.4500 hc        1 4YQ      0.076700
     49 H222        1.0160    2.9580   -3.5220 hc        1 4YQ      0.076700
     50 H26         1.0660    1.5100   -6.6770 ho        1 4YQ      0.414000
     51 H241        3.0900    2.5340   -4.9080 hc        1 4YQ      0.067700
     52 H242        3.2730    0.9770   -5.8140 hc        1 4YQ      0.067700
     53 H152        2.6220   -0.7880   -0.9030 hn        1 4YQ      0.451300
@<TRIPOS>BOND
     1    1    2 2   
     2    2    3 1   
     3    2   15 1   
     4    3    4 1   
     5    3   10 2   
     6    4    5 1   
     7    5    6 1   
     8    5   11 2   
     9    6    7 1   
    10    7    8 1   
    11    7   28 1   
    12    7   29 1   
    13    8    9 1   
    14    8   30 1   
    15    8   31 1   
    16    9   32 1   
    17   10   11 1   
    18   10   12 1   
    19   12   13 1   
    20   12   14 1   
    21   12   33 1   
    22   13   14 1   
    23   13   34 1   
    24   13   35 1   
    25   14   36 1   
    26   14   37 1   
    27   15   16 1   
    28   15   27 1   
    29   15   53 1   
    30   16   17 1   
    31   16   19 1   
    32   16   38 1   
    33   17   18 1   
    34   17   23 1   
    35   17   39 1   
    36   18   26 1   
    37   18   41 1   
    38   18   42 1   
    39   19   20 1   
    40   19   21 1   
    41   19   40 1   
    42   20   26 1   
    43   20   46 1   
    44   20   47 1   
    45   21   22 1   
    46   21   48 1   
    47   21   49 1   
    48   22   23 1   
    49   22   24 1   
    50   22   25 1   
    51   23   43 1   
    52   23   44 1   
    53   24   50 1   
    54   25   26 1   
    55   25   51 1   
    56   25   52 1   
    57   26   45 1   
@<TRIPOS>SUBSTRUCTURE
     1 4YQ         1 TEMP              0 ****  ****    0 ROOT
