@<TRIPOS>MOLECULE
4YQ
   53    57     1     0     0
SMALL
bcc


@<TRIPOS>ATOM
      1 O14        -0.3890   -0.8330    0.0820 o         1 4YQ     -0.462100
      2 C13         0.8020   -0.5520    0.1680 c         1 4YQ      0.627700
      3 C5          1.5460    0.0420    1.2250 cc        1 4YQ     -0.399000
      4 S6          3.1370    0.6350    1.0900 ss        1 4YQ     -0.151300
      5 C7          3.1340    1.0410    2.7790 cc        1 4YQ      0.747700
      6 O9          4.1130    1.6650    3.4790 os        1 4YQ     -0.367100
      7 C10         5.4040    1.7630    2.8430 c3        1 4YQ      0.113400
      8 C11         6.2870    0.5920    3.2540 c3        1 4YQ      0.097400
      9 O12         6.0500   -0.4570    2.3290 oh        1 4YQ     -0.625800
     10 C4          1.0670    0.2040    2.5580 cd        1 4YQ      0.606600
     11 N8          1.9800    0.7630    3.4260 nd        1 4YQ     -0.678000
     12 C3         -0.2650   -0.1890    3.0150 cx        1 4YQ     -0.255000
     13 C2         -0.9800    0.6270    4.0780 cx        1 4YQ     -0.079400
     14 C1         -0.4650   -0.7280    4.4200 cx        1 4YQ     -0.079400
     15 N15         1.6170   -0.9550   -1.0620 n4        1 4YQ     -0.677800
     16 C16         1.1500   -0.2600   -2.3110 c3        1 4YQ      0.122500
     17 C17         1.7680   -0.8990   -3.5740 c3        1 4YQ     -0.074200
     18 C18         3.2660   -0.6320   -3.6420 c3        1 4YQ     -0.086900
     19 C21         1.4640    1.2510   -2.3020 c3        1 4YQ     -0.074200
     20 C20         2.9650    1.5020   -2.3840 c3        1 4YQ     -0.086900
     21 C22         0.7780    1.8650   -3.5180 c3        1 4YQ     -0.086400
     22 C23         1.3440    1.2340   -4.8000 c3        1 4YQ      0.152800
     23 C25         1.0790   -0.2780   -4.7850 c3        1 4YQ     -0.086400
     24 O26         0.6750    1.7380   -5.9430 oh        1 4YQ     -0.573800
     25 C24         2.8550    1.4930   -4.8690 c3        1 4YQ     -0.107400
     26 C19         3.5290    0.8700   -3.6520 c3        1 4YQ     -0.062700
     27 H15         2.6140   -0.7620   -0.9170 hn        1 4YQ      0.451300
     28 H101        5.3020    1.8330    1.7300 h1        1 4YQ      0.090200
     29 H102        5.8070    2.7230    3.2700 h1        1 4YQ      0.090200
     30 H111        6.0340    0.2580    4.2960 h1        1 4YQ      0.065200
     31 H112        7.3630    0.9120    3.2100 h1        1 4YQ      0.065200
     32 H12         6.6310   -1.1870    2.5770 ho        1 4YQ      0.426000
     33 H3         -0.8900   -0.6260    2.2080 hc        1 4YQ      0.117700
     34 H21C       -0.4790    1.5180    4.5000 hc        1 4YQ      0.094700
     35 H22C       -2.0670    0.7830    3.9480 hc        1 4YQ      0.094700
     36 H11C       -1.1760   -1.5670    4.5430 hc        1 4YQ      0.094700
     37 H12C        0.4080   -0.8200    5.0930 hc        1 4YQ      0.094700
     38 H16         0.0250   -0.3990   -2.3380 hx        1 4YQ      0.121700
     39 H17         1.5760   -2.0070   -3.5790 hc        1 4YQ      0.070200
     40 H21         1.0470    1.7200   -1.3690 hc        1 4YQ      0.070200
     41 H181        3.7990   -1.1120   -2.7820 hc        1 4YQ      0.053450
     42 H182        3.6760   -1.0900   -4.5810 hc        1 4YQ      0.053450
     43 H251       -0.0240   -0.4660   -4.7570 hc        1 4YQ      0.076450
     44 H252        1.4810   -0.7350   -5.7260 hc        1 4YQ      0.076450
     45 H19         4.6360    1.0550   -3.7020 hc        1 4YQ      0.077700
     46 H201        3.4890    1.0990   -1.4770 hc        1 4YQ      0.053450
     47 H202        3.1490    2.6080   -2.4040 hc        1 4YQ      0.053450
     48 H221        0.9590    2.9710   -3.5270 hc        1 4YQ      0.076450
     49 H222       -0.3290    1.7000   -3.4760 hc        1 4YQ      0.076450
     50 H26         0.9020    2.6740   -6.0180 ho        1 4YQ      0.414000
     51 H241        3.2660    1.0490   -5.8110 hc        1 4YQ      0.067700
     52 H242        3.0510    2.5950   -4.8940 hc        1 4YQ      0.067700
     53 H152        1.4980   -1.9650   -1.2020 hn        1 4YQ      0.451300
@<TRIPOS>BOND
     1    1    2 2   
     2    2    3 1   
     3    2   15 1   
     4    3    4 1   
     5    3   10 2   
     6    4    5 1   
     7    5    6 1   
     8    5   11 2   
     9    6    7 1   
    10    7    8 1   
    11    7   28 1   
    12    7   29 1   
    13    8    9 1   
    14    8   30 1   
    15    8   31 1   
    16    9   32 1   
    17   10   11 1   
    18   10   12 1   
    19   12   13 1   
    20   12   14 1   
    21   12   33 1   
    22   13   14 1   
    23   13   34 1   
    24   13   35 1   
    25   14   36 1   
    26   14   37 1   
    27   15   16 1   
    28   15   27 1   
    29   15   53 1   
    30   16   17 1   
    31   16   19 1   
    32   16   38 1   
    33   17   18 1   
    34   17   23 1   
    35   17   39 1   
    36   18   26 1   
    37   18   41 1   
    38   18   42 1   
    39   19   20 1   
    40   19   21 1   
    41   19   40 1   
    42   20   26 1   
    43   20   46 1   
    44   20   47 1   
    45   21   22 1   
    46   21   48 1   
    47   21   49 1   
    48   22   23 1   
    49   22   24 1   
    50   22   25 1   
    51   23   43 1   
    52   23   44 1   
    53   24   50 1   
    54   25   26 1   
    55   25   51 1   
    56   25   52 1   
    57   26   45 1   
@<TRIPOS>SUBSTRUCTURE
     1 4YQ         1 TEMP              0 ****  ****    0 ROOT
