@<TRIPOS>MOLECULE
4YU
   44    45     1     0     0
SMALL
bcc


@<TRIPOS>ATOM
      1 O3          0.2070    0.0630    0.1520 os        1 4YU     -0.324900
      2 C4          4.3790    0.5640    4.7980 c3        1 4YU      0.145000
      3 C5          5.2900   -0.0900    2.5220 c         1 4YU      0.607300
      4 C6          5.0640    0.0540    1.1290 cc        1 4YU     -0.332400
      5 N1          5.5860    0.3460   -1.0850 na        1 4YU     -0.016400
      6 C7          6.1250    0.1690    0.1680 cd        1 4YU      0.128700
      7 C8          7.5790    0.1330    0.4270 c3        1 4YU     -0.096900
      8 C9          6.3160    0.4920   -2.3090 c3        1 4YU      0.001600
      9 C10         4.1730    0.3240   -0.9890 ca        1 4YU     -0.099200
     10 C11         3.2080    0.4490   -1.9940 ca        1 4YU     -0.054000
     11 C12         1.8700    0.3740   -1.6330 ca        1 4YU     -0.184000
     12 C13         1.5060    0.1630   -0.2880 ca        1 4YU      0.169100
     13 C14        -0.8170    0.1520   -0.8380 c3        1 4YU      0.108700
     14 C15         2.4670    0.0320    0.7310 ca        1 4YU     -0.194000
     15 O1          5.4890    4.8160    5.0950 o         1 4YU     -0.516000
     16 C1          4.6650    4.2510    5.8180 c         1 4YU      0.615300
     17 O           4.0730    4.9430    6.8300 os        1 4YU     -0.421900
     18 C           4.4790    6.3080    6.9960 c3        1 4YU      0.123700
     19 C2          4.1940    2.8540    5.7300 ce        1 4YU     -0.122200
     20 C3          4.7770    1.9980    4.8850 c2        1 4YU     -0.182200
     21 N           4.0580    0.1470    3.4010 ny        1 4YU     -0.674800
     22 O2          6.3150   -0.3670    3.1420 o         1 4YU     -0.490100
     23 C16         3.8120    0.1320    0.3950 ca        1 4YU     -0.011800
     24 H1          5.2360   -0.0790    5.1690 hx        1 4YU      0.117200
     25 H2          3.4690    0.3520    5.4320 hx        1 4YU      0.117200
     26 H3          8.0330    1.1400    0.2320 hc        1 4YU      0.091700
     27 H4          7.7840   -0.1500    1.4910 hc        1 4YU      0.091700
     28 H5          8.0820   -0.6160   -0.2390 hc        1 4YU      0.091700
     29 H6          5.7570    1.1830   -2.9970 h1        1 4YU      0.078033
     30 H7          7.3320    0.9210   -2.0970 h1        1 4YU      0.078033
     31 H8          6.4330   -0.5100   -2.8070 h1        1 4YU      0.078033
     32 H9          3.4960    0.5990   -3.0460 ha        1 4YU      0.158000
     33 H10         1.0970    0.4740   -2.4100 ha        1 4YU      0.164000
     34 H11        -1.7570    0.0280   -0.2400 h1        1 4YU      0.059700
     35 H12        -0.7120   -0.6690   -1.5860 h1        1 4YU      0.059700
     36 H13        -0.7940    1.1520   -1.3350 h1        1 4YU      0.059700
     37 H14         2.0980   -0.1790    1.7420 ha        1 4YU      0.127000
     38 H15         3.8750    6.6490    7.8740 h1        1 4YU      0.064033
     39 H16         5.5740    6.3540    7.2040 h1        1 4YU      0.064033
     40 H17         4.2340    6.8880    6.0750 h1        1 4YU      0.064033
     41 H18         3.3620    2.5910    6.4040 ha        1 4YU      0.168000
     42 H20         5.6270    2.3110    4.2490 ha        1 4YU      0.175000
     43 H22         3.5230   -0.7270    3.4280 hn        1 4YU      0.459800
     44 HN3         3.4820    0.8690    2.9500 hn        1 4YU      0.459800
@<TRIPOS>BOND
     1    1   12 1   
     2    1   13 1   
     3    2   20 1   
     4    2   21 1   
     5    2   24 1   
     6    2   25 1   
     7    3    4 1   
     8    3   21 1   
     9    3   22 2   
    10    4    6 2   
    11    4   23 1   
    12    5    6 1   
    13    5    8 1   
    14    5    9 1   
    15    6    7 1   
    16    7   26 1   
    17    7   27 1   
    18    7   28 1   
    19    8   29 1   
    20    8   30 1   
    21    8   31 1   
    22    9   10 ar  
    23    9   23 ar  
    24   10   11 ar  
    25   10   32 1   
    26   11   12 ar  
    27   11   33 1   
    28   12   14 ar  
    29   13   34 1   
    30   13   35 1   
    31   13   36 1   
    32   14   23 ar  
    33   14   37 1   
    34   15   16 2   
    35   16   17 1   
    36   16   19 1   
    37   17   18 1   
    38   18   38 1   
    39   18   39 1   
    40   18   40 1   
    41   19   20 2   
    42   19   41 1   
    43   20   42 1   
    44   21   43 1   
    45   21   44 1   
@<TRIPOS>SUBSTRUCTURE
     1 4YU         1 TEMP              0 ****  ****    0 ROOT
