@<TRIPOS>MOLECULE
4YV
   56    60     1     0     0
SMALL
bcc


@<TRIPOS>ATOM
      1 C4          1.1840   -2.0530    1.0610 c3        1 4YV     -0.100900
      2 C5          2.4840   -1.2760    0.8740 c3        1 4YV      0.203800
      3 C11         5.0800    1.8100    0.0660 ca        1 4YV      0.481200
      4 C7          2.4220   -0.5720    3.2370 c3        1 4YV      0.203800
      5 C8          1.1260   -1.3520    3.4410 c3        1 4YV     -0.100900
      6 C9          3.7430    0.6950    1.6010 ca        1 4YV      0.896900
      7 C12         5.6090    2.6360    1.0630 ca        1 4YV     -0.457600
      8 C13         5.1550    2.3950    2.3970 ca        1 4YV      0.695200
      9 C3          1.0480   -2.5430    2.4970 c3        1 4YV      0.137100
     10 O2         -0.2290   -3.1810    2.5790 os        1 4YV     -0.416600
     11 N6          2.6830   -0.2150    1.8510 nh        1 4YV     -0.729300
     12 N10         4.1760    0.8460    0.2860 nb        1 4YV     -0.767000
     13 N14         4.2310    1.4300    2.6720 nb        1 4YV     -0.796000
     14 N15         5.7550    3.1360    3.4380 nh        1 4YV     -0.811600
     15 C16         5.2020    3.1220    4.7550 ca        1 4YV      0.615200
     16 C17         5.2130    1.9140    5.4880 ca        1 4YV     -0.213300
     17 C18         4.7380    1.9810    6.8020 ca        1 4YV     -0.042200
     18 C19         4.2680    3.2410    7.3560 ca        1 4YV     -0.067900
     19 C20         4.3090    4.3780    6.5200 ca        1 4YV      0.483200
     20 N21         4.7530    4.3260    5.2680 nb        1 4YV     -0.718000
     21 N22         3.8490    3.0490    8.6850 nc        1 4YV     -0.548100
     22 C23         4.0530    1.7460    8.9300 cd        1 4YV      0.418700
     23 N24         4.5810    1.0370    7.8240 na        1 4YV     -0.163300
     24 C25         4.9620   -0.3510    7.7820 c3        1 4YV      0.058000
     25 C26         6.2470   -0.6770    8.5810 c3        1 4YV     -0.096400
     26 C27         5.8170   -1.3400    9.8800 c3        1 4YV     -0.083900
     27 C28         4.3460   -1.7120    9.7490 c3        1 4YV     -0.083900
     28 C29         3.8880   -1.3030    8.3580 c3        1 4YV     -0.096400
     29 H1          1.1880   -2.9250    0.3590 hc        1 4YV      0.062700
     30 H2          0.3010   -1.4120    0.8060 hc        1 4YV      0.062700
     31 H3          3.3490   -2.0010    0.9120 h1        1 4YV      0.054200
     32 H4          2.4540   -0.8230   -0.1590 h1        1 4YV      0.054200
     33 H5          5.4010    1.9230   -0.9880 h4        1 4YV      0.025100
     34 H6          2.3440    0.3730    3.8470 h1        1 4YV      0.054200
     35 H7          3.2800   -1.1820    3.6470 h1        1 4YV      0.054200
     36 H8          1.0920   -1.6960    4.5060 hc        1 4YV      0.062700
     37 H9          0.2400   -0.6880    3.2670 hc        1 4YV      0.062700
     38 H10         6.3410    3.4140    0.8280 ha        1 4YV      0.155000
     39 H11         1.8590   -3.2850    2.7370 h1        1 4YV      0.036700
     40 H12         0.4050   -4.8290    3.7040 h1        1 4YV      0.032033
     41 H13        -1.3930   -4.4620    3.6020 h1        1 4YV      0.032033
     42 H14        -0.2960   -3.4330    4.6570 h1        1 4YV      0.032033
     43 H15         6.0500    4.0450    3.1310 hn        1 4YV      0.432800
     44 H16         5.5690    0.9750    5.0460 ha        1 4YV      0.160000
     45 H17         3.9630    5.3640    6.8800 h4        1 4YV      0.039100
     46 H18         3.8380    1.2330    9.8760 h5        1 4YV      0.071800
     47 H19         5.1330   -0.5960    6.6920 h1        1 4YV      0.072700
     48 H20         6.8650   -1.3830    7.9700 hc        1 4YV      0.058950
     49 H21         6.8680    0.2300    8.7760 hc        1 4YV      0.058950
     50 H22         6.4400   -2.2470   10.0810 hc        1 4YV      0.047700
     51 H23         5.9650   -0.6410   10.7420 hc        1 4YV      0.047700
     52 H24         3.7420   -1.1820   10.5280 hc        1 4YV      0.047700
     53 H25         4.1970   -2.8090    9.9040 hc        1 4YV      0.047700
     54 H26         3.8260   -2.1990    7.6900 hc        1 4YV      0.058950
     55 H27         2.8740   -0.8340    8.3870 hc        1 4YV      0.058950
     56 C1         -0.3690   -4.0220    3.7100 c3        1 4YV      0.116700
@<TRIPOS>BOND
     1    1    2 1   
     2    1    9 1   
     3    1   29 1   
     4    1   30 1   
     5    2   11 1   
     6    2   31 1   
     7    2   32 1   
     8    3    7 ar  
     9    3   12 ar  
    10    3   33 1   
    11    4    5 1   
    12    4   11 1   
    13    4   34 1   
    14    4   35 1   
    15    5    9 1   
    16    5   36 1   
    17    5   37 1   
    18    6   11 1   
    19    6   12 ar  
    20    6   13 ar  
    21    7    8 ar  
    22    7   38 1   
    23    8   13 ar  
    24    8   14 1   
    25    9   10 1   
    26    9   39 1   
    27   10   56 1   
    28   14   15 1   
    29   14   43 1   
    30   15   16 ar  
    31   15   20 ar  
    32   16   17 ar  
    33   16   44 1   
    34   17   18 ar  
    35   17   23 1   
    36   18   19 ar  
    37   18   21 1   
    38   19   20 ar  
    39   19   45 1   
    40   21   22 2   
    41   22   23 1   
    42   22   46 1   
    43   23   24 1   
    44   24   25 1   
    45   24   28 1   
    46   24   47 1   
    47   25   26 1   
    48   25   48 1   
    49   25   49 1   
    50   26   27 1   
    51   26   50 1   
    52   26   51 1   
    53   27   28 1   
    54   27   52 1   
    55   27   53 1   
    56   28   54 1   
    57   28   55 1   
    58   40   56 1   
    59   41   56 1   
    60   42   56 1   
@<TRIPOS>SUBSTRUCTURE
     1 4YV         1 TEMP              0 ****  ****    0 ROOT
