@<TRIPOS>MOLECULE
4YW
   57    60     1     0     0
SMALL
bcc


@<TRIPOS>ATOM
      1 C4         -0.6130   -2.1890    0.6930 ca        1 4YW     -0.063900
      2 C5         -0.0790   -3.3970    1.1980 ca        1 4YW      0.481200
      3 C11        -0.5910    1.5020    0.7010 c3        1 4YW      0.060000
      4 C7          1.3940   -2.2280    2.5920 ca        1 4YW      0.607200
      5 C8          0.9440   -0.9580    2.1720 ca        1 4YW     -0.210300
      6 C9         -0.0700   -0.9430    1.2050 ca        1 4YW     -0.039200
      7 C12        -0.8710    1.9930    2.1230 c3        1 4YW     -0.115100
      8 C13         0.7950    1.9840    0.2660 c3        1 4YW     -0.115100
      9 N3         -1.6120   -1.9200   -0.2520 nc        1 4YW     -0.549100
     10 C1         -2.6190    0.1830   -1.2070 c3        1 4YW     -0.116400
     11 C2         -1.6890   -0.5740   -0.3260 cd        1 4YW      0.420800
     12 N6          0.8890   -3.4220    2.1070 nb        1 4YW     -0.719000
     13 N10        -0.7670    0.0750    0.5480 na        1 4YW     -0.162300
     14 N14         2.3700   -2.3120    3.6330 nu        1 4YW     -0.809600
     15 C15         3.6760   -1.8190    3.4390 ca        1 4YW      0.697200
     16 C16         4.6890   -2.2200    4.3670 ca        1 4YW     -0.455600
     17 C17         5.9460   -1.6270    4.2150 ca        1 4YW      0.481200
     18 N18         6.2500   -0.7380    3.2590 nb        1 4YW     -0.769000
     19 C19         5.2290   -0.4200    2.3680 ca        1 4YW      0.892900
     20 N20         3.9400   -0.9220    2.4440 nb        1 4YW     -0.793000
     21 N21         5.5440    0.4160    1.2600 nh        1 4YW     -0.724300
     22 C22         4.4240    1.0440    0.5760 c3        1 4YW      0.206800
     23 C23         4.8160    1.7730   -0.7050 c3        1 4YW     -0.062400
     24 C24         5.9590    2.7450   -0.4670 c3        1 4YW     -0.287900
     25 C25         7.1280    1.9640    0.0990 c3        1 4YW     -0.062400
     26 C26         6.7460    1.2270    1.3810 c3        1 4YW      0.206800
     27 S27         6.3240    3.5820   -1.9300 s6        1 4YW      1.328000
     28 O28         6.8910    2.7080   -2.8650 o         1 4YW     -0.649800
     29 O29         5.1880    4.3050   -2.3230 o         1 4YW     -0.649800
     30 C30         7.5040    4.6570   -1.3750 c3        1 4YW     -0.370300
     31 H1         -0.4510   -4.3760    0.8430 h4        1 4YW      0.038100
     32 H2         -1.3530    1.9880    0.0150 h1        1 4YW      0.063700
     33 H3          1.3720   -0.0320    2.5740 ha        1 4YW      0.160000
     34 H4         -1.8980    1.7060    2.4510 hc        1 4YW      0.050533
     35 H5         -0.1340    1.5680    2.8450 hc        1 4YW      0.050533
     36 H6         -0.7880    3.1060    2.1390 hc        1 4YW      0.050533
     37 H7          0.8420    3.0930    0.3840 hc        1 4YW      0.050533
     38 H8          0.9890    1.7300   -0.8040 hc        1 4YW      0.050533
     39 H9          1.5970    1.5210    0.8910 hc        1 4YW      0.050533
     40 H10        -3.2960    0.8260   -0.5910 hc        1 4YW      0.064367
     41 H11        -3.2450   -0.5250   -1.8050 hc        1 4YW      0.064367
     42 H12        -2.0400    0.8310   -1.9110 hc        1 4YW      0.064367
     43 H13         2.3680   -3.1910    4.1190 hn        1 4YW      0.432800
     44 H14         4.4940   -2.9450    5.1630 ha        1 4YW      0.155000
     45 H15         6.7740   -1.8760    4.9060 h4        1 4YW      0.026100
     46 H16         3.9070    1.7760    1.2630 h1        1 4YW      0.056950
     47 H17         3.6790    0.2460    0.2910 h1        1 4YW      0.056950
     48 H18         5.1200    1.0280   -1.4890 hc        1 4YW      0.068200
     49 H19         3.9130    2.3270   -1.0760 hc        1 4YW      0.068200
     50 H20         5.6200    3.4790    0.3180 h1        1 4YW      0.108700
     51 H21         7.9730    2.6580    0.3490 hc        1 4YW      0.068200
     52 H22         7.4900    1.2300   -0.6700 hc        1 4YW      0.068200
     53 H23         7.6100    0.5530    1.6480 h1        1 4YW      0.056950
     54 H24         6.6240    1.9860    2.2090 h1        1 4YW      0.056950
     55 H25         7.5530    5.5690   -2.0240 h1        1 4YW      0.119033
     56 H26         8.5300    4.2110   -1.3880 h1        1 4YW      0.119033
     57 H27         7.3340    5.0320   -0.3370 h1        1 4YW      0.119033
@<TRIPOS>BOND
     1    1    2 ar  
     2    1    6 ar  
     3    1    9 1   
     4    2   12 ar  
     5    2   31 1   
     6    3    7 1   
     7    3    8 1   
     8    3   13 1   
     9    3   32 1   
    10    4    5 ar  
    11    4   12 ar  
    12    4   14 1   
    13    5    6 ar  
    14    5   33 1   
    15    6   13 1   
    16    7   34 1   
    17    7   35 1   
    18    7   36 1   
    19    8   37 1   
    20    8   38 1   
    21    8   39 1   
    22    9   11 2   
    23   10   11 1   
    24   10   40 1   
    25   10   41 1   
    26   10   42 1   
    27   11   13 1   
    28   14   15 1   
    29   14   43 1   
    30   15   16 ar  
    31   15   20 ar  
    32   16   17 ar  
    33   16   44 1   
    34   17   18 ar  
    35   17   45 1   
    36   18   19 ar  
    37   19   20 ar  
    38   19   21 1   
    39   21   22 1   
    40   21   26 1   
    41   22   23 1   
    42   22   46 1   
    43   22   47 1   
    44   23   24 1   
    45   23   48 1   
    46   23   49 1   
    47   24   25 1   
    48   24   27 1   
    49   24   50 1   
    50   25   26 1   
    51   25   51 1   
    52   25   52 1   
    53   26   53 1   
    54   26   54 1   
    55   27   28 2   
    56   27   29 2   
    57   27   30 1   
    58   30   55 1   
    59   30   56 1   
    60   30   57 1   
@<TRIPOS>SUBSTRUCTURE
     1 4YW         1 TEMP              0 ****  ****    0 ROOT
