@<TRIPOS>MOLECULE
4YW
   57    60     1     0     0
SMALL
bcc


@<TRIPOS>ATOM
      1 C4         -0.6290   -2.1740    0.8300 ca        1 4YW     -0.063900
      2 C5         -0.1160   -3.3430    1.4350 ca        1 4YW      0.481200
      3 C11        -0.5800    1.5070    0.5610 c3        1 4YW      0.060000
      4 C7          1.3370   -2.0810    2.7700 ca        1 4YW      0.607200
      5 C8          0.9050   -0.8440    2.2460 ca        1 4YW     -0.210300
      6 C9         -0.0890   -0.8950    1.2590 ca        1 4YW     -0.039200
      7 C12        -0.8870    2.1060    1.9370 c3        1 4YW     -0.115100
      8 C13         0.8180    1.9480    0.1220 c3        1 4YW     -0.115100
      9 N3         -1.6060   -1.9710   -0.1540 nc        1 4YW     -0.549100
     10 C1         -2.5770    0.0610   -1.2850 c3        1 4YW     -0.116400
     11 C2         -1.6720   -0.6330   -0.3300 cd        1 4YW      0.420800
     12 N6          0.8330   -3.3050    2.3650 nb        1 4YW     -0.719000
     13 N10        -0.7640    0.0740    0.5130 na        1 4YW     -0.162300
     14 N14         2.2890   -2.0930    3.8350 nh        1 4YW     -0.809600
     15 C15         3.6030   -1.6230    3.6340 ca        1 4YW      0.697200
     16 C16         4.5930   -1.9580    4.6110 ca        1 4YW     -0.455600
     17 C17         5.8570   -1.3860    4.4430 ca        1 4YW      0.481200
     18 N18         6.1870   -0.5730    3.4290 nb        1 4YW     -0.769000
     19 C19         5.1890   -0.3170    2.4950 ca        1 4YW      0.892900
     20 N20         3.8940   -0.8050    2.5800 nb        1 4YW     -0.793000
     21 N21         5.5330    0.4310    1.3340 nh        1 4YW     -0.724300
     22 C22         4.4330    1.0120    0.5800 c3        1 4YW      0.206800
     23 C23         4.8580    1.6400   -0.7430 c3        1 4YW     -0.062400
     24 C24         6.0020    2.6210   -0.5530 c3        1 4YW     -0.287900
     25 C25         7.1520    1.8800    0.0960 c3        1 4YW     -0.062400
     26 C26         6.7380    1.2430    1.4210 c3        1 4YW      0.206800
     27 S27         6.4040    3.3440   -2.0670 s6        1 4YW      1.328000
     28 O28         6.9850    2.3990   -2.9210 o         1 4YW     -0.649800
     29 O29         5.2820    4.0410   -2.5380 o         1 4YW     -0.649800
     30 C30         7.5790    4.4510   -1.5680 c3        1 4YW     -0.370300
     31 H1         -0.4860   -4.3440    1.1470 h4        1 4YW      0.038100
     32 H2         -1.3240    1.9450   -0.1750 h1        1 4YW      0.063700
     33 H3          1.3310    0.1070    2.5870 ha        1 4YW      0.160000
     34 H4         -1.9230    1.8500    2.2630 hc        1 4YW      0.050533
     35 H5         -0.7960    3.2160    1.8710 hc        1 4YW      0.050533
     36 H6         -0.1680    1.7320    2.7050 hc        1 4YW      0.050533
     37 H7          1.6030    1.5270    0.7980 hc        1 4YW      0.050533
     38 H8          0.8710    3.0620    0.1580 hc        1 4YW      0.050533
     39 H9          1.0330    1.6130   -0.9210 hc        1 4YW      0.050533
     40 H10        -3.2620    0.7520   -0.7340 hc        1 4YW      0.064367
     41 H11        -1.9780    0.6510   -2.0240 hc        1 4YW      0.064367
     42 H12        -3.1950   -0.6870   -1.8430 hc        1 4YW      0.064367
     43 H13         2.2710   -2.9330    4.3860 hn        1 4YW      0.432800
     44 H14         4.3760   -2.6210    5.4550 ha        1 4YW      0.155000
     45 H15         6.6680   -1.5860    5.1690 h4        1 4YW      0.026100
     46 H16         3.9050    1.7970    1.1980 h1        1 4YW      0.056950
     47 H17         3.6880    0.1980    0.3400 h1        1 4YW      0.056950
     48 H18         5.1740    0.8360   -1.4620 hc        1 4YW      0.068200
     49 H19         3.9660    2.1690   -1.1750 hc        1 4YW      0.068200
     50 H20         5.6500    3.4140    0.1660 h1        1 4YW      0.108700
     51 H21         7.9970    2.5860    0.3120 hc        1 4YW      0.068200
     52 H22         7.5270    1.0880   -0.6080 hc        1 4YW      0.068200
     53 H23         6.6030    2.0620    2.1870 h1        1 4YW      0.056950
     54 H24         7.5910    0.5860    1.7570 h1        1 4YW      0.056950
     55 H25         7.3880    4.9060   -0.5660 h1        1 4YW      0.119033
     56 H26         7.6480    5.3110   -2.2830 h1        1 4YW      0.119033
     57 H27         8.6020    4.0010   -1.5240 h1        1 4YW      0.119033
@<TRIPOS>BOND
     1    1    2 ar  
     2    1    6 ar  
     3    1    9 1   
     4    2   12 ar  
     5    2   31 1   
     6    3    7 1   
     7    3    8 1   
     8    3   13 1   
     9    3   32 1   
    10    4    5 ar  
    11    4   12 ar  
    12    4   14 1   
    13    5    6 ar  
    14    5   33 1   
    15    6   13 1   
    16    7   34 1   
    17    7   35 1   
    18    7   36 1   
    19    8   37 1   
    20    8   38 1   
    21    8   39 1   
    22    9   11 2   
    23   10   11 1   
    24   10   40 1   
    25   10   41 1   
    26   10   42 1   
    27   11   13 1   
    28   14   15 1   
    29   14   43 1   
    30   15   16 ar  
    31   15   20 ar  
    32   16   17 ar  
    33   16   44 1   
    34   17   18 ar  
    35   17   45 1   
    36   18   19 ar  
    37   19   20 ar  
    38   19   21 1   
    39   21   22 1   
    40   21   26 1   
    41   22   23 1   
    42   22   46 1   
    43   22   47 1   
    44   23   24 1   
    45   23   48 1   
    46   23   49 1   
    47   24   25 1   
    48   24   27 1   
    49   24   50 1   
    50   25   26 1   
    51   25   51 1   
    52   25   52 1   
    53   26   53 1   
    54   26   54 1   
    55   27   28 2   
    56   27   29 2   
    57   27   30 1   
    58   30   55 1   
    59   30   56 1   
    60   30   57 1   
@<TRIPOS>SUBSTRUCTURE
     1 4YW         1 TEMP              0 ****  ****    0 ROOT
