@<TRIPOS>MOLECULE
4YX
   64    67     1     0     0
SMALL
bcc


@<TRIPOS>ATOM
      1 C4          0.0740   -1.0370   -0.0650 ca        1 4YX     -0.054900
      2 C5          1.2440   -1.8310   -0.0240 ca        1 4YX      0.467200
      3 C11        -2.2990    1.1570    1.7220 c3        1 4YX      0.056000
      4 C7          1.6180   -1.2610    2.2100 ca        1 4YX      0.587200
      5 C8          0.4730   -0.4420    2.3030 ca        1 4YX     -0.206300
      6 C9         -0.3150   -0.3380    1.1490 ca        1 4YX     -0.048200
      7 C12        -2.8520    0.3770    2.9170 c3        1 4YX     -0.112600
      8 C13        -1.5610    2.3970    2.2320 c3        1 4YX     -0.112600
      9 N3         -0.8530   -0.7730   -1.0810 nc        1 4YX     -0.556100
     10 C1         -2.9730    0.5810   -1.2300 c3        1 4YX     -0.119400
     11 C2         -1.7780    0.0420   -0.5270 cd        1 4YX      0.426800
     12 N6          1.9890   -1.9450    1.0710 nb        1 4YX     -0.692000
     13 N10        -1.4940    0.3430    0.8370 na        1 4YX     -0.157300
     14 N14         2.4270   -1.3830    3.3920 nh        1 4YX     -0.806600
     15 C15         3.8110   -1.1230    3.3080 ca        1 4YX      0.699200
     16 C16         4.6600   -1.5960    4.3570 ca        1 4YX     -0.440600
     17 C17         5.9990   -1.1970    4.3090 ca        1 4YX      0.479200
     18 N18         6.5220   -0.4330    3.3370 nb        1 4YX     -0.764000
     19 C19         5.6490   -0.0460    2.3280 ca        1 4YX      0.882900
     20 N20         4.2990   -0.3440    2.2970 nb        1 4YX     -0.771000
     21 N21         6.2030    0.6350    1.2020 nh        1 4YX     -0.732300
     22 C22         5.2760    1.2210    0.2470 c3        1 4YX      0.199300
     23 C23         5.9500    1.5540   -1.0850 c3        1 4YX     -0.094900
     24 C24         7.2020    2.4210   -0.9080 c3        1 4YX      0.162800
     25 C25         8.1140    1.8070    0.1510 c3        1 4YX     -0.094900
     26 C26         7.3720    1.4640    1.4440 c3        1 4YX      0.199300
     27 C27         7.9920    2.4950   -2.2360 c3        1 4YX     -0.140400
     28 C28         7.1040    3.0760   -3.3250 c3        1 4YX      0.098800
     29 N29         7.8640    3.4340   -4.5620 n4        1 4YX     -0.838600
     30 O30         6.7200    3.7340   -0.6110 os        1 4YX     -0.431600
     31 C31         7.6040    4.6010    0.0800 c3        1 4YX      0.109700
     32 H1          1.5760   -2.4000   -0.9120 h4        1 4YX      0.036100
     33 H2         -3.1820    1.5120    1.1050 h1        1 4YX      0.066700
     34 H3          0.2150    0.0840    3.2310 ha        1 4YX      0.159000
     35 H4         -2.0260    0.0150    3.5760 hc        1 4YX      0.051533
     36 H5         -3.5140    1.0530    3.5090 hc        1 4YX      0.051533
     37 H6         -3.4500   -0.5030    2.5790 hc        1 4YX      0.051533
     38 H7         -1.2010    3.0270    1.3830 hc        1 4YX      0.051533
     39 H8         -2.2650    3.0010    2.8530 hc        1 4YX      0.051533
     40 H9         -0.6840    2.1110    2.8600 hc        1 4YX      0.051533
     41 H10        -3.9070    0.2300   -0.7250 hc        1 4YX      0.066700
     42 H11        -2.9880    0.2280   -2.2920 hc        1 4YX      0.066700
     43 H12        -2.9530    1.7000   -1.2250 hc        1 4YX      0.066700
     44 H13         2.2270   -2.2250    3.9000 hn        1 4YX      0.424800
     45 H14         4.2850   -2.2300    5.1670 ha        1 4YX      0.159000
     46 H15         6.7110   -1.5070    5.0980 h4        1 4YX      0.032100
     47 H16         4.8160    2.1650    0.6610 h1        1 4YX      0.070200
     48 H17         4.4470    0.4890    0.0260 h1        1 4YX      0.070200
     49 H18         6.2440    0.6110   -1.6130 hc        1 4YX      0.058950
     50 H19         5.1970    2.1020   -1.7080 hc        1 4YX      0.058950
     51 H20         8.5630    0.8700   -0.2730 hc        1 4YX      0.058950
     52 H21         8.9540    2.5040    0.4010 hc        1 4YX      0.058950
     53 H22         8.1000    0.9170    2.1100 h1        1 4YX      0.070200
     54 H23         7.0770    2.4240    1.9600 h1        1 4YX      0.070200
     55 H24         8.8960    3.1380   -2.0700 hc        1 4YX      0.070700
     56 H25         8.3340    1.4650   -2.5120 hc        1 4YX      0.070700
     57 H26         6.5990    4.0130   -2.9390 hx        1 4YX      0.124700
     58 H27         6.3100    2.3290   -3.6190 hx        1 4YX      0.124700
     59 H28         7.2260    3.8170   -5.2660 hn        1 4YX      0.458467
     60 H29         8.5810    4.1330   -4.3440 hn        1 4YX      0.458467
     61 H31         8.5850    4.6820   -0.4480 h1        1 4YX      0.045033
     62 H32         7.0700    5.5860    0.0730 h1        1 4YX      0.045033
     63 H33         7.7590    4.2570    1.1320 h1        1 4YX      0.045033
     64 H293        8.3260    2.6030   -4.9450 hn        1 4YX      0.458467
@<TRIPOS>BOND
     1    1    2 ar  
     2    1    6 ar  
     3    1    9 1   
     4    2   12 ar  
     5    2   32 1   
     6    3    7 1   
     7    3    8 1   
     8    3   13 1   
     9    3   33 1   
    10    4    5 ar  
    11    4   12 ar  
    12    4   14 1   
    13    5    6 ar  
    14    5   34 1   
    15    6   13 1   
    16    7   35 1   
    17    7   36 1   
    18    7   37 1   
    19    8   38 1   
    20    8   39 1   
    21    8   40 1   
    22    9   11 2   
    23   10   11 1   
    24   10   41 1   
    25   10   42 1   
    26   10   43 1   
    27   11   13 1   
    28   14   15 1   
    29   14   44 1   
    30   15   16 ar  
    31   15   20 ar  
    32   16   17 ar  
    33   16   45 1   
    34   17   18 ar  
    35   17   46 1   
    36   18   19 ar  
    37   19   20 ar  
    38   19   21 1   
    39   21   22 1   
    40   21   26 1   
    41   22   23 1   
    42   22   47 1   
    43   22   48 1   
    44   23   24 1   
    45   23   49 1   
    46   23   50 1   
    47   24   25 1   
    48   24   27 1   
    49   24   30 1   
    50   25   26 1   
    51   25   51 1   
    52   25   52 1   
    53   26   53 1   
    54   26   54 1   
    55   27   28 1   
    56   27   55 1   
    57   27   56 1   
    58   28   29 1   
    59   28   57 1   
    60   28   58 1   
    61   29   59 1   
    62   29   60 1   
    63   29   64 1   
    64   30   31 1   
    65   31   61 1   
    66   31   62 1   
    67   31   63 1   
@<TRIPOS>SUBSTRUCTURE
     1 4YX         1 TEMP              0 ****  ****    0 ROOT
