@<TRIPOS>MOLECULE
4YX
   64    67     1     0     0
SMALL
bcc


@<TRIPOS>ATOM
      1 C4          0.0900   -1.0630   -0.0580 ca        1 4YX     -0.054900
      2 C5          1.2650   -1.8480   -0.0110 ca        1 4YX      0.467200
      3 C11        -2.3030    1.1230    1.7130 c3        1 4YX      0.056000
      4 C7          1.6310   -1.2640    2.2210 ca        1 4YX      0.587200
      5 C8          0.4800   -0.4530    2.3070 ca        1 4YX     -0.206300
      6 C9         -0.3070   -0.3600    1.1510 ca        1 4YX     -0.048200
      7 C12        -2.8520    0.3450    2.9110 c3        1 4YX     -0.112600
      8 C13        -1.5740    2.3710    2.2180 c3        1 4YX     -0.112600
      9 N3         -0.8370   -0.8110   -1.0780 nc        1 4YX     -0.556100
     10 C1         -2.9670    0.5280   -1.2370 c3        1 4YX     -0.119400
     11 C2         -1.7700    0.0010   -0.5290 cd        1 4YX      0.426800
     12 N6          2.0090   -1.9520    1.0850 nb        1 4YX     -0.692000
     13 N10        -1.4900    0.3110    0.8340 na        1 4YX     -0.157300
     14 N14         2.4380   -1.3750    3.4050 nu        1 4YX     -0.807600
     15 C15         3.8210   -1.1070    3.3220 ca        1 4YX      0.699200
     16 C16         4.6710   -1.5700    4.3750 ca        1 4YX     -0.440600
     17 C17         6.0080   -1.1630    4.3270 ca        1 4YX      0.479200
     18 N18         6.5280   -0.4020    3.3510 nb        1 4YX     -0.764000
     19 C19         5.6540   -0.0260    2.3390 ca        1 4YX      0.882900
     20 N20         4.3070   -0.3310    2.3070 nb        1 4YX     -0.771000
     21 N21         6.2070    0.6530    1.2100 nh        1 4YX     -0.732300
     22 C22         5.2780    1.2290    0.2510 c3        1 4YX      0.199300
     23 C23         5.9520    1.5580   -1.0820 c3        1 4YX     -0.094900
     24 C24         7.2010    2.4310   -0.9090 c3        1 4YX      0.162800
     25 C25         8.1140    1.8270    0.1540 c3        1 4YX     -0.094900
     26 C26         7.3720    1.4870    1.4490 c3        1 4YX      0.199300
     27 C27         7.9920    2.5010   -2.2370 c3        1 4YX     -0.140400
     28 C28         7.1030    3.0720   -3.3300 c3        1 4YX      0.098800
     29 N29         7.8620    3.4260   -4.5670 nz        1 4YX     -0.838600
     30 O30         6.7130    3.7440   -0.6190 os        1 4YX     -0.431600
     31 C31         7.5930    4.6170    0.0680 c3        1 4YX      0.109700
     32 H1          1.6020   -2.4190   -0.8950 h4        1 4YX      0.036100
     33 H2         -3.1870    1.4690    1.0930 h1        1 4YX      0.066700
     34 H3          0.2160    0.0760    3.2320 ha        1 4YX      0.159000
     35 H4         -2.0250   -0.0070    3.5730 hc        1 4YX      0.051533
     36 H5         -3.5200    1.0190    3.4990 hc        1 4YX      0.051533
     37 H6         -3.4430   -0.5410    2.5770 hc        1 4YX      0.051533
     38 H7         -0.6970    2.0940    2.8500 hc        1 4YX      0.051533
     39 H8         -1.2180    2.9990    1.3670 hc        1 4YX      0.051533
     40 H9         -2.2840    2.9730    2.8350 hc        1 4YX      0.051533
     41 H10        -3.9000    0.1720   -0.7320 hc        1 4YX      0.066700
     42 H11        -2.9780    0.1690   -2.2970 hc        1 4YX      0.066700
     43 H12        -2.9550    1.6460   -1.2370 hc        1 4YX      0.066700
     44 H13         2.2420   -2.2150    3.9180 hn        1 4YX      0.424800
     45 H14         4.2970   -2.2010    5.1880 ha        1 4YX      0.159000
     46 H15         6.7200   -1.4640    5.1190 h4        1 4YX      0.032100
     47 H16         4.8140    2.1740    0.6590 h1        1 4YX      0.070200
     48 H17         4.4520    0.4930    0.0340 h1        1 4YX      0.070200
     49 H18         6.2510    0.6130   -1.6040 hc        1 4YX      0.058950
     50 H19         5.1970    2.1000   -1.7100 hc        1 4YX      0.058950
     51 H20         8.9510    2.5280    0.4010 hc        1 4YX      0.058950
     52 H21         8.5670    0.8890   -0.2640 hc        1 4YX      0.058950
     53 H22         8.1010    0.9470    2.1180 h1        1 4YX      0.070200
     54 H23         7.0720    2.4490    1.9600 h1        1 4YX      0.070200
     55 H24         8.8930    3.1480   -2.0730 hc        1 4YX      0.070700
     56 H25         8.3380    1.4700   -2.5070 hc        1 4YX      0.070700
     57 H26         6.5940    4.0090   -2.9490 hx        1 4YX      0.124700
     58 H27         6.3120    2.3210   -3.6200 hx        1 4YX      0.124700
     59 H28         8.3280    2.5950   -4.9450 hn        1 4YX      0.458467
     60 H29         8.5760    4.1300   -4.3530 hn        1 4YX      0.458467
     61 H31         8.5750    4.6990   -0.4600 h1        1 4YX      0.045033
     62 H32         7.0550    5.6000    0.0550 h1        1 4YX      0.045033
     63 H33         7.7480    4.2810    1.1220 h1        1 4YX      0.045033
     64 H293        7.2240    3.8030   -5.2740 hn        1 4YX      0.458467
@<TRIPOS>BOND
     1    1    2 ar  
     2    1    6 ar  
     3    1    9 1   
     4    2   12 ar  
     5    2   32 1   
     6    3    7 1   
     7    3    8 1   
     8    3   13 1   
     9    3   33 1   
    10    4    5 ar  
    11    4   12 ar  
    12    4   14 1   
    13    5    6 ar  
    14    5   34 1   
    15    6   13 1   
    16    7   35 1   
    17    7   36 1   
    18    7   37 1   
    19    8   38 1   
    20    8   39 1   
    21    8   40 1   
    22    9   11 2   
    23   10   11 1   
    24   10   41 1   
    25   10   42 1   
    26   10   43 1   
    27   11   13 1   
    28   14   15 1   
    29   14   44 1   
    30   15   16 ar  
    31   15   20 ar  
    32   16   17 ar  
    33   16   45 1   
    34   17   18 ar  
    35   17   46 1   
    36   18   19 ar  
    37   19   20 ar  
    38   19   21 1   
    39   21   22 1   
    40   21   26 1   
    41   22   23 1   
    42   22   47 1   
    43   22   48 1   
    44   23   24 1   
    45   23   49 1   
    46   23   50 1   
    47   24   25 1   
    48   24   27 1   
    49   24   30 1   
    50   25   26 1   
    51   25   51 1   
    52   25   52 1   
    53   26   53 1   
    54   26   54 1   
    55   27   28 1   
    56   27   55 1   
    57   27   56 1   
    58   28   29 1   
    59   28   57 1   
    60   28   58 1   
    61   29   59 1   
    62   29   60 1   
    63   29   64 1   
    64   30   31 1   
    65   31   61 1   
    66   31   62 1   
    67   31   63 1   
@<TRIPOS>SUBSTRUCTURE
     1 4YX         1 TEMP              0 ****  ****    0 ROOT
