@<TRIPOS>MOLECULE
4Z5
   61    63     1     0     0
SMALL
bcc


@<TRIPOS>ATOM
      1 O29         0.8640    2.0680   -0.2880 o         1 4Z5     -0.478100
      2 C23         1.3820    0.9830   -0.0090 c         1 4Z5      0.634100
      3 N24         2.3130    1.0640    1.2140 ny        1 4Z5     -0.673800
      4 C25         1.7560    0.3400    2.3960 c3        1 4Z5      0.103800
      5 C26         2.5870    0.5640    3.6520 c3        1 4Z5     -0.104400
      6 C27         2.0330   -0.2140    4.8510 c3        1 4Z5     -0.047000
      7 C31         2.1190   -1.7130    4.6070 c3        1 4Z5     -0.098767
      8 C30         2.8950    0.1420    6.0590 c3        1 4Z5     -0.098767
      9 C28         0.5930    0.1820    5.1340 c3        1 4Z5     -0.098767
     10 N22         1.1680   -0.2550   -0.5590 ns        1 4Z5     -0.389100
     11 C16         0.5470   -0.3880   -1.8330 ca        1 4Z5     -0.065400
     12 C15        -0.6070    0.3380   -2.1700 ca        1 4Z5     -0.076000
     13 C17         1.0760   -1.3180   -2.7740 ca        1 4Z5      0.122900
     14 F20         2.1880   -2.0340   -2.4750 f         1 4Z5     -0.137900
     15 C18         0.4340   -1.5030   -4.0050 ca        1 4Z5     -0.146000
     16 C19        -0.7140   -0.7740   -4.3300 ca        1 4Z5     -0.003300
     17 C21        -1.3530   -0.9740   -5.6520 c3        1 4Z5     -0.070800
     18 C12        -1.2360    0.1500   -3.4050 cp        1 4Z5     -0.008000
     19 C8         -2.4440    0.9210   -3.7000 cp        1 4Z5     -0.244300
     20 C7         -3.6940    0.3440   -3.6080 ca        1 4Z5     -0.001000
     21 C6         -4.8370    1.1240   -3.8740 ca        1 4Z5     -0.396600
     22 C1         -6.1770    0.6240   -3.8120 ca        1 4Z5      0.505200
     23 C9         -2.3550    2.3120   -4.0820 ca        1 4Z5      0.484600
     24 C11        -0.9860    2.9100   -4.2020 c3        1 4Z5     -0.159400
     25 N10        -3.4090    3.0770   -4.3360 nb        1 4Z5     -0.651000
     26 C5         -4.6800    2.5120   -4.2370 ca        1 4Z5      0.727300
     27 N4         -5.7720    3.3080   -4.4990 nb        1 4Z5     -0.751000
     28 C3         -7.0100    2.7180   -4.3910 ca        1 4Z5      0.909900
     29 N2         -7.2420    1.3550   -4.0540 nb        1 4Z5     -0.723000
     30 N13        -8.1120    3.5280   -4.6010 nu        1 4Z5     -0.841900
     31 C14        -9.4470    3.0170   -4.6590 c3        1 4Z5      0.207100
     32 H1          3.2410    0.7010    0.9860 hn        1 4Z5      0.461300
     33 H2          1.7180   -0.7590    2.1500 hx        1 4Z5      0.110200
     34 H3          0.7030    0.7150    2.5560 hx        1 4Z5      0.110200
     35 H4          3.6480    0.2390    3.4780 hc        1 4Z5      0.065700
     36 H5          2.5970    1.6570    3.9130 hc        1 4Z5      0.065700
     37 H6          3.1540   -2.0050    4.3100 hc        1 4Z5      0.048033
     38 H7          1.4060   -2.0330    3.8100 hc        1 4Z5      0.048033
     39 H8          1.8550   -2.2620    5.5450 hc        1 4Z5      0.048033
     40 H9          2.5370   -0.4150    6.9580 hc        1 4Z5      0.048033
     41 H10         3.9610   -0.1320    5.8730 hc        1 4Z5      0.048033
     42 H11         2.8340    1.2360    6.2740 hc        1 4Z5      0.048033
     43 H12        -0.0930   -0.2000    4.3400 hc        1 4Z5      0.048033
     44 H13         0.4940    1.2920    5.1970 hc        1 4Z5      0.048033
     45 H14         0.2660   -0.2560    6.1100 hc        1 4Z5      0.048033
     46 H15         1.7390   -1.0300   -0.2850 hn        1 4Z5      0.347500
     47 H16        -1.0240    1.0790   -1.4650 ha        1 4Z5      0.168000
     48 H17         0.8530   -2.2320   -4.7180 ha        1 4Z5      0.174000
     49 H18        -2.4630   -1.0640   -5.5390 hc        1 4Z5      0.067367
     50 H19        -1.1430   -0.0910   -6.3090 hc        1 4Z5      0.067367
     51 H20        -0.9680   -1.8920   -6.1590 hc        1 4Z5      0.067367
     52 H21        -3.8170   -0.7140   -3.3290 ha        1 4Z5      0.140000
     53 H22        -6.3560   -0.4370   -3.5490 h4        1 4Z5      0.030100
     54 H23        -1.0170    3.9940   -4.4730 hc        1 4Z5      0.060367
     55 H24        -0.4180    2.3600   -4.9940 hc        1 4Z5      0.060367
     56 H25        -0.4500    2.7980   -3.2270 hc        1 4Z5      0.060367
     57 H26        -7.9470    4.4560   -4.9230 hn        1 4Z5      0.460800
     58 H27        -9.7150    2.5070   -3.6940 h1        1 4Z5      0.052700
     59 H28       -10.1480    3.8780   -4.8250 h1        1 4Z5      0.052700
     60 H29        -9.5680    2.2780   -5.4970 h1        1 4Z5      0.052700
     61 H242        2.4050    2.0650    1.4430 hn        1 4Z5      0.461300
@<TRIPOS>BOND
     1    1    2 2   
     2    2    3 1   
     3    2   10 1   
     4    3    4 1   
     5    3   32 1   
     6    3   61 1   
     7    4    5 1   
     8    4   33 1   
     9    4   34 1   
    10    5    6 1   
    11    5   35 1   
    12    5   36 1   
    13    6    7 1   
    14    6    8 1   
    15    6    9 1   
    16    7   37 1   
    17    7   38 1   
    18    7   39 1   
    19    8   40 1   
    20    8   41 1   
    21    8   42 1   
    22    9   43 1   
    23    9   44 1   
    24    9   45 1   
    25   10   11 1   
    26   10   46 1   
    27   11   12 ar  
    28   11   13 ar  
    29   12   18 ar  
    30   12   47 1   
    31   13   14 1   
    32   13   15 ar  
    33   15   16 ar  
    34   15   48 1   
    35   16   17 1   
    36   16   18 ar  
    37   17   49 1   
    38   17   50 1   
    39   17   51 1   
    40   18   19 1   
    41   19   20 ar  
    42   19   23 ar  
    43   20   21 ar  
    44   20   52 1   
    45   21   22 ar  
    46   21   26 ar  
    47   22   29 ar  
    48   22   53 1   
    49   23   24 1   
    50   23   25 ar  
    51   24   54 1   
    52   24   55 1   
    53   24   56 1   
    54   25   26 ar  
    55   26   27 ar  
    56   27   28 ar  
    57   28   29 ar  
    58   28   30 1   
    59   30   31 1   
    60   30   57 1   
    61   31   58 1   
    62   31   59 1   
    63   31   60 1   
@<TRIPOS>SUBSTRUCTURE
     1 4Z5         1 TEMP              0 ****  ****    0 ROOT
