@<TRIPOS>MOLECULE
4Z5
   61    63     1     0     0
SMALL
bcc


@<TRIPOS>ATOM
      1 O29        -0.8260    1.6590    0.7600 o         1 4Z5     -0.478100
      2 C23         0.3250    1.2200    0.6820 c         1 4Z5      0.635100
      3 N24         1.1840    1.5790    1.9090 n4        1 4Z5     -0.673800
      4 C25         1.5670    0.3700    2.6960 c3        1 4Z5      0.102800
      5 C26         2.2710    0.7290    3.9980 c3        1 4Z5     -0.103400
      6 C27         2.6940   -0.5180    4.7820 c3        1 4Z5     -0.048000
      7 C31         3.7210   -1.3230    4.0030 c3        1 4Z5     -0.098767
      8 C30         3.3250   -0.0390    6.0870 c3        1 4Z5     -0.098767
      9 C28         1.4900   -1.3890    5.1040 c3        1 4Z5     -0.098767
     10 N22         0.9530    0.5810   -0.3560 n         1 4Z5     -0.390100
     11 C16         0.2060    0.0280   -1.4350 ca        1 4Z5     -0.063400
     12 C15        -0.8430    0.7340   -2.0460 ca        1 4Z5     -0.076000
     13 C17         0.5670   -1.2520   -1.9480 ca        1 4Z5      0.121900
     14 F20         1.5710   -1.9590   -1.3730 f         1 4Z5     -0.138900
     15 C18        -0.1070   -1.7710   -3.0600 ca        1 4Z5     -0.146000
     16 C19        -1.1440   -1.0560   -3.6660 ca        1 4Z5     -0.004300
     17 C21        -1.8310   -1.6250   -4.8480 c3        1 4Z5     -0.070800
     18 C12        -1.5140    0.2010   -3.1510 cp        1 4Z5     -0.008000
     19 C8         -2.6070    0.9730   -3.7460 cp        1 4Z5     -0.245300
     20 C7         -3.9210    0.7130   -3.4210 ca        1 4Z5      0.001000
     21 C6         -4.9430    1.4930   -3.9950 ca        1 4Z5     -0.396600
     22 C1         -6.3380    1.3050   -3.7300 ca        1 4Z5      0.505200
     23 C9         -2.3280    2.0390   -4.6820 ca        1 4Z5      0.483600
     24 C11        -0.8930    2.2820   -5.0430 c3        1 4Z5     -0.158400
     25 N10        -3.2640    2.7970   -5.2390 nb        1 4Z5     -0.651000
     26 C5         -4.5970    2.5530   -4.9120 ca        1 4Z5      0.727300
     27 N4         -5.5660    3.3410   -5.4880 nb        1 4Z5     -0.750000
     28 C3         -6.8700    3.0740   -5.1440 ca        1 4Z5      0.909900
     29 N2         -7.2890    2.0390   -4.2610 nb        1 4Z5     -0.724000
     30 N13        -7.8440    3.8970   -5.6800 nh        1 4Z5     -0.841900
     31 C14        -9.2440    3.6490   -5.5170 c3        1 4Z5      0.207100
     32 H1          0.6060    2.1990    2.4960 hn        1 4Z5      0.462800
     33 H2          2.2440   -0.2660    2.0570 hx        1 4Z5      0.108700
     34 H3          0.6210   -0.2060    2.9150 hx        1 4Z5      0.108700
     35 H4          3.1870    1.3430    3.7860 hc        1 4Z5      0.066200
     36 H5          1.5850    1.3400    4.6460 hc        1 4Z5      0.066200
     37 H6          4.5680   -0.6720    3.6780 hc        1 4Z5      0.048144
     38 H7          3.2630   -1.8000    3.1030 hc        1 4Z5      0.048144
     39 H8          4.1320   -2.1370    4.6500 hc        1 4Z5      0.048144
     40 H9          4.2100    0.6090    5.8780 hc        1 4Z5      0.048144
     41 H10         2.5850    0.5410    6.6890 hc        1 4Z5      0.048144
     42 H11         3.6630   -0.9160    6.6900 hc        1 4Z5      0.048144
     43 H12         0.6790   -0.7830    5.5720 hc        1 4Z5      0.048144
     44 H13         1.7880   -2.1930    5.8220 hc        1 4Z5      0.048144
     45 H14         1.0930   -1.8810    4.1840 hc        1 4Z5      0.048144
     46 H15         1.8610    0.1820   -0.2230 hn        1 4Z5      0.347500
     47 H16        -1.1550    1.7160   -1.6520 ha        1 4Z5      0.169000
     48 H17         0.1930   -2.7570   -3.4510 ha        1 4Z5      0.174000
     49 H18        -1.5100   -1.0750   -5.7710 hc        1 4Z5      0.067700
     50 H19        -2.9400   -1.5100   -4.7470 hc        1 4Z5      0.067700
     51 H20        -1.5920   -2.7090   -4.9790 hc        1 4Z5      0.067700
     52 H21        -4.1880   -0.0930   -2.7190 ha        1 4Z5      0.140000
     53 H22        -6.6620    0.4990   -3.0420 h4        1 4Z5      0.030100
     54 H23        -0.3010    2.4400   -4.1090 hc        1 4Z5      0.060033
     55 H24        -0.4970    1.3810   -5.5750 hc        1 4Z5      0.060033
     56 H25        -0.7660    3.1730   -5.7070 hc        1 4Z5      0.060033
     57 H26        -7.5580    4.5640   -6.3630 hn        1 4Z5      0.460800
     58 H27        -9.8100    4.4680   -6.0350 h1        1 4Z5      0.052700
     59 H28        -9.5390    2.6600   -5.9620 h1        1 4Z5      0.052700
     60 H29        -9.5180    3.6450   -4.4280 h1        1 4Z5      0.052700
     61 H242        2.0230    2.0960    1.6290 hn        1 4Z5      0.462800
@<TRIPOS>BOND
     1    1    2 2   
     2    2    3 1   
     3    2   10 1   
     4    3    4 1   
     5    3   32 1   
     6    3   61 1   
     7    4    5 1   
     8    4   33 1   
     9    4   34 1   
    10    5    6 1   
    11    5   35 1   
    12    5   36 1   
    13    6    7 1   
    14    6    8 1   
    15    6    9 1   
    16    7   37 1   
    17    7   38 1   
    18    7   39 1   
    19    8   40 1   
    20    8   41 1   
    21    8   42 1   
    22    9   43 1   
    23    9   44 1   
    24    9   45 1   
    25   10   11 1   
    26   10   46 1   
    27   11   12 ar  
    28   11   13 ar  
    29   12   18 ar  
    30   12   47 1   
    31   13   14 1   
    32   13   15 ar  
    33   15   16 ar  
    34   15   48 1   
    35   16   17 1   
    36   16   18 ar  
    37   17   49 1   
    38   17   50 1   
    39   17   51 1   
    40   18   19 1   
    41   19   20 ar  
    42   19   23 ar  
    43   20   21 ar  
    44   20   52 1   
    45   21   22 ar  
    46   21   26 ar  
    47   22   29 ar  
    48   22   53 1   
    49   23   24 1   
    50   23   25 ar  
    51   24   54 1   
    52   24   55 1   
    53   24   56 1   
    54   25   26 ar  
    55   26   27 ar  
    56   27   28 ar  
    57   28   29 ar  
    58   28   30 1   
    59   30   31 1   
    60   30   57 1   
    61   31   58 1   
    62   31   59 1   
    63   31   60 1   
@<TRIPOS>SUBSTRUCTURE
     1 4Z5         1 TEMP              0 ****  ****    0 ROOT
