@<TRIPOS>MOLECULE
4Z8
   55    57     1     0     0
SMALL
bcc


@<TRIPOS>ATOM
      1 C4         -0.4030   -1.3980    0.1130 ca        1 4Z8     -0.041900
      2 C5          0.8380   -2.0590   -0.0400 ca        1 4Z8      0.475200
      3 C11        -2.6050    0.7320    2.1790 c3        1 4Z8      0.053000
      4 C7          1.5750   -1.2500    2.0200 ca        1 4Z8      0.575200
      5 C8          0.3880   -0.5430    2.2970 ca        1 4Z8     -0.204300
      6 C9         -0.6220   -0.6260    1.3270 ca        1 4Z8     -0.049200
      7 C12        -2.8230    0.0380    3.5260 c3        1 4Z8     -0.113100
      8 C13        -1.9190    2.0790    2.4120 c3        1 4Z8     -0.113100
      9 N3         -1.5380   -1.3290   -0.7020 nc        1 4Z8     -0.548100
     10 C1         -3.7860   -0.2040   -0.5110 c3        1 4Z8     -0.123400
     11 C2         -2.4220   -0.5570   -0.0300 cd        1 4Z8      0.439800
     12 N6          1.7960   -1.9950    0.8800 nb        1 4Z8     -0.697000
     13 N10        -1.9100   -0.1000    1.2190 na        1 4Z8     -0.154300
     14 N14         2.6180   -1.2000    3.0050 nh        1 4Z8     -0.806600
     15 C15         3.9350   -0.9500    2.6430 ca        1 4Z8      0.737200
     16 C16         4.9960   -1.3060    3.5480 ca        1 4Z8     -0.420600
     17 C17         6.2940   -0.9600    3.1850 ca        1 4Z8      0.491200
     18 N18         6.5970   -0.3210    2.0350 nb        1 4Z8     -0.864000
     19 C19         5.5280    0.0020    1.2180 ca        1 4Z8      0.854900
     20 N20         4.2120   -0.2750    1.4750 nb        1 4Z8     -0.737000
     21 N21         5.8550    0.6200   -0.0430 nh        1 4Z8     -0.850900
     22 C22         6.4090    1.9560    0.0480 c3        1 4Z8      0.165800
     23 C23         7.7150    2.1420   -0.7620 c3        1 4Z8     -0.107000
     24 C24         7.5740    1.6620   -2.1970 c3        1 4Z8     -0.105600
     25 C25         8.0480    3.6340   -0.7580 c3        1 4Z8     -0.105600
     26 C26         8.8780    1.4160   -0.1050 c         1 4Z8      0.551100
     27 O27         9.9660    1.8820    0.2050 o         1 4Z8     -0.426100
     28 N28         8.7030   -0.0370    0.1990 n4        1 4Z8     -0.776400
     29 H1          1.0520   -2.6680   -0.9390 h4        1 4Z8      0.045100
     30 H2         -3.6260    0.9390    1.7300 h1        1 4Z8      0.072700
     31 H3          0.2590    0.0390    3.2180 ha        1 4Z8      0.158000
     32 H4         -3.3740   -0.9240    3.3980 hc        1 4Z8      0.052033
     33 H5         -3.4270    0.7120    4.1790 hc        1 4Z8      0.052033
     34 H6         -1.8490   -0.1710    4.0310 hc        1 4Z8      0.052033
     35 H7         -2.5500    2.6850    3.1060 hc        1 4Z8      0.052033
     36 H8         -0.9110    1.9420    2.8720 hc        1 4Z8      0.052033
     37 H9         -1.8010    2.6410    1.4540 hc        1 4Z8      0.052033
     38 H10        -4.5560   -0.5850    0.2050 hc        1 4Z8      0.072033
     39 H11        -3.9720   -0.6650   -1.5140 hc        1 4Z8      0.072033
     40 H12        -3.8870    0.9060   -0.6030 hc        1 4Z8      0.072033
     41 H13         2.5000   -1.8530    3.7550 hn        1 4Z8      0.445800
     42 H14         4.7930   -1.8310    4.4900 ha        1 4Z8      0.173000
     43 H15         7.1530   -1.2080    3.8380 h4        1 4Z8      0.037100
     44 H16         5.0810    0.5780   -0.6840 hn        1 4Z8      0.431800
     45 H17         5.6740    2.7110   -0.3630 h1        1 4Z8      0.079700
     46 H18         6.6210    2.2480    1.1160 h1        1 4Z8      0.079700
     47 H19         7.3600    0.5690   -2.2620 hc        1 4Z8      0.068200
     48 H20         8.5050    1.8830   -2.7760 hc        1 4Z8      0.068200
     49 H21         6.7250    2.2080   -2.6810 hc        1 4Z8      0.068200
     50 H22         7.2480    4.1960   -1.2980 hc        1 4Z8      0.068200
     51 H23         9.0230    3.8140   -1.2720 hc        1 4Z8      0.068200
     52 H24         8.1200    4.0180    0.2880 hc        1 4Z8      0.068200
     53 H25         9.6070   -0.4860    0.3570 hn        1 4Z8      0.479800
     54 H26         8.1080   -0.1390    1.0750 hn        1 4Z8      0.479800
     55 H283        8.2100   -0.5020   -0.5680 hn        1 4Z8      0.479800
@<TRIPOS>BOND
     1    1    2 ar  
     2    1    6 ar  
     3    1    9 1   
     4    2   12 ar  
     5    2   29 1   
     6    3    7 1   
     7    3    8 1   
     8    3   13 1   
     9    3   30 1   
    10    4    5 ar  
    11    4   12 ar  
    12    4   14 1   
    13    5    6 ar  
    14    5   31 1   
    15    6   13 1   
    16    7   32 1   
    17    7   33 1   
    18    7   34 1   
    19    8   35 1   
    20    8   36 1   
    21    8   37 1   
    22    9   11 2   
    23   10   11 1   
    24   10   38 1   
    25   10   39 1   
    26   10   40 1   
    27   11   13 1   
    28   14   15 1   
    29   14   41 1   
    30   15   16 ar  
    31   15   20 ar  
    32   16   17 ar  
    33   16   42 1   
    34   17   18 ar  
    35   17   43 1   
    36   18   19 ar  
    37   19   20 ar  
    38   19   21 1   
    39   21   22 1   
    40   21   44 1   
    41   22   23 1   
    42   22   45 1   
    43   22   46 1   
    44   23   24 1   
    45   23   25 1   
    46   23   26 1   
    47   24   47 1   
    48   24   48 1   
    49   24   49 1   
    50   25   50 1   
    51   25   51 1   
    52   25   52 1   
    53   26   27 2   
    54   26   28 1   
    55   28   53 1   
    56   28   54 1   
    57   28   55 1   
@<TRIPOS>SUBSTRUCTURE
     1 4Z8         1 TEMP              0 ****  ****    0 ROOT
