@<TRIPOS>MOLECULE
4Z8
   55    57     1     0     0
SMALL
bcc


@<TRIPOS>ATOM
      1 C4         -0.3820   -2.0040    0.7500 ca        1 4Z8     -0.046900
      2 C5          0.8640   -2.6160    1.0220 ca        1 4Z8      0.473200
      3 C11        -2.7730    0.7200    1.4590 c3        1 4Z8      0.055000
      4 C7          1.3910   -0.9600    2.5820 ca        1 4Z8      0.577200
      5 C8          0.1850   -0.2530    2.4040 ca        1 4Z8     -0.203300
      6 C9         -0.7200   -0.7910    1.4770 ca        1 4Z8     -0.050200
      7 C12        -3.1300    0.6710    2.9460 c3        1 4Z8     -0.113100
      8 C13        -2.1090    2.0620    1.1460 c3        1 4Z8     -0.113100
      9 N3         -1.4270   -2.3430   -0.1170 nc        1 4Z8     -0.550100
     10 C1         -3.6770   -1.3380   -0.6510 c3        1 4Z8     -0.120400
     11 C2         -2.3710   -1.3910    0.0610 cd        1 4Z8      0.432800
     12 N6          1.7210   -2.1180    1.9080 nb        1 4Z8     -0.697000
     13 N10        -1.9870   -0.4150    1.0270 na        1 4Z8     -0.156300
     14 N14         2.3250   -0.4350    3.5410 nu        1 4Z8     -0.803600
     15 C15         3.6640   -0.2460    3.1680 ca        1 4Z8      0.713200
     16 C16         4.6650   -0.1560    4.1920 ca        1 4Z8     -0.434600
     17 C17         5.9660    0.1330    3.7860 ca        1 4Z8      0.477200
     18 N18         6.3300    0.3300    2.5030 nb        1 4Z8     -0.798000
     19 C19         5.3090    0.2280    1.5740 ca        1 4Z8      0.873900
     20 N20         3.9880   -0.0630    1.8510 nb        1 4Z8     -0.755000
     21 N21         5.6030    0.4900    0.2080 nu        1 4Z8     -0.848900
     22 C22         6.9030    0.2120   -0.3120 c3        1 4Z8      0.230800
     23 C23         7.7230    1.5120   -0.6300 c3        1 4Z8     -0.113000
     24 C24         7.0610    2.3000   -1.7500 c3        1 4Z8     -0.114100
     25 C25         7.8970    2.3730    0.6030 c3        1 4Z8     -0.114100
     26 C26         9.0600    1.0090   -1.1540 c         1 4Z8      0.549100
     27 O27         9.3410   -0.0480   -1.6900 o         1 4Z8     -0.400100
     28 N28        10.2360    1.9670   -1.0230 nz        1 4Z8     -0.768400
     29 H1          1.1660   -3.5460    0.5060 h4        1 4Z8      0.042100
     30 H2         -3.7430    0.6710    0.8720 h1        1 4Z8      0.069700
     31 H3         -0.0340    0.6680    2.9600 ha        1 4Z8      0.158000
     32 H4         -2.2140    0.7370    3.5800 hc        1 4Z8      0.051533
     33 H5         -3.7930    1.5380    3.1830 hc        1 4Z8      0.051533
     34 H6         -3.6720   -0.2720    3.1990 hc        1 4Z8      0.051533
     35 H7         -2.8040    2.8830    1.4480 hc        1 4Z8      0.051533
     36 H8         -1.8940    2.1590    0.0550 hc        1 4Z8      0.051533
     37 H9         -1.1520    2.1770    1.7100 hc        1 4Z8      0.051533
     38 H10        -4.5180   -1.4010    0.0830 hc        1 4Z8      0.069033
     39 H11        -3.7610   -2.1960   -1.3650 hc        1 4Z8      0.069033
     40 H12        -3.7630   -0.3830   -1.2270 hc        1 4Z8      0.069033
     41 H13         2.2240   -0.8580    4.4450 hn        1 4Z8      0.429800
     42 H14         4.4210   -0.3100    5.2500 ha        1 4Z8      0.164000
     43 H15         6.7860    0.2110    4.5250 h4        1 4Z8      0.029100
     44 H16         4.8470    0.3050   -0.4210 hn        1 4Z8      0.448800
     45 H17         6.8100   -0.3540   -1.2850 h1        1 4Z8      0.073200
     46 H18         7.5260   -0.4080    0.3940 h1        1 4Z8      0.073200
     47 H19         6.0560    2.6510   -1.4030 hc        1 4Z8      0.069200
     48 H20         7.6680    3.1980   -2.0200 hc        1 4Z8      0.069200
     49 H21         6.9180    1.6650   -2.6580 hc        1 4Z8      0.069200
     50 H22         6.8880    2.6320    1.0190 hc        1 4Z8      0.069200
     51 H23         8.4560    1.8290    1.4030 hc        1 4Z8      0.069200
     52 H24         8.4070    3.3380    0.3640 hc        1 4Z8      0.069200
     53 H25        10.0030    2.8570   -1.4710 hn        1 4Z8      0.466467
     54 H26        11.0760    1.5710   -1.4610 hn        1 4Z8      0.466467
     55 H283       10.4200    2.1390   -0.0290 hn        1 4Z8      0.466467
@<TRIPOS>BOND
     1    1    2 ar  
     2    1    6 ar  
     3    1    9 1   
     4    2   12 ar  
     5    2   29 1   
     6    3    7 1   
     7    3    8 1   
     8    3   13 1   
     9    3   30 1   
    10    4    5 ar  
    11    4   12 ar  
    12    4   14 1   
    13    5    6 ar  
    14    5   31 1   
    15    6   13 1   
    16    7   32 1   
    17    7   33 1   
    18    7   34 1   
    19    8   35 1   
    20    8   36 1   
    21    8   37 1   
    22    9   11 2   
    23   10   11 1   
    24   10   38 1   
    25   10   39 1   
    26   10   40 1   
    27   11   13 1   
    28   14   15 1   
    29   14   41 1   
    30   15   16 ar  
    31   15   20 ar  
    32   16   17 ar  
    33   16   42 1   
    34   17   18 ar  
    35   17   43 1   
    36   18   19 ar  
    37   19   20 ar  
    38   19   21 1   
    39   21   22 1   
    40   21   44 1   
    41   22   23 1   
    42   22   45 1   
    43   22   46 1   
    44   23   24 1   
    45   23   25 1   
    46   23   26 1   
    47   24   47 1   
    48   24   48 1   
    49   24   49 1   
    50   25   50 1   
    51   25   51 1   
    52   25   52 1   
    53   26   27 2   
    54   26   28 1   
    55   28   53 1   
    56   28   54 1   
    57   28   55 1   
@<TRIPOS>SUBSTRUCTURE
     1 4Z8         1 TEMP              0 ****  ****    0 ROOT
