@<TRIPOS>MOLECULE
4ZB
   56    59     1     0     0
SMALL
bcc


@<TRIPOS>ATOM
      1 C4         -0.0720   -1.2650    0.0530 ca        1 4ZB     -0.048900
      2 C5          1.1360   -1.9960    0.1280 ca        1 4ZB      0.472200
      3 C11        -2.5170    0.9530    1.7100 c3        1 4ZB      0.055000
      4 C7          1.5160   -1.2410    2.3050 ca        1 4ZB      0.579200
      5 C8          0.3360   -0.4710    2.3600 ca        1 4ZB     -0.207300
      6 C9         -0.4740   -0.4920    1.2170 ca        1 4ZB     -0.050200
      7 C12        -3.0160    0.2470    2.9730 c3        1 4ZB     -0.112600
      8 C13        -1.8280    2.2610    2.1050 c3        1 4ZB     -0.112600
      9 N3         -1.0270   -1.1260   -0.9610 nc        1 4ZB     -0.550100
     10 C1         -3.2090    0.1170   -1.1750 c3        1 4ZB     -0.120400
     11 C2         -1.9800   -0.3120   -0.4540 cd        1 4ZB      0.432800
     12 N6          1.9030   -1.9920    1.2140 nb        1 4ZB     -0.693000
     13 N10        -1.6890    0.1070    0.8770 na        1 4ZB     -0.157300
     14 N14         2.3510   -1.2450    3.4750 nh        1 4ZB     -0.805600
     15 C15         3.7290   -1.0080    3.3450 ca        1 4ZB      0.709200
     16 C16         4.6050   -1.4310    4.3980 ca        1 4ZB     -0.432600
     17 C17         5.9460   -1.0570    4.2990 ca        1 4ZB      0.479200
     18 N18         6.4550   -0.3530    3.2700 nb        1 4ZB     -0.789000
     19 C19         5.5530   -0.0160    2.2730 ca        1 4ZB      0.868900
     20 N20         4.2020   -0.2920    2.2770 nb        1 4ZB     -0.746000
     21 N21         6.0740    0.5880    1.0910 nh        1 4ZB     -0.725300
     22 C22         5.1930    1.3960    0.2540 c3        1 4ZB      0.191800
     23 C23         6.0690    2.3930   -0.5250 c3        1 4ZB     -0.092400
     24 C24         7.5210    2.1290   -0.0740 c3        1 4ZB     -0.129000
     25 C25         7.3930    1.1880    1.1620 c3        1 4ZB      0.202800
     26 C26         8.3170    1.4640   -1.1820 c3        1 4ZB     -0.112100
     27 C27         8.1900    3.4200    0.3350 c         1 4ZB      0.560100
     28 O28         7.8020    4.5710    0.2840 o         1 4ZB     -0.387100
     29 N29         9.5940    3.2600    0.9100 n4        1 4ZB     -0.771400
     30 H1          1.4830   -2.6120   -0.7220 h4        1 4ZB      0.042100
     31 H2         -3.4240    1.2180    1.0830 h1        1 4ZB      0.069700
     32 H3          0.0670    0.1110    3.2510 ha        1 4ZB      0.157000
     33 H4         -2.1660   -0.0220    3.6440 hc        1 4ZB      0.051200
     34 H5         -3.7000    0.9390    3.5210 hc        1 4ZB      0.051200
     35 H6         -3.5780   -0.6830    2.7170 hc        1 4ZB      0.051200
     36 H7         -0.9320    2.0660    2.7410 hc        1 4ZB      0.051200
     37 H8         -1.5080    2.8350    1.2030 hc        1 4ZB      0.051200
     38 H9         -2.5510    2.8830    2.6860 hc        1 4ZB      0.051200
     39 H10        -3.2380    1.2320   -1.2590 hc        1 4ZB      0.069367
     40 H11        -3.2240   -0.3190   -2.2060 hc        1 4ZB      0.069367
     41 H12        -4.1190   -0.2340   -0.6270 hc        1 4ZB      0.069367
     42 H13         2.1400   -2.0070    4.0920 hn        1 4ZB      0.429800
     43 H14         4.2420   -2.0170    5.2500 ha        1 4ZB      0.164000
     44 H15         6.6730   -1.3360    5.0850 h4        1 4ZB      0.032100
     45 H16         4.4180    1.9530    0.8510 h1        1 4ZB      0.087700
     46 H17         4.6540    0.6960   -0.4450 h1        1 4ZB      0.087700
     47 H18         5.7530    3.4430   -0.3020 hc        1 4ZB      0.085200
     48 H19         5.9660    2.2300   -1.6270 hc        1 4ZB      0.085200
     49 H20         8.1590    0.3650    1.1190 h1        1 4ZB      0.058700
     50 H21         7.5460    1.7730    2.1140 h1        1 4ZB      0.058700
     51 H22         9.3160    1.1160   -0.8260 hc        1 4ZB      0.070700
     52 H23         8.4500    2.1540   -2.0510 hc        1 4ZB      0.070700
     53 H24         7.7510    0.5620   -1.5350 hc        1 4ZB      0.070700
     54 H25         9.9460    4.1600    1.2550 hn        1 4ZB      0.469133
     55 H26         9.5750    2.5830    1.6800 hn        1 4ZB      0.469133
     56 H293       10.2220    2.9110    0.1800 hn        1 4ZB      0.469133
@<TRIPOS>BOND
     1    1    2 ar  
     2    1    6 ar  
     3    1    9 1   
     4    2   12 ar  
     5    2   30 1   
     6    3    7 1   
     7    3    8 1   
     8    3   13 1   
     9    3   31 1   
    10    4    5 ar  
    11    4   12 ar  
    12    4   14 1   
    13    5    6 ar  
    14    5   32 1   
    15    6   13 1   
    16    7   33 1   
    17    7   34 1   
    18    7   35 1   
    19    8   36 1   
    20    8   37 1   
    21    8   38 1   
    22    9   11 2   
    23   10   11 1   
    24   10   39 1   
    25   10   40 1   
    26   10   41 1   
    27   11   13 1   
    28   14   15 1   
    29   14   42 1   
    30   15   16 ar  
    31   15   20 ar  
    32   16   17 ar  
    33   16   43 1   
    34   17   18 ar  
    35   17   44 1   
    36   18   19 ar  
    37   19   20 ar  
    38   19   21 1   
    39   21   22 1   
    40   21   25 1   
    41   22   23 1   
    42   22   45 1   
    43   22   46 1   
    44   23   24 1   
    45   23   47 1   
    46   23   48 1   
    47   24   25 1   
    48   24   26 1   
    49   24   27 1   
    50   25   49 1   
    51   25   50 1   
    52   26   51 1   
    53   26   52 1   
    54   26   53 1   
    55   27   28 2   
    56   27   29 1   
    57   29   54 1   
    58   29   55 1   
    59   29   56 1   
@<TRIPOS>SUBSTRUCTURE
     1 4ZB         1 TEMP              0 ****  ****    0 ROOT
