@<TRIPOS>MOLECULE
4ZB
   56    59     1     0     0
SMALL
bcc


@<TRIPOS>ATOM
      1 C4         -0.0950   -1.2170    0.0390 ca        1 4ZB     -0.048900
      2 C5          1.1080   -1.9590    0.0930 ca        1 4ZB      0.472200
      3 C11        -2.5130    0.9890    1.7500 c3        1 4ZB      0.055000
      4 C7          1.5060   -1.2450    2.2810 ca        1 4ZB      0.579200
      5 C8          0.3330   -0.4670    2.3570 ca        1 4ZB     -0.207300
      6 C9         -0.4850   -0.4620    1.2190 ca        1 4ZB     -0.050200
      7 C12        -3.0100    0.2640    3.0030 c3        1 4ZB     -0.112600
      8 C13        -1.8130    2.2850    2.1640 c3        1 4ZB     -0.112600
      9 N3         -1.0550   -1.0530   -0.9670 nc        1 4ZB     -0.550100
     10 C1         -3.2290    0.2090   -1.1450 c3        1 4ZB     -0.120400
     11 C2         -2.0000   -0.2420   -0.4400 cd        1 4ZB      0.432800
     12 N6          1.8820   -1.9790    1.1750 nb        1 4ZB     -0.693000
     13 N10        -1.6970    0.1520    0.8970 na        1 4ZB     -0.157300
     14 N14         2.3480   -1.2750    3.4460 nu        1 4ZB     -0.805600
     15 C15         3.7280   -1.0490    3.3120 ca        1 4ZB      0.709200
     16 C16         4.6060   -1.4960    4.3520 ca        1 4ZB     -0.432600
     17 C17         5.9500   -1.1330    4.2510 ca        1 4ZB      0.479200
     18 N18         6.4590   -0.4160    3.2320 nb        1 4ZB     -0.789000
     19 C19         5.5540   -0.0550    2.2450 ca        1 4ZB      0.868900
     20 N20         4.2010   -0.3180    2.2530 nb        1 4ZB     -0.746000
     21 N21         6.0740    0.5640    1.0700 nh        1 4ZB     -0.725300
     22 C22         5.1960    1.3930    0.2520 c3        1 4ZB      0.191800
     23 C23         6.0760    2.3960   -0.5160 c3        1 4ZB     -0.092400
     24 C24         7.5280    2.1120   -0.0780 c3        1 4ZB     -0.129000
     25 C25         7.3990    1.1510    1.1440 c3        1 4ZB      0.202800
     26 C26         8.3120    1.4580   -1.2010 c3        1 4ZB     -0.112100
     27 C27         8.2100    3.3890    0.3490 c         1 4ZB      0.560100
     28 O28         7.8320    4.5450    0.3190 o         1 4ZB     -0.387100
     29 N29         9.6160    3.2080    0.9140 nz        1 4ZB     -0.771400
     30 H1          1.4450   -2.5620   -0.7700 h4        1 4ZB      0.042100
     31 H2         -3.4230    1.2720    1.1330 h1        1 4ZB      0.069700
     32 H3          0.0730    0.1020    3.2600 ha        1 4ZB      0.157000
     33 H4         -2.1580   -0.0230    3.6640 hc        1 4ZB      0.051200
     34 H5         -3.6860    0.9510    3.5670 hc        1 4ZB      0.051200
     35 H6         -3.5800   -0.6570    2.7340 hc        1 4ZB      0.051200
     36 H7         -0.9140    2.0720    2.7910 hc        1 4ZB      0.051200
     37 H8         -2.5280    2.9010    2.7600 hc        1 4ZB      0.051200
     38 H9         -1.4940    2.8720    1.2700 hc        1 4ZB      0.051200
     39 H10        -3.2510    1.3260   -1.2090 hc        1 4ZB      0.069367
     40 H11        -3.2540   -0.2090   -2.1830 hc        1 4ZB      0.069367
     41 H12        -4.1380   -0.1440   -0.5980 hc        1 4ZB      0.069367
     42 H13         2.1340   -2.0460    4.0510 hn        1 4ZB      0.429800
     43 H14         4.2430   -2.0930    5.1960 ha        1 4ZB      0.164000
     44 H15         6.6780   -1.4310    5.0290 h4        1 4ZB      0.032100
     45 H16         4.6470    0.7100   -0.4550 h1        1 4ZB      0.087700
     46 H17         4.4290    1.9470    0.8630 h1        1 4ZB      0.087700
     47 H18         5.7710    3.4450   -0.2740 hc        1 4ZB      0.085200
     48 H19         5.9660    2.2520   -1.6200 hc        1 4ZB      0.085200
     49 H20         7.5620    1.7200    2.1040 h1        1 4ZB      0.058700
     50 H21         8.1570    0.3230    1.0830 h1        1 4ZB      0.058700
     51 H22         8.4460    2.1610   -2.0580 hc        1 4ZB      0.070700
     52 H23         9.3100    1.0960   -0.8560 hc        1 4ZB      0.070700
     53 H24         7.7370    0.5670   -1.5650 hc        1 4ZB      0.070700
     54 H25        10.2370    2.8650    0.1740 hn        1 4ZB      0.469133
     55 H26         9.5960    2.5190    1.6720 hn        1 4ZB      0.469133
     56 H293        9.9780    4.1000    1.2710 hn        1 4ZB      0.469133
@<TRIPOS>BOND
     1    1    2 ar  
     2    1    6 ar  
     3    1    9 1   
     4    2   12 ar  
     5    2   30 1   
     6    3    7 1   
     7    3    8 1   
     8    3   13 1   
     9    3   31 1   
    10    4    5 ar  
    11    4   12 ar  
    12    4   14 1   
    13    5    6 ar  
    14    5   32 1   
    15    6   13 1   
    16    7   33 1   
    17    7   34 1   
    18    7   35 1   
    19    8   36 1   
    20    8   37 1   
    21    8   38 1   
    22    9   11 2   
    23   10   11 1   
    24   10   39 1   
    25   10   40 1   
    26   10   41 1   
    27   11   13 1   
    28   14   15 1   
    29   14   42 1   
    30   15   16 ar  
    31   15   20 ar  
    32   16   17 ar  
    33   16   43 1   
    34   17   18 ar  
    35   17   44 1   
    36   18   19 ar  
    37   19   20 ar  
    38   19   21 1   
    39   21   22 1   
    40   21   25 1   
    41   22   23 1   
    42   22   45 1   
    43   22   46 1   
    44   23   24 1   
    45   23   47 1   
    46   23   48 1   
    47   24   25 1   
    48   24   26 1   
    49   24   27 1   
    50   25   49 1   
    51   25   50 1   
    52   26   51 1   
    53   26   52 1   
    54   26   53 1   
    55   27   28 2   
    56   27   29 1   
    57   29   54 1   
    58   29   55 1   
    59   29   56 1   
@<TRIPOS>SUBSTRUCTURE
     1 4ZB         1 TEMP              0 ****  ****    0 ROOT
