@<TRIPOS>MOLECULE
4ZE
   19    19     1     0     0
SMALL
bcc


@<TRIPOS>ATOM
      1 C1         -0.0230   -0.0200    0.0160 c3        1 4ZE     -0.063800
      2 C2          1.4560   -0.0420    0.0300 ca        1 4ZE     -0.063300
      3 C3          2.1740   -0.0020    1.2180 ca        1 4ZE     -0.080000
      4 C4          3.5840   -0.0250    1.1940 ca        1 4ZE     -0.127400
      5 N5          4.3140    0.0160    2.4590 n4        1 4ZE     -0.690000
      6 C6          4.2870   -0.0860   -0.0190 ca        1 4ZE     -0.054000
      7 C7          3.5770   -0.1260   -1.2120 ca        1 4ZE     -0.199000
      8 C8          2.1730   -0.1040   -1.1960 ca        1 4ZE      0.193100
      9 O9          1.4190   -0.1410   -2.3290 oh        1 4ZE     -0.455100
     10 H1         -0.4450    0.0280    1.0490 hc        1 4ZE      0.072700
     11 H2         -0.3840    0.8670   -0.5650 hc        1 4ZE      0.072700
     12 H3         -0.4110   -0.9390   -0.4940 hc        1 4ZE      0.072700
     13 H4          1.6220    0.0470    2.1720 ha        1 4ZE      0.158000
     14 H5          5.3240    0.0410    2.2840 hn        1 4ZE      0.460800
     15 H6          4.0420    0.8540    2.9870 hn        1 4ZE      0.460800
     16 H7          5.3890   -0.1040   -0.0500 ha        1 4ZE      0.157000
     17 H8          4.1200   -0.1740   -2.1700 ha        1 4ZE      0.173000
     18 H9          2.0060   -0.1820   -3.1040 ho        1 4ZE      0.450000
     19 H53         4.0870   -0.8170    3.0140 hn        1 4ZE      0.460800
@<TRIPOS>BOND
     1    1    2 1   
     2    1   10 1   
     3    1   11 1   
     4    1   12 1   
     5    2    3 ar  
     6    2    8 ar  
     7    3    4 ar  
     8    3   13 1   
     9    4    5 1   
    10    4    6 ar  
    11    5   14 1   
    12    5   15 1   
    13    5   19 1   
    14    6    7 ar  
    15    6   16 1   
    16    7    8 ar  
    17    7   17 1   
    18    8    9 1   
    19    9   18 1   
@<TRIPOS>SUBSTRUCTURE
     1 4ZE         1 TEMP              0 ****  ****    0 ROOT
