@<TRIPOS>MOLECULE
4ZE
   18    18     1     0     0
SMALL
bcc


@<TRIPOS>ATOM
      1 C1         -0.0170    0.0360    0.0390 c3        1 4ZE     -0.044800
      2 C2          1.4620   -0.0300    0.0420 ca        1 4ZE     -0.062300
      3 C3          2.1850    0.0110    1.2310 ca        1 4ZE     -0.157000
      4 C4          3.5970   -0.0610    1.2350 ca        1 4ZE      0.102600
      5 N5          4.3050   -0.1170    2.4460 nh        1 4ZE     -0.808200
      6 C6          4.2730   -0.1630   -0.0010 ca        1 4ZE     -0.156000
      7 C7          3.5600   -0.2040   -1.1930 ca        1 4ZE     -0.172000
      8 C8          2.1640   -0.1390   -1.1760 ca        1 4ZE      0.080100
      9 O9          1.4060   -0.1710   -2.3290 oh        1 4ZE     -0.499100
     10 H1         -0.3610    0.8700   -0.6230 hc        1 4ZE      0.047367
     11 H2         -0.4220    0.1990    1.0670 hc        1 4ZE      0.047367
     12 H3         -0.4380   -0.9180   -0.3680 hc        1 4ZE      0.047367
     13 H4          1.6370    0.0920    2.1820 ha        1 4ZE      0.135000
     14 H5          5.2480    0.1990    2.3700 hn        1 4ZE      0.381300
     15 H6          3.8240    0.3090    3.2080 hn        1 4ZE      0.381300
     16 H7          5.3720   -0.2190   -0.0290 ha        1 4ZE      0.133000
     17 H8          4.0970   -0.2880   -2.1490 ha        1 4ZE      0.131000
     18 H9          2.0140   -0.2620   -3.0760 ho        1 4ZE      0.414000
@<TRIPOS>BOND
     1    1    2 1   
     2    1   10 1   
     3    1   11 1   
     4    1   12 1   
     5    2    3 ar  
     6    2    8 ar  
     7    3    4 ar  
     8    3   13 1   
     9    4    5 1   
    10    4    6 ar  
    11    5   14 1   
    12    5   15 1   
    13    6    7 ar  
    14    6   16 1   
    15    7    8 ar  
    16    7   17 1   
    17    8    9 1   
    18    9   18 1   
@<TRIPOS>SUBSTRUCTURE
     1 4ZE         1 TEMP              0 ****  ****    0 ROOT
