@<TRIPOS>MOLECULE
4ZE
   18    18     1     0     0
SMALL
bcc


@<TRIPOS>ATOM
      1 C1         -0.0130    0.1120    0.0620 c3        1 4ZE     -0.044800
      2 C2          1.4630    0.0180    0.0490 ca        1 4ZE     -0.062300
      3 C3          2.2080    0.1610    1.2160 ca        1 4ZE     -0.157000
      4 C4          3.6190    0.0740    1.2040 ca        1 4ZE      0.102600
      5 N5          4.3590    0.3190    2.3720 nv        1 4ZE     -0.808200
      6 C6          4.2710   -0.1780   -0.0230 ca        1 4ZE     -0.156000
      7 C7          3.5370   -0.3230   -1.1940 ca        1 4ZE     -0.172000
      8 C8          2.1420   -0.2270   -1.1630 ca        1 4ZE      0.080100
      9 O9          1.3640   -0.3670   -2.2930 oh        1 4ZE     -0.499100
     10 H1         -0.3510    0.8920   -0.6670 hc        1 4ZE      0.047700
     11 H2         -0.3980    0.3750    1.0770 hc        1 4ZE      0.047700
     12 H3         -0.4600   -0.8650   -0.2530 hc        1 4ZE      0.047700
     13 H4          1.6780    0.3570    2.1620 ha        1 4ZE      0.135000
     14 H5          5.2600   -0.1090    2.3670 hn        1 4ZE      0.381300
     15 H6          3.8540    0.1300    3.2100 hn        1 4ZE      0.381300
     16 H7          5.3680   -0.2520   -0.0640 ha        1 4ZE      0.133000
     17 H8          4.0550   -0.5130   -2.1450 ha        1 4ZE      0.131000
     18 H9          1.9600   -0.5010   -3.0440 ho        1 4ZE      0.414000
@<TRIPOS>BOND
     1    1    2 1   
     2    1   10 1   
     3    1   11 1   
     4    1   12 1   
     5    2    3 ar  
     6    2    8 ar  
     7    3    4 ar  
     8    3   13 1   
     9    4    5 1   
    10    4    6 ar  
    11    5   14 1   
    12    5   15 1   
    13    6    7 ar  
    14    6   16 1   
    15    7    8 ar  
    16    7   17 1   
    17    8    9 1   
    18    9   18 1   
@<TRIPOS>SUBSTRUCTURE
     1 4ZE         1 TEMP              0 ****  ****    0 ROOT
