@<TRIPOS>MOLECULE
4ZG
   56    58     1     0     0
SMALL
bcc


@<TRIPOS>ATOM
      1 C4         -0.2460   -1.2560    0.0860 ca        1 4ZG     -0.078900
      2 C5          1.0840   -1.7290    0.1070 ca        1 4ZG      0.487200
      3 C11        -2.9570    0.5670    1.8030 c3        1 4ZG      0.060000
      4 C7          1.4300   -0.8660    2.2510 ca        1 4ZG      0.654200
      5 C8          0.1180   -0.3360    2.3500 ca        1 4ZG     -0.301300
      6 C9         -0.7280   -0.5400    1.2550 ca        1 4ZG     -0.015200
      7 C12        -3.2780   -0.1250    3.1300 c3        1 4ZG     -0.112100
      8 C13        -2.4650    1.9890    2.0860 c3        1 4ZG     -0.112100
      9 N3         -1.2620   -1.3300   -0.8780 nc        1 4ZG     -0.545100
     10 C1         -3.6420   -0.5120   -0.9990 c3        1 4ZG     -0.114400
     11 C2         -2.3220   -0.6920   -0.3380 cd        1 4ZG      0.414800
     12 N6          1.8970   -1.5510    1.1450 nb        1 4ZG     -0.675000
     13 N10        -2.0510   -0.1930    0.9730 na        1 4ZG     -0.167300
     14 N14         2.2770   -0.7610    3.3810 nu        1 4ZG     -0.838600
     15 C15         3.6420   -0.4210    3.2920 ca        1 4ZG      0.709200
     16 C16         4.4490   -0.6110    4.4580 ca        1 4ZG     -0.449600
     17 C17         5.8140   -0.3360    4.3270 ca        1 4ZG      0.475200
     18 N18         6.3900    0.1050    3.1980 nb        1 4ZG     -0.763000
     19 C19         5.5320    0.3130    2.1240 ca        1 4ZG      0.894900
     20 N20         4.1680    0.0550    2.1290 nb        1 4ZG     -0.759000
     21 N21         6.0450    0.8970    0.9510 nu        1 4ZG     -0.849900
     22 C22         7.4650    0.8300    0.7040 c3        1 4ZG      0.228800
     23 C23         7.8590    1.3250   -0.7080 c3        1 4ZG     -0.251200
     24 C24         9.3770    1.2980   -0.7550 c3        1 4ZG     -0.080100
     25 C25         7.3030    0.3770   -1.7530 c3        1 4ZG     -0.080100
     26 S26         7.2500    2.9540   -0.9350 s6        1 4ZG      1.319000
     27 O27         5.8730    2.8970   -1.1960 o         1 4ZG     -0.641800
     28 O28         7.7050    3.7710    0.1070 o         1 4ZG     -0.641800
     29 C29         8.0460    3.4070   -2.3580 c3        1 4ZG     -0.366300
     30 H1          1.5060   -2.2810   -0.7530 h4        1 4ZG      0.037100
     31 H2         -3.9250    0.6500    1.2180 h1        1 4ZG      0.062700
     32 H3         -0.2220    0.2090    3.2390 ha        1 4ZG      0.141000
     33 H4         -2.3630   -0.2200    3.7630 hc        1 4ZG      0.048867
     34 H5         -4.0320    0.4870    3.6800 hc        1 4ZG      0.048867
     35 H6         -3.6990   -1.1440    2.9590 hc        1 4ZG      0.048867
     36 H7         -1.5150    1.9740    2.6710 hc        1 4ZG      0.048867
     37 H8         -3.2440    2.5260    2.6790 hc        1 4ZG      0.048867
     38 H9         -2.2880    2.5480    1.1360 hc        1 4ZG      0.048867
     39 H10        -4.4490   -0.9830   -0.3850 hc        1 4ZG      0.062367
     40 H11        -3.6350   -0.9920   -2.0100 hc        1 4ZG      0.062367
     41 H12        -3.8640    0.5770   -1.1230 hc        1 4ZG      0.062367
     42 H13         1.8300   -0.4280    4.2080 hn        1 4ZG      0.432800
     43 H14         4.0290   -0.9790    5.3990 ha        1 4ZG      0.153000
     44 H15         6.5030   -0.4840    5.1800 h4        1 4ZG      0.024100
     45 H16         5.4470    0.8470    0.1490 hn        1 4ZG      0.448800
     46 H17         7.8570   -0.2210    0.8290 h1        1 4ZG      0.072200
     47 H18         7.9840    1.4850    1.4660 h1        1 4ZG      0.072200
     48 H19         9.7990    2.0720   -0.0660 hc        1 4ZG      0.053200
     49 H20         9.7430    1.4900   -1.7930 hc        1 4ZG      0.053200
     50 H21         9.7590    0.2980   -0.4370 hc        1 4ZG      0.053200
     51 H22         7.4400   -0.6840   -1.4290 hc        1 4ZG      0.053200
     52 H23         6.2110    0.5590   -1.9170 hc        1 4ZG      0.053200
     53 H24         7.8360    0.5050   -2.7280 hc        1 4ZG      0.053200
     54 H25         7.5580    4.3080   -2.8120 h1        1 4ZG      0.117033
     55 H26         8.0380    2.6240   -3.1550 h1        1 4ZG      0.117033
     56 H27         9.1150    3.6860   -2.1880 h1        1 4ZG      0.117033
@<TRIPOS>BOND
     1    1    2 ar  
     2    1    6 ar  
     3    1    9 1   
     4    2   12 ar  
     5    2   30 1   
     6    3    7 1   
     7    3    8 1   
     8    3   13 1   
     9    3   31 1   
    10    4    5 ar  
    11    4   12 ar  
    12    4   14 1   
    13    5    6 ar  
    14    5   32 1   
    15    6   13 1   
    16    7   33 1   
    17    7   34 1   
    18    7   35 1   
    19    8   36 1   
    20    8   37 1   
    21    8   38 1   
    22    9   11 2   
    23   10   11 1   
    24   10   39 1   
    25   10   40 1   
    26   10   41 1   
    27   11   13 1   
    28   14   15 1   
    29   14   42 1   
    30   15   16 ar  
    31   15   20 ar  
    32   16   17 ar  
    33   16   43 1   
    34   17   18 ar  
    35   17   44 1   
    36   18   19 ar  
    37   19   20 ar  
    38   19   21 1   
    39   21   22 1   
    40   21   45 1   
    41   22   23 1   
    42   22   46 1   
    43   22   47 1   
    44   23   24 1   
    45   23   25 1   
    46   23   26 1   
    47   24   48 1   
    48   24   49 1   
    49   24   50 1   
    50   25   51 1   
    51   25   52 1   
    52   25   53 1   
    53   26   27 2   
    54   26   28 2   
    55   26   29 1   
    56   29   54 1   
    57   29   55 1   
    58   29   56 1   
@<TRIPOS>SUBSTRUCTURE
     1 4ZG         1 TEMP              0 ****  ****    0 ROOT
