@<TRIPOS>MOLECULE
4ZG
   56    58     1     0     0
SMALL
bcc


@<TRIPOS>ATOM
      1 C4         -0.2450   -1.2620    0.0930 ca        1 4ZG     -0.078900
      2 C5          1.0850   -1.7350    0.1140 ca        1 4ZG      0.487200
      3 C11        -2.9540    0.5650    1.8080 c3        1 4ZG      0.060000
      4 C7          1.4330   -0.8670    2.2550 ca        1 4ZG      0.654200
      5 C8          0.1210   -0.3370    2.3550 ca        1 4ZG     -0.301300
      6 C9         -0.7260   -0.5440    1.2610 ca        1 4ZG     -0.015200
      7 C12        -3.2740   -0.1240    3.1380 c3        1 4ZG     -0.112100
      8 C13        -2.4620    1.9880    2.0870 c3        1 4ZG     -0.112100
      9 N3         -1.2620   -1.3380   -0.8700 nc        1 4ZG     -0.545100
     10 C1         -3.6420   -0.5200   -0.9910 c3        1 4ZG     -0.114400
     11 C2         -2.3210   -0.6990   -0.3310 cd        1 4ZG      0.414800
     12 N6          1.8990   -1.5540    1.1500 nb        1 4ZG     -0.675000
     13 N10        -2.0490   -0.1970    0.9790 na        1 4ZG     -0.167300
     14 N14         2.2810   -0.7600    3.3840 nh        1 4ZG     -0.838600
     15 C15         3.6460   -0.4200    3.2930 ca        1 4ZG      0.709200
     16 C16         4.4550   -0.6090    4.4580 ca        1 4ZG     -0.449600
     17 C17         5.8190   -0.3340    4.3240 ca        1 4ZG      0.475200
     18 N18         6.3930    0.1080    3.1940 nb        1 4ZG     -0.763000
     19 C19         5.5330    0.3160    2.1210 ca        1 4ZG      0.894900
     20 N20         4.1700    0.0560    2.1290 nb        1 4ZG     -0.759000
     21 N21         6.0440    0.8990    0.9470 nh        1 4ZG     -0.849900
     22 C22         7.4630    0.8330    0.6980 c3        1 4ZG      0.228800
     23 C23         7.8550    1.3290   -0.7150 c3        1 4ZG     -0.250200
     24 C24         9.3730    1.3040   -0.7640 c3        1 4ZG     -0.080100
     25 C25         7.2980    0.3820   -1.7590 c3        1 4ZG     -0.080100
     26 S26         7.2440    2.9580   -0.9390 s6        1 4ZG      1.319000
     27 O27         5.8670    2.9010   -1.1980 o         1 4ZG     -0.641800
     28 O28         7.7000    3.7750    0.1030 o         1 4ZG     -0.641800
     29 C29         8.0370    3.4130   -2.3630 c3        1 4ZG     -0.366300
     30 H1          1.5060   -2.2880   -0.7460 h4        1 4ZG      0.037100
     31 H2         -3.9240    0.6460    1.2240 h1        1 4ZG      0.062700
     32 H3         -0.2180    0.2100    3.2430 ha        1 4ZG      0.141000
     33 H4         -2.3580   -0.2170    3.7690 hc        1 4ZG      0.048867
     34 H5         -3.6950   -1.1430    2.9690 hc        1 4ZG      0.048867
     35 H6         -4.0280    0.4900    3.6860 hc        1 4ZG      0.048867
     36 H7         -1.5110    1.9740    2.6720 hc        1 4ZG      0.048867
     37 H8         -3.2400    2.5260    2.6790 hc        1 4ZG      0.048867
     38 H9         -2.2860    2.5440    1.1360 hc        1 4ZG      0.048867
     39 H10        -3.6370   -1.0030   -2.0000 hc        1 4ZG      0.062367
     40 H11        -3.8650    0.5690   -1.1170 hc        1 4ZG      0.062367
     41 H12        -4.4490   -0.9900   -0.3750 hc        1 4ZG      0.062367
     42 H13         1.8350   -0.4240    4.2110 hn        1 4ZG      0.432800
     43 H14         4.0370   -0.9770    5.4000 ha        1 4ZG      0.153000
     44 H15         6.5100   -0.4810    5.1760 h4        1 4ZG      0.024100
     45 H16         5.4450    0.8490    0.1460 hn        1 4ZG      0.448800
     46 H17         7.9840    1.4880    1.4590 h1        1 4ZG      0.072200
     47 H18         7.8560   -0.2170    0.8210 h1        1 4ZG      0.072200
     48 H19         9.7950    2.0780   -0.0750 hc        1 4ZG      0.053200
     49 H20         9.7370    1.4970   -1.8030 hc        1 4ZG      0.053200
     50 H21         9.7560    0.3040   -0.4470 hc        1 4ZG      0.053200
     51 H22         7.4360   -0.6790   -1.4360 hc        1 4ZG      0.053200
     52 H23         6.2060    0.5630   -1.9210 hc        1 4ZG      0.053200
     53 H24         7.8290    0.5110   -2.7340 hc        1 4ZG      0.053200
     54 H25         9.1070    3.6930   -2.1940 h1        1 4ZG      0.117033
     55 H26         8.0300    2.6310   -3.1600 h1        1 4ZG      0.117033
     56 H27         7.5480    4.3150   -2.8160 h1        1 4ZG      0.117033
@<TRIPOS>BOND
     1    1    2 ar  
     2    1    6 ar  
     3    1    9 1   
     4    2   12 ar  
     5    2   30 1   
     6    3    7 1   
     7    3    8 1   
     8    3   13 1   
     9    3   31 1   
    10    4    5 ar  
    11    4   12 ar  
    12    4   14 1   
    13    5    6 ar  
    14    5   32 1   
    15    6   13 1   
    16    7   33 1   
    17    7   34 1   
    18    7   35 1   
    19    8   36 1   
    20    8   37 1   
    21    8   38 1   
    22    9   11 2   
    23   10   11 1   
    24   10   39 1   
    25   10   40 1   
    26   10   41 1   
    27   11   13 1   
    28   14   15 1   
    29   14   42 1   
    30   15   16 ar  
    31   15   20 ar  
    32   16   17 ar  
    33   16   43 1   
    34   17   18 ar  
    35   17   44 1   
    36   18   19 ar  
    37   19   20 ar  
    38   19   21 1   
    39   21   22 1   
    40   21   45 1   
    41   22   23 1   
    42   22   46 1   
    43   22   47 1   
    44   23   24 1   
    45   23   25 1   
    46   23   26 1   
    47   24   48 1   
    48   24   49 1   
    49   24   50 1   
    50   25   51 1   
    51   25   52 1   
    52   25   53 1   
    53   26   27 2   
    54   26   28 2   
    55   26   29 1   
    56   29   54 1   
    57   29   55 1   
    58   29   56 1   
@<TRIPOS>SUBSTRUCTURE
     1 4ZG         1 TEMP              0 ****  ****    0 ROOT
