@<TRIPOS>MOLECULE
4ZH
   55    57     1     0     0
SMALL
bcc


@<TRIPOS>ATOM
      1 C4         -0.6470   -2.3750    0.8350 ca        1 4ZH     -0.062900
      2 C5         -0.0880   -3.5560    1.3750 ca        1 4ZH      0.480200
      3 C11        -0.6640    1.3130    0.6980 c3        1 4ZH      0.059000
      4 C7          1.3840   -2.3140    2.7070 ca        1 4ZH      0.603200
      5 C8          0.9070   -1.0680    2.2500 ca        1 4ZH     -0.203300
      6 C9         -0.1180   -1.1030    1.2950 ca        1 4ZH     -0.038200
      7 C12        -0.9520    1.8690    2.0950 c3        1 4ZH     -0.114100
      8 C13         0.7240    1.7760    0.2500 c3        1 4ZH     -0.114100
      9 N3         -1.6620   -2.1550   -0.1060 nc        1 4ZH     -0.550100
     10 C1         -2.7120   -0.1020   -1.1210 c3        1 4ZH     -0.115400
     11 C2         -1.7600   -0.8130   -0.2270 cd        1 4ZH      0.419800
     12 N6          0.8930   -3.5330    2.2710 nb        1 4ZH     -0.718000
     13 N10        -0.8380   -0.1200    0.6120 na        1 4ZH     -0.159300
     14 N14         2.3780   -2.3490    3.7330 nu        1 4ZH     -0.808600
     15 C15         3.6600   -1.8150    3.5180 ca        1 4ZH      0.692200
     16 C16         4.6950   -2.1480    4.4540 ca        1 4ZH     -0.447600
     17 C17         5.9380   -1.5330    4.2830 ca        1 4ZH      0.483200
     18 N18         6.2080   -0.6610    3.2920 nb        1 4ZH     -0.772000
     19 C19         5.1570   -0.4120    2.4420 ca        1 4ZH      0.874300
     20 N20         3.8910   -0.9400    2.4870 nb        1 4ZH     -0.748000
     21 O21         5.2950    0.4660    1.3800 os        1 4ZH     -0.415100
     22 C22         6.6010    1.0390    1.1940 c3        1 4ZH      0.155400
     23 C23         6.5250    1.9020   -0.0740 c3        1 4ZH     -0.239200
     24 C24         6.1870    1.0100   -1.2540 c3        1 4ZH     -0.080100
     25 C25         5.4470    2.9540    0.1040 c3        1 4ZH     -0.080100
     26 S26         8.1030    2.6440   -0.2650 s6        1 4ZH      1.308000
     27 O27         8.3720    3.4290    0.8660 o         1 4ZH     -0.645800
     28 O28         9.0380    1.6550   -0.6000 o         1 4ZH     -0.645800
     29 C29         7.8520    3.6560   -1.5920 c3        1 4ZH     -0.365300
     30 H1         -0.4480   -4.5530    1.0620 h4        1 4ZH      0.038100
     31 H2         -1.4240    1.7640   -0.0140 h1        1 4ZH      0.060700
     32 H3          1.3240   -0.1200    2.6130 ha        1 4ZH      0.164000
     33 H4         -0.8680    2.9810    2.0600 hc        1 4ZH      0.051200
     34 H5         -0.2180    1.4770    2.8400 hc        1 4ZH      0.051200
     35 H6         -1.9810    1.5970    2.4300 hc        1 4ZH      0.051200
     36 H7          0.9310    1.4590   -0.8000 hc        1 4ZH      0.051200
     37 H8          1.5200    1.3540    0.9110 hc        1 4ZH      0.051200
     38 H9          0.7640    2.8900    0.3040 hc        1 4ZH      0.051200
     39 H10        -2.1520    0.5190   -1.8640 hc        1 4ZH      0.063700
     40 H11        -3.3440   -0.8400   -1.6760 hc        1 4ZH      0.063700
     41 H12        -3.3830    0.5620   -0.5200 hc        1 4ZH      0.063700
     42 H13         2.4010   -3.2070    4.2530 hn        1 4ZH      0.436800
     43 H14         4.5220   -2.8530    5.2750 ha        1 4ZH      0.158000
     44 H15         6.7780   -1.7440    4.9720 h4        1 4ZH      0.032100
     45 H16         7.3580    0.2210    1.0560 h1        1 4ZH      0.078700
     46 H17         6.8560    1.6770    2.0830 h1        1 4ZH      0.078700
     47 H18         5.9260    1.6200   -2.1530 hc        1 4ZH      0.056033
     48 H19         5.3050    0.3680   -1.0070 hc        1 4ZH      0.056033
     49 H20         7.0530    0.3440   -1.4960 hc        1 4ZH      0.056033
     50 H21         4.4810    2.4680    0.3880 hc        1 4ZH      0.056033
     51 H22         5.7360    3.6680    0.9140 hc        1 4ZH      0.056033
     52 H23         5.2860    3.5170   -0.8480 hc        1 4ZH      0.056033
     53 H24         7.3350    3.1650   -2.4520 h1        1 4ZH      0.120700
     54 H25         8.8300    4.0270   -1.9960 h1        1 4ZH      0.120700
     55 H26         7.2570    4.5680   -1.3380 h1        1 4ZH      0.120700
@<TRIPOS>BOND
     1    1    2 ar  
     2    1    6 ar  
     3    1    9 1   
     4    2   12 ar  
     5    2   30 1   
     6    3    7 1   
     7    3    8 1   
     8    3   13 1   
     9    3   31 1   
    10    4    5 ar  
    11    4   12 ar  
    12    4   14 1   
    13    5    6 ar  
    14    5   32 1   
    15    6   13 1   
    16    7   33 1   
    17    7   34 1   
    18    7   35 1   
    19    8   36 1   
    20    8   37 1   
    21    8   38 1   
    22    9   11 2   
    23   10   11 1   
    24   10   39 1   
    25   10   40 1   
    26   10   41 1   
    27   11   13 1   
    28   14   15 1   
    29   14   42 1   
    30   15   16 ar  
    31   15   20 ar  
    32   16   17 ar  
    33   16   43 1   
    34   17   18 ar  
    35   17   44 1   
    36   18   19 ar  
    37   19   20 ar  
    38   19   21 1   
    39   21   22 1   
    40   22   23 1   
    41   22   45 1   
    42   22   46 1   
    43   23   24 1   
    44   23   25 1   
    45   23   26 1   
    46   24   47 1   
    47   24   48 1   
    48   24   49 1   
    49   25   50 1   
    50   25   51 1   
    51   25   52 1   
    52   26   27 2   
    53   26   28 2   
    54   26   29 1   
    55   29   53 1   
    56   29   54 1   
    57   29   55 1   
@<TRIPOS>SUBSTRUCTURE
     1 4ZH         1 TEMP              0 ****  ****    0 ROOT
