@<TRIPOS>MOLECULE
4ZH
   55    57     1     0     0
SMALL
bcc


@<TRIPOS>ATOM
      1 C4         -0.6530   -2.3490    0.9770 ca        1 4ZH     -0.062900
      2 C5         -0.1040   -3.4890    1.6060 ca        1 4ZH      0.480200
      3 C11        -0.6730    1.3220    0.5900 c3        1 4ZH      0.059000
      4 C7          1.3410   -2.1570    2.8780 ca        1 4ZH      0.603200
      5 C8          0.8720   -0.9450    2.3290 ca        1 4ZH     -0.203300
      6 C9         -0.1340   -1.0470    1.3590 ca        1 4ZH     -0.038200
      7 C12        -0.9890    1.9690    1.9410 c3        1 4ZH     -0.114100
      8 C13         0.7240    1.7580    0.1400 c3        1 4ZH     -0.114100
      9 N3         -1.6510   -2.1950    0.0040 nc        1 4ZH     -0.550100
     10 C1         -2.6830   -0.2180   -1.1680 c3        1 4ZH     -0.115400
     11 C2         -1.7470   -0.8650   -0.2090 cd        1 4ZH      0.419800
     12 N6          0.8600   -3.4030    2.5170 nb        1 4ZH     -0.718000
     13 N10        -0.8420   -0.1140    0.5980 na        1 4ZH     -0.159300
     14 N14         2.3160   -2.1190    3.9230 nh        1 4ZH     -0.808600
     15 C15         3.6010   -1.6000    3.6960 ca        1 4ZH      0.692200
     16 C16         4.6170   -1.8650    4.6740 ca        1 4ZH     -0.447600
     17 C17         5.8640   -1.2620    4.4850 ca        1 4ZH      0.483200
     18 N18         6.1540   -0.4630    3.4390 nb        1 4ZH     -0.771000
     19 C19         5.1210   -0.2780    2.5520 ca        1 4ZH      0.874300
     20 N20         3.8540   -0.8020    2.6090 nb        1 4ZH     -0.748000
     21 O21         5.2800    0.5230    1.4330 os        1 4ZH     -0.415100
     22 C22         6.5950    1.0680    1.2230 c3        1 4ZH      0.155400
     23 C23         6.5410    1.8440   -0.1010 c3        1 4ZH     -0.239200
     24 C24         6.1600    0.8900   -1.2180 c3        1 4ZH     -0.079600
     25 C25         5.5030    2.9450    0.0130 c3        1 4ZH     -0.079600
     26 S26         8.1450    2.5060   -0.3560 s6        1 4ZH      1.308000
     27 O27         8.3660    3.5370    0.5680 o         1 4ZH     -0.645800
     28 O28         9.0710    1.4530   -0.3780 o         1 4ZH     -0.645800
     29 C29         8.0090    3.1570   -1.9060 c3        1 4ZH     -0.364300
     30 H1         -0.4570   -4.5060    1.3540 h4        1 4ZH      0.038100
     31 H2         -1.4190    1.7220   -0.1650 h1        1 4ZH      0.061700
     32 H3          1.2820    0.0260    2.6340 ha        1 4ZH      0.164000
     33 H4         -0.2700    1.6290    2.7250 hc        1 4ZH      0.051367
     34 H5         -0.9060    3.0770    1.8340 hc        1 4ZH      0.051367
     35 H6         -2.0240    1.7180    2.2730 hc        1 4ZH      0.051367
     36 H7          0.7610    2.8730    0.1200 hc        1 4ZH      0.051367
     37 H8          1.5070    1.3840    0.8430 hc        1 4ZH      0.051367
     38 H9          0.9520    1.3720   -0.8820 hc        1 4ZH      0.051367
     39 H10        -2.1100    0.3520   -1.9400 hc        1 4ZH      0.063700
     40 H11        -3.3030   -0.9930   -1.6830 hc        1 4ZH      0.063700
     41 H12        -3.3660    0.4830   -0.6260 hc        1 4ZH      0.063700
     42 H13         2.3280   -2.9380    4.5020 hn        1 4ZH      0.436800
     43 H14         4.4280   -2.5080    5.5400 ha        1 4ZH      0.158000
     44 H15         6.6890   -1.4210    5.2030 h4        1 4ZH      0.032100
     45 H16         6.8460    1.7630    2.0680 h1        1 4ZH      0.078700
     46 H17         7.3430    0.2340    1.1510 h1        1 4ZH      0.078700
     47 H18         5.2230    0.3430   -0.9510 hc        1 4ZH      0.055867
     48 H19         6.9740    0.1400   -1.3780 hc        1 4ZH      0.055867
     49 H20         5.9780    1.4480   -2.1680 hc        1 4ZH      0.055867
     50 H21         5.8490    3.7270    0.7340 hc        1 4ZH      0.055867
     51 H22         5.3120    3.4160   -0.9810 hc        1 4ZH      0.055867
     52 H23         4.5380    2.5220    0.3850 hc        1 4ZH      0.055867
     53 H24         8.8720    3.8380   -2.1270 h1        1 4ZH      0.120700
     54 H25         8.0190    2.3760   -2.7080 h1        1 4ZH      0.120700
     55 H26         7.0900    3.7710   -2.0680 h1        1 4ZH      0.120700
@<TRIPOS>BOND
     1    1    2 ar  
     2    1    6 ar  
     3    1    9 1   
     4    2   12 ar  
     5    2   30 1   
     6    3    7 1   
     7    3    8 1   
     8    3   13 1   
     9    3   31 1   
    10    4    5 ar  
    11    4   12 ar  
    12    4   14 1   
    13    5    6 ar  
    14    5   32 1   
    15    6   13 1   
    16    7   33 1   
    17    7   34 1   
    18    7   35 1   
    19    8   36 1   
    20    8   37 1   
    21    8   38 1   
    22    9   11 2   
    23   10   11 1   
    24   10   39 1   
    25   10   40 1   
    26   10   41 1   
    27   11   13 1   
    28   14   15 1   
    29   14   42 1   
    30   15   16 ar  
    31   15   20 ar  
    32   16   17 ar  
    33   16   43 1   
    34   17   18 ar  
    35   17   44 1   
    36   18   19 ar  
    37   19   20 ar  
    38   19   21 1   
    39   21   22 1   
    40   22   23 1   
    41   22   45 1   
    42   22   46 1   
    43   23   24 1   
    44   23   25 1   
    45   23   26 1   
    46   24   47 1   
    47   24   48 1   
    48   24   49 1   
    49   25   50 1   
    50   25   51 1   
    51   25   52 1   
    52   26   27 2   
    53   26   28 2   
    54   26   29 1   
    55   29   53 1   
    56   29   54 1   
    57   29   55 1   
@<TRIPOS>SUBSTRUCTURE
     1 4ZH         1 TEMP              0 ****  ****    0 ROOT
