@<TRIPOS>MOLECULE
4ZJ
   55    58     1     0     0
SMALL
bcc


@<TRIPOS>ATOM
      1 C4         -0.4860   -2.6140    1.2210 ca        1 4ZJ     -0.065900
      2 C5          0.1240   -3.6460    1.9690 ca        1 4ZJ      0.478200
      3 C11        -0.8140    1.0010    0.5430 c3        1 4ZJ      0.058000
      4 C7          1.4050   -2.0970    3.1680 ca        1 4ZJ      0.607200
      5 C8          0.8700   -0.9800    2.4920 ca        1 4ZJ     -0.210300
      6 C9         -0.0870   -1.2460    1.5040 ca        1 4ZJ     -0.039200
      7 C12        -1.2520    1.6930    1.8370 c3        1 4ZJ     -0.113100
      8 C13         0.5470    1.5530    0.1150 c3        1 4ZJ     -0.113100
      9 N3         -1.4520   -2.6260    0.2060 nc        1 4ZJ     -0.551100
     10 C1         -2.5950   -0.8470   -1.1650 c3        1 4ZJ     -0.115400
     11 C2         -1.6470   -1.3310   -0.1250 cd        1 4ZJ      0.418800
     12 N6          1.0370   -3.4040    2.9040 nb        1 4ZJ     -0.719000
     13 N10        -0.8340   -0.4420    0.6390 na        1 4ZJ     -0.160300
     14 N14         2.3210   -1.8770    4.2420 nu        1 4ZJ     -0.810600
     15 C15         3.5840   -1.3000    4.0010 ca        1 4ZJ      0.696200
     16 C16         4.5280   -1.2830    5.0750 ca        1 4ZJ     -0.453600
     17 C17         5.7400   -0.6290    4.8310 ca        1 4ZJ      0.480200
     18 N18         6.0560   -0.0360    3.6710 nb        1 4ZJ     -0.766000
     19 C19         5.0900   -0.0820    2.6710 ca        1 4ZJ      0.892900
     20 N20         3.8680   -0.7240    2.7960 nb        1 4ZJ     -0.794000
     21 N21         5.3410    0.6250    1.4610 nh        1 4ZJ     -0.723300
     22 C22         6.7290    0.9850    1.1990 c3        1 4ZJ      0.197800
     23 C23         6.9110    1.9080   -0.0010 c3        1 4ZJ     -0.087400
     24 C24         6.2320    1.3220   -1.2290 c3        1 4ZJ      0.111100
     25 C25         4.7270    1.1390   -0.9340 c3        1 4ZJ      0.142600
     26 C26         4.5510    0.2310    0.3080 c3        1 4ZJ      0.170800
     27 F27         4.0780    2.3490   -0.7730 f         1 4ZJ     -0.225300
     28 O28         6.4470    2.2410   -2.2950 os        1 4ZJ     -0.403600
     29 C29         6.2350    1.6830   -3.5800 c3        1 4ZJ      0.112700
     30 H1         -0.1390   -4.7060    1.7960 h4        1 4ZJ      0.037100
     31 H2         -1.5650    1.2720   -0.2620 h1        1 4ZJ      0.061700
     32 H3          1.1960    0.0430    2.7220 ha        1 4ZJ      0.163000
     33 H4         -2.2710    1.3590    2.1460 hc        1 4ZJ      0.051700
     34 H5         -1.2730    2.7950    1.6620 hc        1 4ZJ      0.051700
     35 H6         -0.5370    1.4750    2.6670 hc        1 4ZJ      0.051700
     36 H7          1.3350    1.3130    0.8690 hc        1 4ZJ      0.051700
     37 H8          0.8580    1.1320   -0.8700 hc        1 4ZJ      0.051700
     38 H9          0.4700    2.6630    0.0210 hc        1 4ZJ      0.051700
     39 H10        -3.1190   -1.7130   -1.6420 hc        1 4ZJ      0.063367
     40 H11        -2.0430   -0.2830   -1.9580 hc        1 4ZJ      0.063367
     41 H12        -3.3610   -0.1750   -0.7050 hc        1 4ZJ      0.063367
     42 H13         2.3670   -2.6320    4.9020 hn        1 4ZJ      0.433800
     43 H14         4.3170   -1.7500    6.0420 ha        1 4ZJ      0.156000
     44 H15         6.5210   -0.5780    5.6140 h4        1 4ZJ      0.026100
     45 H16         7.1340    1.5280    2.1010 h1        1 4ZJ      0.058700
     46 H17         7.3500    0.0550    1.0430 h1        1 4ZJ      0.058700
     47 H18         8.0070    2.0340   -0.1930 hc        1 4ZJ      0.073700
     48 H19         6.4760    2.9200    0.2070 hc        1 4ZJ      0.073700
     49 H20         6.6670    0.3170   -1.4860 h1        1 4ZJ      0.048700
     50 H21         4.2430    0.6060   -1.8050 h1        1 4ZJ      0.052700
     51 H22         3.4580    0.2740    0.5860 h1        1 4ZJ      0.066200
     52 H23         4.8010   -0.8220   -0.0090 h1        1 4ZJ      0.066200
     53 H24         5.1700    1.3670   -3.7050 h1        1 4ZJ      0.035700
     54 H25         6.9140    0.8110   -3.7520 h1        1 4ZJ      0.035700
     55 H26         6.4800    2.5170   -4.2850 h1        1 4ZJ      0.035700
@<TRIPOS>BOND
     1    1    2 ar  
     2    1    6 ar  
     3    1    9 1   
     4    2   12 ar  
     5    2   30 1   
     6    3    7 1   
     7    3    8 1   
     8    3   13 1   
     9    3   31 1   
    10    4    5 ar  
    11    4   12 ar  
    12    4   14 1   
    13    5    6 ar  
    14    5   32 1   
    15    6   13 1   
    16    7   33 1   
    17    7   34 1   
    18    7   35 1   
    19    8   36 1   
    20    8   37 1   
    21    8   38 1   
    22    9   11 2   
    23   10   11 1   
    24   10   39 1   
    25   10   40 1   
    26   10   41 1   
    27   11   13 1   
    28   14   15 1   
    29   14   42 1   
    30   15   16 ar  
    31   15   20 ar  
    32   16   17 ar  
    33   16   43 1   
    34   17   18 ar  
    35   17   44 1   
    36   18   19 ar  
    37   19   20 ar  
    38   19   21 1   
    39   21   22 1   
    40   21   26 1   
    41   22   23 1   
    42   22   45 1   
    43   22   46 1   
    44   23   24 1   
    45   23   47 1   
    46   23   48 1   
    47   24   25 1   
    48   24   28 1   
    49   24   49 1   
    50   25   26 1   
    51   25   27 1   
    52   25   50 1   
    53   26   51 1   
    54   26   52 1   
    55   28   29 1   
    56   29   53 1   
    57   29   54 1   
    58   29   55 1   
@<TRIPOS>SUBSTRUCTURE
     1 4ZJ         1 TEMP              0 ****  ****    0 ROOT
