@<TRIPOS>MOLECULE
4ZJ
   55    58     1     0     0
SMALL
bcc


@<TRIPOS>ATOM
      1 C4         -0.4880   -2.6200    1.1460 ca        1 4ZJ     -0.065900
      2 C5          0.1160   -3.6660    1.8810 ca        1 4ZJ      0.478200
      3 C11        -0.8120    1.0050    0.5300 c3        1 4ZJ      0.058000
      4 C7          1.3850   -2.1380    3.1180 ca        1 4ZJ      0.607200
      5 C8          0.8560   -1.0080    2.4570 ca        1 4ZJ     -0.210300
      6 C9         -0.0930   -1.2570    1.4570 ca        1 4ZJ     -0.039200
      7 C12        -1.2600    1.6740    1.8310 c3        1 4ZJ     -0.113100
      8 C13         0.5530    1.5660    0.1230 c3        1 4ZJ     -0.113100
      9 N3         -1.4460   -2.6150    0.1220 nc        1 4ZJ     -0.551100
     10 C1         -2.5770   -0.8120   -1.2270 c3        1 4ZJ     -0.115400
     11 C2         -1.6380   -1.3140   -0.1870 cd        1 4ZJ      0.418800
     12 N6          1.0210   -3.4400    2.8270 nb        1 4ZJ     -0.719000
     13 N10        -0.8320   -0.4390    0.5990 na        1 4ZJ     -0.160300
     14 N14         2.2920   -1.9370    4.2040 nh        1 4ZJ     -0.810600
     15 C15         3.5570   -1.3550    3.9850 ca        1 4ZJ      0.696200
     16 C16         4.4910   -1.3560    5.0670 ca        1 4ZJ     -0.453600
     17 C17         5.7050   -0.6980    4.8460 ca        1 4ZJ      0.480200
     18 N18         6.0310   -0.0840    3.6990 nb        1 4ZJ     -0.766000
     19 C19         5.0740   -0.1130    2.6890 ca        1 4ZJ      0.892900
     20 N20         3.8510   -0.7570    2.7930 nb        1 4ZJ     -0.794000
     21 N21         5.3350    0.6160    1.4940 nh        1 4ZJ     -0.723300
     22 C22         6.7250    0.9810    1.2520 c3        1 4ZJ      0.197800
     23 C23         6.9170    1.9250    0.0700 c3        1 4ZJ     -0.087400
     24 C24         6.2500    1.3610   -1.1740 c3        1 4ZJ      0.111100
     25 C25         4.7430    1.1710   -0.8970 c3        1 4ZJ      0.142600
     26 C26         4.5560    0.2410    0.3280 c3        1 4ZJ      0.170800
     27 F27         4.0910    2.3770   -0.7210 f         1 4ZJ     -0.225300
     28 O28         6.4730    2.2990   -2.2220 os        1 4ZJ     -0.403600
     29 C29         6.2740    1.7620   -3.5190 c3        1 4ZJ      0.112700
     30 H1         -0.1450   -4.7220    1.6870 h4        1 4ZJ      0.037100
     31 H2         -1.5560    1.2910   -0.2770 h1        1 4ZJ      0.061700
     32 H3          1.1790    0.0100    2.7080 ha        1 4ZJ      0.163000
     33 H4         -1.2810    2.7800    1.6760 hc        1 4ZJ      0.051700
     34 H5         -2.2820    1.3350    2.1260 hc        1 4ZJ      0.051700
     35 H6         -0.5530    1.4430    2.6640 hc        1 4ZJ      0.051700
     36 H7          0.4760    2.6770    0.0480 hc        1 4ZJ      0.051700
     37 H8          1.3350    1.3120    0.8790 hc        1 4ZJ      0.051700
     38 H9          0.8730    1.1620   -0.8670 hc        1 4ZJ      0.051700
     39 H10        -2.0180   -0.2340   -2.0040 hc        1 4ZJ      0.063367
     40 H11        -3.0970   -1.6690   -1.7230 hc        1 4ZJ      0.063367
     41 H12        -3.3470   -0.1480   -0.7610 hc        1 4ZJ      0.063367
     42 H13         2.3330   -2.7030    4.8510 hn        1 4ZJ      0.433800
     43 H14         4.2720   -1.8410    6.0240 ha        1 4ZJ      0.156000
     44 H15         6.4790   -0.6600    5.6360 h4        1 4ZJ      0.026100
     45 H16         7.3490    0.0550    1.0850 h1        1 4ZJ      0.058700
     46 H17         7.1210    1.5090    2.1670 h1        1 4ZJ      0.058700
     47 H18         8.0140    2.0560   -0.1100 hc        1 4ZJ      0.073700
     48 H19         6.4790    2.9330    0.2910 hc        1 4ZJ      0.073700
     49 H20         6.6880    0.3600   -1.4450 h1        1 4ZJ      0.048700
     50 H21         4.2670    0.6530   -1.7810 h1        1 4ZJ      0.052700
     51 H22         4.8100   -0.8060   -0.0050 h1        1 4ZJ      0.066200
     52 H23         3.4610    0.2780    0.5960 h1        1 4ZJ      0.066200
     53 H24         6.5250    2.6080   -4.2070 h1        1 4ZJ      0.035700
     54 H25         6.9570    0.8940   -3.7000 h1        1 4ZJ      0.035700
     55 H26         5.2110    1.4480   -3.6590 h1        1 4ZJ      0.035700
@<TRIPOS>BOND
     1    1    2 ar  
     2    1    6 ar  
     3    1    9 1   
     4    2   12 ar  
     5    2   30 1   
     6    3    7 1   
     7    3    8 1   
     8    3   13 1   
     9    3   31 1   
    10    4    5 ar  
    11    4   12 ar  
    12    4   14 1   
    13    5    6 ar  
    14    5   32 1   
    15    6   13 1   
    16    7   33 1   
    17    7   34 1   
    18    7   35 1   
    19    8   36 1   
    20    8   37 1   
    21    8   38 1   
    22    9   11 2   
    23   10   11 1   
    24   10   39 1   
    25   10   40 1   
    26   10   41 1   
    27   11   13 1   
    28   14   15 1   
    29   14   42 1   
    30   15   16 ar  
    31   15   20 ar  
    32   16   17 ar  
    33   16   43 1   
    34   17   18 ar  
    35   17   44 1   
    36   18   19 ar  
    37   19   20 ar  
    38   19   21 1   
    39   21   22 1   
    40   21   26 1   
    41   22   23 1   
    42   22   45 1   
    43   22   46 1   
    44   23   24 1   
    45   23   47 1   
    46   23   48 1   
    47   24   25 1   
    48   24   28 1   
    49   24   49 1   
    50   25   26 1   
    51   25   27 1   
    52   25   50 1   
    53   26   51 1   
    54   26   52 1   
    55   28   29 1   
    56   29   53 1   
    57   29   54 1   
    58   29   55 1   
@<TRIPOS>SUBSTRUCTURE
     1 4ZJ         1 TEMP              0 ****  ****    0 ROOT
