@<TRIPOS>MOLECULE
4ZQ
   59    62     1     0     0
SMALL
bcc


@<TRIPOS>ATOM
      1 C14         2.9980    2.0280    0.9750 c3        1 4ZQ      0.603900
      2 C5          0.0550    2.7850   -2.4190 ca        1 4ZQ     -0.063900
      3 C6         -1.2360    3.3300   -2.5920 ca        1 4ZQ      0.488200
      4 C8         -1.0620    4.5100   -0.5760 ca        1 4ZQ      0.627200
      5 C9          0.2340    4.0230   -0.2890 ca        1 4ZQ     -0.213300
      6 C10         0.7990    3.1580   -1.2320 ca        1 4ZQ     -0.030200
      7 C12         3.1740    2.6380   -0.4880 c3        1 4ZQ      0.041000
      8 C13         3.6390    4.0830   -0.3330 c3        1 4ZQ     -0.131100
      9 C3          1.9690    1.7200   -2.5380 cc        1 4ZQ      0.380800
     10 C1          3.1750   -0.4340   -2.1600 c3        1 4ZQ     -0.101100
     11 C2          3.1100    0.8350   -2.9950 c3        1 4ZQ      0.143800
     12 N4          0.8120    1.8940   -3.1980 nd        1 4ZQ     -0.525100
     13 N7         -1.7740    4.1680   -1.7120 nb        1 4ZQ     -0.714000
     14 N11         2.0160    2.4580   -1.3070 na        1 4ZQ     -0.173300
     15 F15         2.5300    0.7430    1.0020 f         1 4ZQ     -0.230633
     16 F16         4.1980    1.9730    1.6390 f         1 4ZQ     -0.230633
     17 F17         2.1700    2.7360    1.8010 f         1 4ZQ     -0.230633
     18 C19        -1.2310    6.5970    0.7380 ca        1 4ZQ      0.699200
     19 C20        -2.1070    7.4790    1.4450 ca        1 4ZQ     -0.454600
     20 C21        -1.5610    8.6930    1.8720 ca        1 4ZQ      0.483200
     21 N22        -0.2950    9.0700    1.6420 nb        1 4ZQ     -0.765000
     22 C23         0.4930    8.1800    0.9190 ca        1 4ZQ      0.897900
     23 N24         0.0650    6.9370    0.4770 nb        1 4ZQ     -0.797000
     24 N25         1.8000    8.5980    0.5480 nh        1 4ZQ     -0.725300
     25 C26         2.3560    9.7330    1.2730 c3        1 4ZQ      0.200800
     26 C27         3.6480   10.2750    0.6710 c3        1 4ZQ     -0.088400
     27 C28         4.6620    9.1570    0.4930 c3        1 4ZQ      0.112100
     28 C29         4.0660    8.0770   -0.4360 c3        1 4ZQ      0.144600
     29 C30         2.7340    7.5590    0.1630 c3        1 4ZQ      0.172800
     30 F31         3.8950    8.5380   -1.7280 f         1 4ZQ     -0.219300
     31 O32         5.8280    9.7460   -0.0730 os        1 4ZQ     -0.400600
     32 C33         6.9930    8.9500    0.0640 c3        1 4ZQ      0.112700
     33 O34         2.9690    0.4150   -4.3400 oh        1 4ZQ     -0.573800
     34 H1         -1.8490    3.0790   -3.4770 h4        1 4ZQ      0.043100
     35 H2          0.7600    4.3010    0.6350 ha        1 4ZQ      0.172000
     36 H3          4.0180    2.0300   -0.9360 h1        1 4ZQ      0.098700
     37 H4          4.5480    4.0980    0.3160 hc        1 4ZQ      0.069033
     38 H5          3.8940    4.5170   -1.3290 hc        1 4ZQ      0.069033
     39 H6          2.8460    4.7150    0.1400 hc        1 4ZQ      0.069033
     40 H7          2.2430   -1.0330   -2.2990 hc        1 4ZQ      0.059367
     41 H8          4.0440   -1.0510   -2.4940 hc        1 4ZQ      0.059367
     42 H9          3.2910   -0.1800   -1.0800 hc        1 4ZQ      0.059367
     43 H10         4.0710    1.4250   -2.9080 h1        1 4ZQ      0.036700
     44 H11        -2.7300    5.3250    0.2940 hn        1 4ZQ      0.436800
     45 H12        -3.1500    7.2200    1.6560 ha        1 4ZQ      0.156000
     46 H13        -2.1720    9.4200    2.4400 h4        1 4ZQ      0.028100
     47 H14         1.6040   10.5740    1.2570 h1        1 4ZQ      0.060200
     48 H15         2.5430    9.4510    2.3500 h1        1 4ZQ      0.060200
     49 H16         4.0600   11.0610    1.3550 hc        1 4ZQ      0.076200
     50 H17         3.4530   10.7500   -0.3260 hc        1 4ZQ      0.076200
     51 H18         4.9070    8.6770    1.4810 h1        1 4ZQ      0.046700
     52 H19         4.7720    7.1960   -0.4790 h1        1 4ZQ      0.045700
     53 H20         2.9970    6.9100    1.0490 h1        1 4ZQ      0.062200
     54 H21         2.2560    6.9120   -0.6280 h1        1 4ZQ      0.062200
     55 H22         6.8830    7.9860   -0.4900 h1        1 4ZQ      0.035367
     56 H23         7.8030    9.5720   -0.3940 h1        1 4ZQ      0.035367
     57 H24         7.2140    8.7500    1.1420 h1        1 4ZQ      0.035367
     58 H25         2.7380    1.1850   -4.8750 ho        1 4ZQ      0.421000
     59 N18        -1.7300    5.3270    0.3830 nh        1 4ZQ     -0.812600
@<TRIPOS>BOND
     1    1    7 1   
     2    1   15 1   
     3    1   16 1   
     4    1   17 1   
     5    2    3 ar  
     6    2    6 ar  
     7    2   12 1   
     8    3   13 ar  
     9    3   34 1   
    10    4    5 ar  
    11    4   13 ar  
    12    4   59 1   
    13    5    6 ar  
    14    5   35 1   
    15    6   14 1   
    16    7    8 1   
    17    7   14 1   
    18    7   36 1   
    19    8   37 1   
    20    8   38 1   
    21    8   39 1   
    22    9   11 1   
    23    9   12 2   
    24    9   14 1   
    25   10   11 1   
    26   10   40 1   
    27   10   41 1   
    28   10   42 1   
    29   11   33 1   
    30   11   43 1   
    31   18   19 ar  
    32   18   23 ar  
    33   18   59 1   
    34   19   20 ar  
    35   19   45 1   
    36   20   21 ar  
    37   20   46 1   
    38   21   22 ar  
    39   22   23 ar  
    40   22   24 1   
    41   24   25 1   
    42   24   29 1   
    43   25   26 1   
    44   25   47 1   
    45   25   48 1   
    46   26   27 1   
    47   26   49 1   
    48   26   50 1   
    49   27   28 1   
    50   27   31 1   
    51   27   51 1   
    52   28   29 1   
    53   28   30 1   
    54   28   52 1   
    55   29   53 1   
    56   29   54 1   
    57   31   32 1   
    58   32   55 1   
    59   32   56 1   
    60   32   57 1   
    61   33   58 1   
    62   44   59 1   
@<TRIPOS>SUBSTRUCTURE
     1 4ZQ         1 TEMP              0 ****  ****    0 ROOT
