@<TRIPOS>MOLECULE
4ZQ
   59    60     1     0     0
SMALL
bcc


@<TRIPOS>ATOM
      1 C14         0.4070   -0.4380   -0.1810 c3        1 4ZQ      0.365000
      2 C5          3.1950    3.1190   -1.6700 c1        1 4ZQ     -0.130000
      3 C6          2.8020    4.1860   -1.2380 c1        1 4ZQ     -0.060000
      4 C8          1.3510    4.5770    0.5840 c2        1 4ZQ      0.186000
      5 C9          1.2030    3.0850    0.5420 c2        1 4ZQ     -0.162000
      6 C10         2.3130    2.3170    0.5520 c2        1 4ZQ     -0.005000
      7 C12         1.7830   -0.1270    0.5710 c3        1 4ZQ      0.027000
      8 C13         1.4710   -0.0260    2.0590 c3        1 4ZQ     -0.233000
      9 C3          3.2470    0.8920   -1.1450 c2        1 4ZQ     -0.013000
     10 C1          1.7920   -0.7570   -4.9220 c3        1 4ZQ     -0.282000
     11 C2          3.8040   -0.4920   -1.4100 c1        1 4ZQ      0.122000
     12 N4          3.5910    1.8730   -1.9720 n2        1 4ZQ     -0.086000
     13 N7          2.1920    5.0840   -0.4600 n7        1 4ZQ     -0.201000
     14 N11         2.4730    1.0100    0.0400 n3        1 4ZQ     -0.265000
     15 F15         0.5270   -0.5640   -1.5420 f         1 4ZQ     -0.169000
     16 F16        -0.1510   -1.6220    0.2240 f         1 4ZQ     -0.169000
     17 F17        -0.5770    0.4960   -0.0030 f         1 4ZQ     -0.169000
     18 C19         0.6560    6.6380    1.6660 c2        1 4ZQ      0.007000
     19 C20        -0.2490    7.0710    2.8120 c3        1 4ZQ     -0.168000
     20 C21        -0.3460    8.5460    2.9630 c1        1 4ZQ     -0.116000
     21 N22         0.3190    9.3550    2.1770 n7        1 4ZQ     -0.131000
     22 C23         1.1920    8.8740    1.1210 c2        1 4ZQ     -0.217000
     23 N24         1.3180    7.4940    0.9060 n2        1 4ZQ     -0.178000
     24 N25         1.9530    9.7420    0.3510 n3        1 4ZQ      0.128000
     25 C26         1.6200   11.1720    0.4260 c3        1 4ZQ     -0.077000
     26 C27         2.2220   12.0350   -0.6740 c3        1 4ZQ     -0.172000
     27 C28         3.6840   11.6800   -0.8950 c3        1 4ZQ     -0.001000
     28 C29         3.7740   10.1990   -1.3320 c3        1 4ZQ      0.091000
     29 C30         2.9720    9.3280   -0.4060 c2        1 4ZQ     -0.307000
     30 F31         3.3780   10.0330   -2.6510 f         1 4ZQ     -0.153000
     31 O32         4.1610   12.5690   -1.8970 os        1 4ZQ     -0.259000
     32 C33         5.5590   12.4750   -2.1240 c3        1 4ZQ     -0.079000
     33 O34         3.9580   -0.9130   -2.6120 oh        1 4ZQ     -0.143000
     34 H1          2.1640    6.0440   -0.7290 hn        1 4ZQ      0.278000
     35 H2          3.2860    2.7440    0.8850 h4        1 4ZQ      0.151000
     36 H3          2.4200   -1.0490    0.3800 h1        1 4ZQ      0.158000
     37 H4          2.4150    0.0870    2.6450 hc        1 4ZQ      0.105667
     38 H5          0.9530   -0.9610    2.3820 hc        1 4ZQ      0.105667
     39 H6          0.8050    0.8470    2.2690 hc        1 4ZQ      0.105667
     40 H7          1.3420   -0.6860   -3.9060 hc        1 4ZQ      0.071000
     41 H8          2.2380    0.2220   -5.2030 hc        1 4ZQ      0.071000
     42 H9          1.0020   -1.0260   -5.6560 hc        1 4ZQ      0.071000
     43 H10         2.5800   -1.5430   -4.9240 hc        1 4ZQ      0.071000
     44 H11         0.1810    2.7150    0.3650 ha        1 4ZQ      0.177000
     45 H12        -1.2890    6.6710    2.6560 hc        1 4ZQ      0.139500
     46 H13         0.1280    6.6460    3.7820 hc        1 4ZQ      0.139500
     47 H14         0.2310   10.3370    2.3080 hn        1 4ZQ      0.243000
     48 H15         0.4980   11.2850    0.3640 h1        1 4ZQ      0.118500
     49 H16         1.9770   11.5480    1.4290 h1        1 4ZQ      0.118500
     50 H17         2.1260   13.1110   -0.3770 hc        1 4ZQ      0.123500
     51 H18         1.6670   11.8920   -1.6390 hc        1 4ZQ      0.123500
     52 H19         4.2820   11.8100    0.0500 h1        1 4ZQ      0.093000
     53 H20         4.8520    9.8610   -1.2570 h1        1 4ZQ      0.107000
     54 H21         3.2350    8.2580   -0.4190 h4        1 4ZQ      0.186000
     55 H22         5.8150   11.4800   -2.5640 h1        1 4ZQ      0.080000
     56 H23         6.1300   12.6380   -1.1770 h1        1 4ZQ      0.080000
     57 H24         5.7700   13.2930   -2.8580 h1        1 4ZQ      0.080000
     58 H25         3.6980   -0.3240   -3.3570 ho        1 4ZQ      0.215000
     59 N18         0.7140    5.2430    1.5050 n2        1 4ZQ     -0.197000
@<TRIPOS>BOND
     1    1    7 1   
     2    1   15 1   
     3    1   16 1   
     4    1   17 1   
     5    2    3 1   
     6    2   12 1   
     7    3   13 1   
     8    4    5 1   
     9    4   13 1   
    10    4   59 1   
    11    5    6 1   
    12    5   44 1   
    13    6   14 1   
    14    6   35 1   
    15    7    8 1   
    16    7   14 1   
    17    7   36 1   
    18    8   37 1   
    19    8   38 1   
    20    8   39 1   
    21    9   11 1   
    22    9   12 1   
    23    9   14 1   
    24   10   40 1   
    25   10   41 1   
    26   10   42 1   
    27   10   43 1   
    28   11   33 1   
    29   13   34 1   
    30   18   19 1   
    31   18   23 1   
    32   18   59 1   
    33   19   20 1   
    34   19   45 1   
    35   19   46 1   
    36   20   21 1   
    37   21   22 1   
    38   21   47 1   
    39   22   23 1   
    40   22   24 1   
    41   24   25 1   
    42   24   29 1   
    43   25   26 1   
    44   25   48 1   
    45   25   49 1   
    46   26   27 1   
    47   26   50 1   
    48   26   51 1   
    49   27   28 1   
    50   27   31 1   
    51   27   52 1   
    52   28   29 1   
    53   28   30 1   
    54   28   53 1   
    55   29   54 1   
    56   31   32 1   
    57   32   55 1   
    58   32   56 1   
    59   32   57 1   
    60   33   58 1   
@<TRIPOS>SUBSTRUCTURE
     1 4ZQ         1 TEMP              0 ****  ****    0 ROOT
