@<TRIPOS>MOLECULE
4ZR
   59    58     1     0     0
SMALL
bcc


@<TRIPOS>ATOM
      1 C14         0.4550    0.0100    0.2720 c3        1 4ZR      0.456000
      2 C5          2.6740    3.4220   -1.6890 c2        1 4ZR     -0.172000
      3 C6          2.4580    4.8020   -2.0230 c1        1 4ZR     -0.002000
      4 C8          0.7450    4.8850   -0.2920 c2        1 4ZR      0.123000
      5 C9          0.9230    3.5450    0.0740 c2        1 4ZR     -0.224000
      6 C10         1.8920    2.8010   -0.6350 c2        1 4ZR      0.025000
      7 C12         1.9320    0.4760    0.3450 c2        1 4ZR     -0.068000
      8 C13         2.7640   -0.1150    1.2190 c2        1 4ZR     -0.103000
      9 C3          3.3530    1.3400   -1.5380 c2        1 4ZR     -0.162000
     10 C1          1.8320   -2.1390   -3.2560 c3        1 4ZR     -0.272000
     11 C2          4.0770    0.0560   -1.6760 c1        1 4ZR      0.112000
     12 N4          3.5570    2.4910   -2.2220 n2        1 4ZR     -0.050000
     13 N7          1.5160    5.4540   -1.3250 n7        1 4ZR     -0.134000
     14 N11         2.3210    1.4820   -0.5540 na        1 4ZR     -0.092000
     15 F15        -0.4210    0.8480    0.9190 f         1 4ZR     -0.158667
     16 F16        -0.0540   -0.1180   -0.9920 f         1 4ZR     -0.158667
     17 F17         0.2390   -1.2130    0.8550 f         1 4ZR     -0.158667
     18 C19        -0.1750    6.9300    0.8180 c2        1 4ZR      0.188000
     19 C20        -1.3550    7.4550    1.6220 c3        1 4ZR     -0.270000
     20 C21        -1.1650    8.8540    2.1160 c1        1 4ZR     -0.072000
     21 N22        -0.1150    9.5750    1.7860 n2        1 4ZR     -0.283000
     22 C23         0.8740    9.0200    0.9910 c2        1 4ZR      0.237000
     23 N24         0.8960    7.6840    0.5400 n2        1 4ZR     -0.311000
     24 N25         1.9280    9.8180    0.4940 n2        1 4ZR     -0.232000
     25 C26         4.1470    9.9690   -2.0650 c3        1 4ZR     -0.219000
     26 C27         3.4320   11.2600   -1.7420 c3        1 4ZR     -0.137000
     27 C28         3.9420   11.8670   -0.4730 c2        1 4ZR      0.166000
     28 C29         3.5530   11.6070    0.8010 c2        1 4ZR     -0.329000
     29 C30         2.5370   10.6820    1.2500 c2        1 4ZR      0.124000
     30 F31         1.3210    8.3010   -2.3810 f         1 4ZR     -0.298000
     31 O32         4.9060   12.7940   -0.7850 os        1 4ZR     -0.209000
     32 C33         5.5430   13.4890    0.2830 c3        1 4ZR     -0.085000
     33 O34         4.8910   -0.1200   -2.6590 oh        1 4ZR     -0.150000
     34 H1          1.3660    6.4200   -1.5750 hn        1 4ZR      0.298000
     35 H2          0.3320    3.0760    0.8730 ha        1 4ZR      0.162000
     36 H3          0.6280   -0.0990    3.0810 ha        1 4ZR      0.000000
     37 H4          0.0140   -0.2240    3.3370 ha        1 4ZR      0.000000
     38 H5          2.4160   -0.9270    1.8760 ha        1 4ZR      0.156000
     39 H6          3.8270    0.1550    1.3030 ha        1 4ZR      0.156000
     40 H7          0.9720   -1.6550   -2.7430 hc        1 4ZR      0.068000
     41 H8          1.8210   -3.2310   -3.0490 hc        1 4ZR      0.068000
     42 H9          1.7540   -1.9700   -4.3520 hc        1 4ZR      0.068000
     43 H10         2.7830   -1.7000   -2.8780 hc        1 4ZR      0.068000
     44 H11        -1.0270    5.0860    0.7270 hn        1 4ZR      0.258000
     45 H12        -2.2900    7.4390    0.9960 hc        1 4ZR      0.158000
     46 H13        -1.5330    6.8090    2.5240 hc        1 4ZR      0.158000
     47 H14         5.2370   10.1550   -2.2220 hc        1 4ZR      0.089667
     48 H15         3.7220    9.5300   -3.0010 hc        1 4ZR      0.089667
     49 H16         4.0310    9.2250   -1.2400 hc        1 4ZR      0.089667
     50 H17         2.3260   11.0920   -1.6580 hc        1 4ZR      0.115000
     51 H18         3.5960   11.9910   -2.5830 hc        1 4ZR      0.115000
     52 H19         1.8170    8.7650   -1.9080 ha        1 4ZR      0.305000
     53 H20         4.0250   12.1510    1.6370 ha        1 4ZR      0.144000
     54 H21         2.3400   10.7530    2.3480 h4        1 4ZR      0.133000
     55 H22         4.7980   14.0950    0.8550 h1        1 4ZR      0.092333
     56 H23         6.0730   12.7730    0.9570 h1        1 4ZR      0.092333
     57 H24         6.2740   14.1540   -0.2420 h1        1 4ZR      0.092333
     58 H25         5.0060    0.6090   -3.3070 ho        1 4ZR      0.206000
     59 N18        -0.2630    5.6250    0.3770 n7        1 4ZR     -0.264000
@<TRIPOS>BOND
     1    1    7 1   
     2    1   15 1   
     3    1   16 1   
     4    1   17 1   
     5    2    3 1   
     6    2    6 1   
     7    2   12 1   
     8    3   13 1   
     9    4    5 1   
    10    4   13 1   
    11    4   59 1   
    12    5    6 1   
    13    5   35 1   
    14    6   14 1   
    15    7    8 1   
    16    7   14 1   
    17    8   38 1   
    18    8   39 1   
    19    9   11 1   
    20    9   12 1   
    21    9   14 1   
    22   10   40 1   
    23   10   41 1   
    24   10   42 1   
    25   10   43 1   
    26   11   33 1   
    27   13   34 1   
    28   18   19 1   
    29   18   23 1   
    30   18   59 1   
    31   19   20 1   
    32   19   45 1   
    33   19   46 1   
    34   20   21 1   
    35   21   22 1   
    36   22   23 1   
    37   22   24 1   
    38   24   29 1   
    39   25   26 1   
    40   25   47 1   
    41   25   48 1   
    42   25   49 1   
    43   26   27 1   
    44   26   50 1   
    45   26   51 1   
    46   27   28 1   
    47   27   31 1   
    48   28   29 1   
    49   28   53 1   
    50   29   54 1   
    51   30   52 1   
    52   31   32 1   
    53   32   55 1   
    54   32   56 1   
    55   32   57 1   
    56   33   58 1   
    57   36   37 1   
    58   44   59 1   
@<TRIPOS>SUBSTRUCTURE
     1 4ZR         1 TEMP              0 ****  ****    0 ROOT
