@<TRIPOS>MOLECULE
4ZR
   59    62     1     0     0
SMALL
bcc


@<TRIPOS>ATOM
      1 C14         3.2190    1.7530    1.1220 c3        1 4ZR      0.598900
      2 C5         -0.0320    2.6240   -1.9650 ca        1 4ZR     -0.068900
      3 C6         -1.3490    3.1190   -2.0960 ca        1 4ZR      0.486200
      4 C8         -1.1100    4.4130   -0.1610 ca        1 4ZR      0.625200
      5 C9          0.2120    3.9750    0.0870 ca        1 4ZR     -0.211300
      6 C10         0.7620    3.0860   -0.8420 ca        1 4ZR     -0.025200
      7 C12         3.1930    2.6490   -0.1960 c3        1 4ZR      0.034000
      8 C13         3.4740    4.0880    0.2200 c3        1 4ZR     -0.119100
      9 C3          1.9080    1.6190   -2.1300 cc        1 4ZR      0.382800
     10 C1          2.6500   -0.2040   -3.6920 c3        1 4ZR     -0.119100
     11 C2          3.0510    0.7240   -2.5620 c3        1 4ZR      0.127800
     12 N4          0.7140    1.7180   -2.7370 nd        1 4ZR     -0.529100
     13 N7         -1.8690    3.9890   -1.2360 nb        1 4ZR     -0.715000
     14 N11         2.0020    2.4410   -0.9590 na        1 4ZR     -0.165300
     15 F15         2.2480    2.0460    2.0400 f         1 4ZR     -0.233633
     16 F16         3.0980    0.4100    0.8790 f         1 4ZR     -0.233633
     17 F17         4.4030    1.8760    1.8040 f         1 4ZR     -0.233633
     18 C19        -1.2250    6.5680    1.0320 ca        1 4ZR      0.697200
     19 C20        -2.0160    7.4620    1.8180 ca        1 4ZR     -0.452600
     20 C21        -1.4330    8.6920    2.1420 ca        1 4ZR      0.483200
     21 N22        -0.2110    9.0740    1.7450 nb        1 4ZR     -0.765000
     22 C23         0.4870    8.1740    0.9440 ca        1 4ZR      0.898900
     23 N24         0.0210    6.9160    0.5950 nb        1 4ZR     -0.798000
     24 N25         1.7270    8.5940    0.3910 nh        1 4ZR     -0.727300
     25 C26         2.5760    7.5660   -0.1880 c3        1 4ZR      0.201800
     26 C27         3.7800    8.1090   -0.9510 c3        1 4ZR     -0.088400
     27 C28         4.5550    9.0980   -0.0950 c3        1 4ZR      0.111100
     28 C29         3.6200   10.2610    0.3000 c3        1 4ZR      0.143600
     29 C30         2.3940    9.6960    1.0590 c3        1 4ZR      0.174800
     30 F31         3.2380   11.0150   -0.7930 f         1 4ZR     -0.220300
     31 O32         5.6520    9.5450   -0.8850 os        1 4ZR     -0.403600
     32 C33         6.6590   10.2110   -0.1400 c3        1 4ZR      0.111700
     33 O34         4.1790    1.5120   -2.9040 oh        1 4ZR     -0.602800
     34 H1         -1.9980    2.8000   -2.9320 h4        1 4ZR      0.041100
     35 H2          0.7690    4.3110    0.9710 ha        1 4ZR      0.167000
     36 H3          4.0690    2.2750   -0.8150 h1        1 4ZR      0.124700
     37 H4          4.5290    4.1480    0.5830 hc        1 4ZR      0.067367
     38 H5          2.7960    4.4100    1.0470 hc        1 4ZR      0.067367
     39 H6          3.3460    4.7870   -0.6420 hc        1 4ZR      0.067367
     40 H7          2.3370    0.3740   -4.5940 hc        1 4ZR      0.059367
     41 H8          3.5240   -0.8460   -3.9620 hc        1 4ZR      0.059367
     42 H9          1.8020   -0.8550   -3.3730 hc        1 4ZR      0.059367
     43 H10         3.3940    0.1240   -1.6640 h1        1 4ZR      0.096700
     44 H11        -2.7420    5.2680    0.7480 hn        1 4ZR      0.437800
     45 H12        -3.0210    7.2010    2.1640 ha        1 4ZR      0.157000
     46 H13        -1.9760    9.4270    2.7650 h4        1 4ZR      0.028100
     47 H14         1.9640    6.9650   -0.9220 h1        1 4ZR      0.053200
     48 H15         2.9420    6.8600    0.6160 h1        1 4ZR      0.053200
     49 H16         4.4390    7.2500   -1.2370 hc        1 4ZR      0.073200
     50 H17         3.4530    8.6240   -1.8920 hc        1 4ZR      0.073200
     51 H18         4.9300    8.6100    0.8470 h1        1 4ZR      0.045700
     52 H19         4.1630   10.9470    1.0150 h1        1 4ZR      0.055700
     53 H20         2.7490    9.3840    2.0830 h1        1 4ZR      0.068200
     54 H21         1.6640   10.5480    1.1730 h1        1 4ZR      0.068200
     55 H22         7.0610    9.5490    0.6660 h1        1 4ZR      0.036700
     56 H23         7.4520   10.4370   -0.8960 h1        1 4ZR      0.036700
     57 H24         6.2630   11.1580    0.3020 h1        1 4ZR      0.036700
     58 H25         3.9990    1.9310   -3.7550 ho        1 4ZR      0.416000
     59 N18        -1.7390    5.2790    0.7830 nh        1 4ZR     -0.813600
@<TRIPOS>BOND
     1    1    7 1   
     2    1   15 1   
     3    1   16 1   
     4    1   17 1   
     5    2    3 ar  
     6    2    6 ar  
     7    2   12 1   
     8    3   13 ar  
     9    3   34 1   
    10    4    5 ar  
    11    4   13 ar  
    12    4   59 1   
    13    5    6 ar  
    14    5   35 1   
    15    6   14 1   
    16    7    8 1   
    17    7   14 1   
    18    7   36 1   
    19    8   37 1   
    20    8   38 1   
    21    8   39 1   
    22    9   11 1   
    23    9   12 2   
    24    9   14 1   
    25   10   11 1   
    26   10   40 1   
    27   10   41 1   
    28   10   42 1   
    29   11   33 1   
    30   11   43 1   
    31   18   19 ar  
    32   18   23 ar  
    33   18   59 1   
    34   19   20 ar  
    35   19   45 1   
    36   20   21 ar  
    37   20   46 1   
    38   21   22 ar  
    39   22   23 ar  
    40   22   24 1   
    41   24   25 1   
    42   24   29 1   
    43   25   26 1   
    44   25   47 1   
    45   25   48 1   
    46   26   27 1   
    47   26   49 1   
    48   26   50 1   
    49   27   28 1   
    50   27   31 1   
    51   27   51 1   
    52   28   29 1   
    53   28   30 1   
    54   28   52 1   
    55   29   53 1   
    56   29   54 1   
    57   31   32 1   
    58   32   55 1   
    59   32   56 1   
    60   32   57 1   
    61   33   58 1   
    62   44   59 1   
@<TRIPOS>SUBSTRUCTURE
     1 4ZR         1 TEMP              0 ****  ****    0 ROOT
