@<TRIPOS>MOLECULE
4ZW
   37    39     1     0     0
SMALL
bcc


@<TRIPOS>ATOM
      1 O01         0.1220   -0.7180    0.1080 o         1 4ZW     -0.446100
      2 C02         1.3230   -0.5090   -0.0220 c         1 4ZW      0.577700
      3 N03         2.1240   -0.4310    1.2690 n4        1 4ZW     -0.677800
      4 C05         1.2950   -0.1560    2.4990 c3        1 4ZW      0.122500
      5 C07         0.8500    1.3090    2.5530 c3        1 4ZW     -0.102400
      6 C10         0.0420    1.5470    3.8330 c3        1 4ZW      0.169800
      7 N13         0.7740    1.1590    5.0190 n3        1 4ZW     -0.833200
      8 C15         1.2130   -0.2190    4.9960 c3        1 4ZW      0.169800
      9 C18         2.0730   -0.5280    3.7660 c3        1 4ZW     -0.102400
     10 C21         2.0670   -0.3210   -1.2560 ca        1 4ZW     -0.271600
     11 C22         1.2850   -0.1150   -2.4240 ca        1 4ZW      0.014000
     12 C24         1.9170    0.0640   -3.6260 ca        1 4ZW     -0.166300
     13 C25         3.3600    0.0340   -3.7120 ca        1 4ZW      0.158600
     14 N26         3.7690    0.2340   -5.0150 n         1 4ZW     -0.463100
     15 C28         2.6290    0.4050   -5.8650 c         1 4ZW      0.698500
     16 O29         2.7170    0.5980   -7.0720 o         1 4ZW     -0.521500
     17 C30         1.3670    0.3000   -4.9980 c3        1 4ZW     -0.104100
     18 C33         4.1280   -0.1830   -2.5550 ca        1 4ZW     -0.186000
     19 C35         3.4700   -0.3570   -1.3460 ca        1 4ZW     -0.033000
     20 H1          2.8260    0.3090    1.1730 hn        1 4ZW      0.452300
     21 H2          0.3750   -0.8150    2.4220 hx        1 4ZW      0.123700
     22 H3          0.2000    1.5490    1.6720 hc        1 4ZW      0.069450
     23 H4          1.7400    1.9920    2.5400 hc        1 4ZW      0.069450
     24 H5         -0.1800    2.6500    3.9110 h1        1 4ZW      0.056200
     25 H6         -0.9430    1.0020    3.7320 h1        1 4ZW      0.056200
     26 H7          0.2520    1.3600    5.8510 hn        1 4ZW      0.400800
     27 H9          1.8370   -0.3970    5.9180 h1        1 4ZW      0.056200
     28 H10         0.3510   -0.9510    5.0140 h1        1 4ZW      0.056200
     29 H11         2.3180   -1.6220    3.7740 hc        1 4ZW      0.069450
     30 H12         3.0300    0.0530    3.8250 hc        1 4ZW      0.069450
     31 H13         0.1830   -0.1030   -2.3480 ha        1 4ZW      0.174000
     32 H14         4.7100    0.2510   -5.3220 hn        1 4ZW      0.361500
     33 H15         0.7800    1.2520   -5.0680 hc        1 4ZW      0.116200
     34 H16         0.7300   -0.5470   -5.3580 hc        1 4ZW      0.116200
     35 H17         5.2270   -0.2200   -2.6050 ha        1 4ZW      0.170000
     36 H18         4.0960   -0.5460   -0.4590 ha        1 4ZW      0.124000
     37 H032        2.6090   -1.3250    1.3960 hn        1 4ZW      0.452300
@<TRIPOS>BOND
     1    1    2 2   
     2    2    3 1   
     3    2   10 1   
     4    3    4 1   
     5    3   20 1   
     6    3   37 1   
     7    4    5 1   
     8    4    9 1   
     9    4   21 1   
    10    5    6 1   
    11    5   22 1   
    12    5   23 1   
    13    6    7 1   
    14    6   24 1   
    15    6   25 1   
    16    7    8 1   
    17    7   26 1   
    18    8    9 1   
    19    8   27 1   
    20    8   28 1   
    21    9   29 1   
    22    9   30 1   
    23   10   11 ar  
    24   10   19 ar  
    25   11   12 ar  
    26   11   31 1   
    27   12   13 ar  
    28   12   17 1   
    29   13   14 1   
    30   13   18 ar  
    31   14   15 1   
    32   14   32 1   
    33   15   16 2   
    34   15   17 1   
    35   17   33 1   
    36   17   34 1   
    37   18   19 ar  
    38   18   35 1   
    39   19   36 1   
@<TRIPOS>SUBSTRUCTURE
     1 4ZW         1 TEMP              0 ****  ****    0 ROOT
