@<TRIPOS>MOLECULE
4ZW
   37    39     1     0     0
SMALL
bcc


@<TRIPOS>ATOM
      1 O01         0.1320   -0.7300    0.1050 o         1 4ZW     -0.446100
      2 C02         1.3310   -0.5100   -0.0240 c         1 4ZW      0.577700
      3 N03         2.1300   -0.4230    1.2680 ny        1 4ZW     -0.677800
      4 C05         1.2960   -0.1570    2.4970 c3        1 4ZW      0.122500
      5 C07         0.8360    1.3030    2.5500 c3        1 4ZW     -0.102400
      6 C10         0.0240    1.5330    3.8290 c3        1 4ZW      0.169800
      7 N13         0.7590    1.1530    5.0160 n7        1 4ZW     -0.833200
      8 C15         1.2130   -0.2200    4.9940 c3        1 4ZW      0.169800
      9 C18         2.0780   -0.5210    3.7640 c3        1 4ZW     -0.102400
     10 C21         2.0740   -0.3170   -1.2580 ca        1 4ZW     -0.271600
     11 C22         1.2910   -0.1210   -2.4270 ca        1 4ZW      0.014000
     12 C24         1.9230    0.0610   -3.6280 ca        1 4ZW     -0.166300
     13 C25         3.3660    0.0460   -3.7130 ca        1 4ZW      0.158600
     14 N26         3.7750    0.2480   -5.0160 ns        1 4ZW     -0.463100
     15 C28         2.6340    0.4050   -5.8670 c         1 4ZW      0.698500
     16 O29         2.7220    0.5980   -7.0750 o         1 4ZW     -0.521500
     17 C30         1.3720    0.2900   -5.0010 c3        1 4ZW     -0.104100
     18 C33         4.1350   -0.1610   -2.5540 ca        1 4ZW     -0.186000
     19 C35         3.4780   -0.3390   -1.3460 ca        1 4ZW     -0.033000
     20 H1          2.8240    0.3250    1.1720 hn        1 4ZW      0.452300
     21 H2          0.3840   -0.8250    2.4190 hx        1 4ZW      0.123700
     22 H3          0.1840    1.5360    1.6690 hc        1 4ZW      0.069450
     23 H4          1.7180    1.9960    2.5380 hc        1 4ZW      0.069450
     24 H5         -0.9550    0.9770    3.7280 h1        1 4ZW      0.056450
     25 H6         -0.2100    2.6330    3.9070 h1        1 4ZW      0.056450
     26 H7          0.2340    1.3480    5.8470 hn        1 4ZW      0.400800
     27 H9          0.3590   -0.9610    5.0110 h1        1 4ZW      0.056450
     28 H10         1.8380   -0.3920    5.9160 h1        1 4ZW      0.056450
     29 H11         3.0290    0.0710    3.8240 hc        1 4ZW      0.069450
     30 H12         2.3340   -1.6120    3.7730 hc        1 4ZW      0.069450
     31 H13         0.1900   -0.1200   -2.3520 ha        1 4ZW      0.174000
     32 H14         4.7160    0.2740   -5.3220 hn        1 4ZW      0.361500
     33 H15         0.7760    1.2350   -5.0740 hc        1 4ZW      0.116200
     34 H16         0.7440   -0.5650   -5.3610 hc        1 4ZW      0.116200
     35 H17         5.2340   -0.1860   -2.6030 ha        1 4ZW      0.170000
     36 H18         4.1040   -0.5200   -0.4580 ha        1 4ZW      0.124000
     37 H032        2.6250   -1.3120    1.3950 hn        1 4ZW      0.452300
@<TRIPOS>BOND
     1    1    2 2   
     2    2    3 1   
     3    2   10 1   
     4    3    4 1   
     5    3   20 1   
     6    3   37 1   
     7    4    5 1   
     8    4    9 1   
     9    4   21 1   
    10    5    6 1   
    11    5   22 1   
    12    5   23 1   
    13    6    7 1   
    14    6   24 1   
    15    6   25 1   
    16    7    8 1   
    17    7   26 1   
    18    8    9 1   
    19    8   27 1   
    20    8   28 1   
    21    9   29 1   
    22    9   30 1   
    23   10   11 ar  
    24   10   19 ar  
    25   11   12 ar  
    26   11   31 1   
    27   12   13 ar  
    28   12   17 1   
    29   13   14 1   
    30   13   18 ar  
    31   14   15 1   
    32   14   32 1   
    33   15   16 2   
    34   15   17 1   
    35   17   33 1   
    36   17   34 1   
    37   18   19 ar  
    38   18   35 1   
    39   19   36 1   
@<TRIPOS>SUBSTRUCTURE
     1 4ZW         1 TEMP              0 ****  ****    0 ROOT
