@<TRIPOS>MOLECULE
4ZX
   75    80     1     0     0
SMALL
bcc


@<TRIPOS>ATOM
      1 Cl1         0.4960   -1.0260    0.5300 cl        1 4ZX     -0.025400
      2 C02         2.0070   -0.2710    0.4220 ca        1 4ZX      0.134400
      3 C03         2.7270   -0.0590    1.6000 ca        1 4ZX     -0.184000
      4 C05         3.9850    0.5510    1.5100 ca        1 4ZX      0.161600
      5 C06         4.5190    0.9360    0.2190 ca        1 4ZX     -0.151300
      6 C07         5.8600    1.5660    0.4330 c3        1 4ZX     -0.109100
      7 C10         6.0390    1.4940    1.9570 c         1 4ZX      0.698500
      8 O11         6.9860    1.8800    2.6320 o         1 4ZX     -0.509500
      9 N12         4.8760    0.8730    2.5140 ns        1 4ZX     -0.459100
     10 C14         3.8010    0.7150   -0.9250 ca        1 4ZX     -0.037000
     11 C16         2.5260    0.1090   -0.8330 ca        1 4ZX     -0.289600
     12 C17         1.7200   -0.0440   -2.0420 c         1 4ZX      0.594700
     13 O18         0.6250    0.4040   -2.3320 o         1 4ZX     -0.399100
     14 N19         2.3860   -0.9350   -3.0960 ny        1 4ZX     -0.693800
     15 C21         1.8450   -0.7660   -4.4930 c3        1 4ZX      0.139500
     16 C23         2.2000   -1.9760   -5.3770 c3        1 4ZX     -0.105900
     17 C26         3.4360   -1.7490   -6.2630 c3        1 4ZX      0.231500
     18 C28         4.6840   -1.4830   -5.3690 c3        1 4ZX     -0.109900
     19 C31         4.7190    0.0420   -5.2240 c3        1 4ZX     -0.109900
     20 C34         3.4720    0.5240   -6.0240 c3        1 4ZX      0.231500
     21 C36         2.2490    0.5920   -5.0960 c3        1 4ZX     -0.105900
     22 N39         3.2620   -0.5170   -7.0300 n3        1 4ZX     -0.824500
     23 S40         3.4310   -0.3480   -8.6490 s6        1 4ZX      1.577800
     24 O41         4.0650    0.8910   -8.8980 o         1 4ZX     -0.625800
     25 O42         4.0210   -1.5280   -9.1560 o         1 4ZX     -0.625800
     26 N43         1.9040   -0.2530   -9.2740 n3        1 4ZX     -0.810500
     27 C44         1.2560    1.0010   -9.5480 c3        1 4ZX      0.225800
     28 C47         1.0010    1.2370  -11.0440 c3        1 4ZX     -0.124400
     29 C50         0.2320    0.0500  -11.6360 c3        1 4ZX      0.124500
     30 C52         0.9680   -1.2610  -11.3430 c3        1 4ZX     -0.124400
     31 C55         1.2240   -1.3900   -9.8340 c3        1 4ZX      0.225800
     32 N58         0.0080    0.2450  -13.1130 ny        1 4ZX     -0.772000
     33 C60        -1.1320   -0.5750  -13.6520 c3        1 4ZX      0.179100
     34 C63        -1.2840   -0.3590  -15.1160 ca        1 4ZX     -0.203300
     35 C64        -0.5730   -1.1610  -16.0180 ca        1 4ZX     -0.099500
     36 C66        -0.7490   -0.9860  -17.3900 ca        1 4ZX     -0.115500
     37 C68        -1.6330   -0.0140  -17.8630 ca        1 4ZX     -0.069000
     38 C70        -2.3430    0.7840  -16.9650 ca        1 4ZX     -0.115500
     39 C72        -2.1710    0.6150  -15.5920 ca        1 4ZX     -0.099500
     40 H1          2.3080   -0.3600    2.5740 ha        1 4ZX      0.190000
     41 H2          5.8900    2.6350    0.1020 hc        1 4ZX      0.113700
     42 H3          6.6880    1.0040   -0.0680 hc        1 4ZX      0.113700
     43 H4          4.7230    0.7230    3.4820 hn        1 4ZX      0.368500
     44 H5          4.1960    1.0380   -1.9010 ha        1 4ZX      0.136000
     45 H6          2.2440   -1.9080   -2.8000 hn        1 4ZX      0.455800
     46 H7          0.7150   -0.7560   -4.3640 hx        1 4ZX      0.115700
     47 H8          1.3080   -2.1690   -6.0330 hc        1 4ZX      0.080450
     48 H9          2.3630   -2.9060   -4.7720 hc        1 4ZX      0.080450
     49 H10         3.5930   -2.6330   -6.9420 h1        1 4ZX      0.113200
     50 H11         5.6070   -1.8560   -5.8820 hc        1 4ZX      0.065700
     51 H12         4.6070   -2.0150   -4.3940 hc        1 4ZX      0.065700
     52 H13         4.6850    0.3880   -4.1660 hc        1 4ZX      0.065700
     53 H14         5.6500    0.4640   -5.6800 hc        1 4ZX      0.065700
     54 H15         3.6490    1.5250   -6.5050 h1        1 4ZX      0.113200
     55 H16         1.3630    0.9610   -5.6820 hc        1 4ZX      0.080450
     56 H17         2.4450    1.3520   -4.2950 hc        1 4ZX      0.080450
     57 H18         1.9000    1.8490   -9.1710 h1        1 4ZX      0.075450
     58 H19         0.2660    1.0380   -9.0070 h1        1 4ZX      0.075450
     59 H20         1.9800    1.3770  -11.5750 hc        1 4ZX      0.080450
     60 H21         0.4090    2.1840  -11.1480 hc        1 4ZX      0.080450
     61 H22        -0.7940    0.0080  -11.1580 hx        1 4ZX      0.104700
     62 H23         1.9450   -1.2970  -11.8940 hc        1 4ZX      0.080450
     63 H24         0.3530   -2.1420  -11.6650 hc        1 4ZX      0.080450
     64 H25         1.8450   -2.3200   -9.6680 h1        1 4ZX      0.075450
     65 H26         0.2320   -1.5270   -9.3140 h1        1 4ZX      0.075450
     66 H27         0.8640   -0.0020  -13.6230 hn        1 4ZX      0.451300
     67 H29        -2.0660   -0.2680  -13.0990 hx        1 4ZX      0.104200
     68 H30        -0.9110   -1.6570  -13.4240 hx        1 4ZX      0.104200
     69 H31         0.1100   -1.9420  -15.6510 ha        1 4ZX      0.137000
     70 H32        -0.1950   -1.6210  -18.1000 ha        1 4ZX      0.164500
     71 H33        -1.7740    0.1190  -18.9490 ha        1 4ZX      0.167000
     72 H34        -3.0470    1.5450  -17.3400 ha        1 4ZX      0.164500
     73 H35        -2.7480    1.2340  -14.8890 ha        1 4ZX      0.137000
     74 H192        3.3960   -0.7500   -3.0920 hn        1 4ZX      0.455800
     75 H582       -0.1860    1.2370  -13.2940 hn        1 4ZX      0.451300
@<TRIPOS>BOND
     1    1    2 1   
     2    2    3 ar  
     3    2   11 ar  
     4    3    4 ar  
     5    3   40 1   
     6    4    5 ar  
     7    4    9 1   
     8    5    6 1   
     9    5   10 ar  
    10    6    7 1   
    11    6   41 1   
    12    6   42 1   
    13    7    8 2   
    14    7    9 1   
    15    9   43 1   
    16   10   11 ar  
    17   10   44 1   
    18   11   12 1   
    19   12   13 2   
    20   12   14 1   
    21   14   15 1   
    22   14   45 1   
    23   14   74 1   
    24   15   16 1   
    25   15   21 1   
    26   15   46 1   
    27   16   17 1   
    28   16   47 1   
    29   16   48 1   
    30   17   18 1   
    31   17   22 1   
    32   17   49 1   
    33   18   19 1   
    34   18   50 1   
    35   18   51 1   
    36   19   20 1   
    37   19   52 1   
    38   19   53 1   
    39   20   21 1   
    40   20   22 1   
    41   20   54 1   
    42   21   55 1   
    43   21   56 1   
    44   22   23 1   
    45   23   24 2   
    46   23   25 2   
    47   23   26 1   
    48   26   27 1   
    49   26   31 1   
    50   27   28 1   
    51   27   57 1   
    52   27   58 1   
    53   28   29 1   
    54   28   59 1   
    55   28   60 1   
    56   29   30 1   
    57   29   32 1   
    58   29   61 1   
    59   30   31 1   
    60   30   62 1   
    61   30   63 1   
    62   31   64 1   
    63   31   65 1   
    64   32   33 1   
    65   32   66 1   
    66   32   75 1   
    67   33   34 1   
    68   33   67 1   
    69   33   68 1   
    70   34   35 ar  
    71   34   39 ar  
    72   35   36 ar  
    73   35   69 1   
    74   36   37 ar  
    75   36   70 1   
    76   37   38 ar  
    77   37   71 1   
    78   38   39 ar  
    79   38   72 1   
    80   39   73 1   
@<TRIPOS>SUBSTRUCTURE
     1 4ZX         1 TEMP              0 ****  ****    0 ROOT
