@<TRIPOS>MOLECULE
4ZX
   75    80     1     0     0
SMALL
bcc


@<TRIPOS>ATOM
      1 CL1         0.5180    1.1770    0.4750 cl        1 4ZX     -0.025400
      2 C02         2.0010    0.3670    0.3820 ca        1 4ZX      0.134400
      3 C03         2.7080    0.1430    1.5660 ca        1 4ZX     -0.184000
      4 C05         3.9440   -0.5120    1.4900 ca        1 4ZX      0.161600
      5 C06         4.4710   -0.9290    0.2050 ca        1 4ZX     -0.151300
      6 C07         5.7870   -1.6030    0.4330 c3        1 4ZX     -0.109100
      7 C10         5.9610   -1.5220    1.9580 c         1 4ZX      0.698500
      8 O11         6.8900   -1.9350    2.6410 o         1 4ZX     -0.509500
      9 N12         4.8170   -0.8550    2.5010 n         1 4ZX     -0.459100
     10 C14         3.7660   -0.6940   -0.9440 ca        1 4ZX     -0.037000
     11 C16         2.5130   -0.0430   -0.8650 ca        1 4ZX     -0.289600
     12 C17         1.7190    0.1260   -2.0800 c         1 4ZX      0.594700
     13 O18         0.6100   -0.2860   -2.3710 o         1 4ZX     -0.399100
     14 N19         2.4230    0.9820   -3.1390 n4        1 4ZX     -0.693800
     15 C21         1.8760    0.8250   -4.5360 c3        1 4ZX      0.139500
     16 C23         2.2230   -0.5530   -5.1290 c3        1 4ZX     -0.105900
     17 C26         3.4500   -0.5420   -6.0560 c3        1 4ZX      0.231000
     18 C28         4.7150   -0.1080   -5.2570 c3        1 4ZX     -0.109900
     19 C31         4.7450    1.4160   -5.4130 c3        1 4ZX     -0.109900
     20 C34         3.5100    1.7280   -6.3110 c3        1 4ZX      0.231000
     21 C36         2.2830    2.0130   -5.4280 c3        1 4ZX     -0.105900
     22 N39         3.2850    0.4990   -7.0690 n3        1 4ZX     -0.824500
     23 S40         3.4490    0.3120   -8.6860 s6        1 4ZX      1.577800
     24 O41         4.0840    1.4660   -9.2010 o         1 4ZX     -0.625300
     25 O42         4.0360   -0.9520   -8.9270 o         1 4ZX     -0.625300
     26 N43         1.9200    0.2710   -9.3120 n3        1 4ZX     -0.810500
     27 C44         1.2770    1.4340   -9.8630 c3        1 4ZX      0.226300
     28 C47         1.0170    1.3240  -11.3730 c3        1 4ZX     -0.124400
     29 C50         0.2390    0.0380  -11.6760 c3        1 4ZX      0.124500
     30 C52         0.9700   -1.1760  -11.0950 c3        1 4ZX     -0.124400
     31 C55         1.2320   -0.9600   -9.5970 c3        1 4ZX      0.226300
     32 N58         0.0100   -0.1070  -13.1580 n4        1 4ZX     -0.772000
     33 C60        -1.1370   -1.0210  -13.4920 c3        1 4ZX      0.179100
     34 C63        -1.2950   -1.1430  -14.9670 ca        1 4ZX     -0.203300
     35 C64        -0.5930   -2.1320  -15.6670 ca        1 4ZX     -0.099500
     36 C66        -0.7750   -2.2720  -17.0410 ca        1 4ZX     -0.115500
     37 C68        -1.6560   -1.4270  -17.7200 ca        1 4ZX     -0.069000
     38 C70        -2.3580   -0.4410  -17.0220 ca        1 4ZX     -0.115500
     39 C72        -2.1800   -0.2970  -15.6480 ca        1 4ZX     -0.099500
     40 H1          2.2940    0.4690    2.5350 ha        1 4ZX      0.190000
     41 H2          6.6370   -1.0770   -0.0700 hc        1 4ZX      0.113700
     42 H3          5.7810   -2.6760    0.1130 hc        1 4ZX      0.113700
     43 H4          4.6660   -0.6890    3.4670 hn        1 4ZX      0.368500
     44 H5          4.1550   -1.0410   -1.9150 ha        1 4ZX      0.136000
     45 H6          2.3200    1.9620   -2.8510 hn        1 4ZX      0.455800
     46 H7          0.7470    0.8640   -4.4090 hx        1 4ZX      0.115700
     47 H8          1.3240   -0.8880   -5.7140 hc        1 4ZX      0.080450
     48 H9          2.3860   -1.3150   -4.3230 hc        1 4ZX      0.080450
     49 H10         3.5860   -1.5540   -6.5290 h1        1 4ZX      0.113200
     50 H11         4.6640   -0.4440   -4.1960 hc        1 4ZX      0.065700
     51 H12         5.6280   -0.5720   -5.7080 hc        1 4ZX      0.065700
     52 H13         5.6820    1.7460   -5.9260 hc        1 4ZX      0.065700
     53 H14         4.6890    1.9580   -4.4410 hc        1 4ZX      0.065700
     54 H15         3.7050    2.5990   -6.9950 h1        1 4ZX      0.113200
     55 H16         2.4840    2.9400   -4.8300 hc        1 4ZX      0.080450
     56 H17         1.4010    2.2390   -6.0870 hc        1 4ZX      0.080450
     57 H18         1.9270    2.3420   -9.6910 h1        1 4ZX      0.075700
     58 H19         0.2890    1.5980   -9.3420 h1        1 4ZX      0.075700
     59 H20         1.9940    1.3330  -11.9240 hc        1 4ZX      0.080450
     60 H21         0.4290    2.2260  -11.6870 hc        1 4ZX      0.080450
     61 H22        -0.7850    0.1120  -11.1980 hx        1 4ZX      0.104700
     62 H23         0.3490   -2.1030  -11.2060 hc        1 4ZX      0.080450
     63 H24         1.9440   -1.3420  -11.6270 hc        1 4ZX      0.080450
     64 H25         0.2410   -0.9690   -9.0560 h1        1 4ZX      0.075700
     65 H26         1.8490   -1.8310   -9.2260 h1        1 4ZX      0.075700
     66 H27         0.8620   -0.4690  -13.6010 hn        1 4ZX      0.451300
     67 H29        -0.9190   -2.0250  -13.0260 hx        1 4ZX      0.104200
     68 H30        -2.0670   -0.5920  -13.0200 hx        1 4ZX      0.104200
     69 H31         0.0880   -2.8140  -15.1340 ha        1 4ZX      0.137000
     70 H32        -0.2280   -3.0540  -17.5910 ha        1 4ZX      0.164500
     71 H33        -1.8030   -1.5420  -18.8070 ha        1 4ZX      0.167000
     72 H34        -3.0600    0.2190  -17.5580 ha        1 4ZX      0.164500
     73 H35        -2.7500    0.4700  -15.1010 ha        1 4ZX      0.137000
     74 H192        3.4230    0.7550   -3.1330 hn        1 4ZX      0.455800
     75 H582       -0.1800    0.8190  -13.5600 hn        1 4ZX      0.451300
@<TRIPOS>BOND
     1    1    2 1   
     2    2    3 ar  
     3    2   11 ar  
     4    3    4 ar  
     5    3   40 1   
     6    4    5 ar  
     7    4    9 1   
     8    5    6 1   
     9    5   10 ar  
    10    6    7 1   
    11    6   41 1   
    12    6   42 1   
    13    7    8 2   
    14    7    9 1   
    15    9   43 1   
    16   10   11 ar  
    17   10   44 1   
    18   11   12 1   
    19   12   13 2   
    20   12   14 1   
    21   14   15 1   
    22   14   45 1   
    23   14   74 1   
    24   15   16 1   
    25   15   21 1   
    26   15   46 1   
    27   16   17 1   
    28   16   47 1   
    29   16   48 1   
    30   17   18 1   
    31   17   22 1   
    32   17   49 1   
    33   18   19 1   
    34   18   50 1   
    35   18   51 1   
    36   19   20 1   
    37   19   52 1   
    38   19   53 1   
    39   20   21 1   
    40   20   22 1   
    41   20   54 1   
    42   21   55 1   
    43   21   56 1   
    44   22   23 1   
    45   23   24 2   
    46   23   25 2   
    47   23   26 1   
    48   26   27 1   
    49   26   31 1   
    50   27   28 1   
    51   27   57 1   
    52   27   58 1   
    53   28   29 1   
    54   28   59 1   
    55   28   60 1   
    56   29   30 1   
    57   29   32 1   
    58   29   61 1   
    59   30   31 1   
    60   30   62 1   
    61   30   63 1   
    62   31   64 1   
    63   31   65 1   
    64   32   33 1   
    65   32   66 1   
    66   32   75 1   
    67   33   34 1   
    68   33   67 1   
    69   33   68 1   
    70   34   35 ar  
    71   34   39 ar  
    72   35   36 ar  
    73   35   69 1   
    74   36   37 ar  
    75   36   70 1   
    76   37   38 ar  
    77   37   71 1   
    78   38   39 ar  
    79   38   72 1   
    80   39   73 1   
@<TRIPOS>SUBSTRUCTURE
     1 4ZX         1 TEMP              0 ****  ****    0 ROOT
