@<TRIPOS>MOLECULE
4ZY
   20    20     1     0     0
SMALL
bcc


@<TRIPOS>ATOM
      1 N1         -0.0150    0.0490   -0.0480 n4        1 4ZY     -0.851600
      2 C1          1.4920   -0.0310    0.0200 c3        1 4ZY      0.199100
      3 C2          1.9500   -0.0180    1.4240 ca        1 4ZY     -0.297300
      4 C7          2.1300   -1.2220    2.1240 ca        1 4ZY     -0.032000
      5 C6          2.5960   -1.2250    3.4230 ca        1 4ZY     -0.223000
      6 C5          2.9110    0.0010    4.0830 ca        1 4ZY      0.264600
      7 C4          2.7310    1.2170    3.3570 ca        1 4ZY     -0.223000
      8 C3          2.2630    1.1940    2.0580 ca        1 4ZY     -0.032000
      9 N2          3.3540    0.0110    5.3710 nh        1 4ZY     -0.848200
     10 H11N       -0.3340    0.0400   -1.0180 hn        1 4ZY      0.452133
     11 H12N       -0.3340    0.9090    0.4070 hn        1 4ZY      0.452133
     12 H11C        1.7930   -0.9830   -0.5050 hx        1 4ZY      0.104700
     13 H12C        1.8930    0.8530   -0.5550 hx        1 4ZY      0.104700
     14 H7          1.9120   -2.1830    1.6280 ha        1 4ZY      0.134000
     15 H3          2.1500    2.1440    1.5110 ha        1 4ZY      0.134000
     16 H6          2.7350   -2.1830    3.9500 ha        1 4ZY      0.156000
     17 H4          2.9750    2.1800    3.8310 ha        1 4ZY      0.156000
     18 H21N        3.5290   -0.8400    5.8450 hn        1 4ZY      0.448800
     19 H22N        3.6230    0.8630    5.7990 hn        1 4ZY      0.448800
     20 H13        -0.4240   -0.7470    0.4520 hn        1 4ZY      0.452133
@<TRIPOS>BOND
     1    1    2 1   
     2    1   10 1   
     3    1   11 1   
     4    1   20 1   
     5    2    3 1   
     6    2   12 1   
     7    2   13 1   
     8    3    4 ar  
     9    3    8 ar  
    10    4    5 ar  
    11    4   14 1   
    12    5    6 ar  
    13    5   16 1   
    14    6    7 ar  
    15    6    9 1   
    16    7    8 ar  
    17    7   17 1   
    18    8   15 1   
    19    9   18 1   
    20    9   19 1   
@<TRIPOS>SUBSTRUCTURE
     1 4ZY         1 TEMP              0 ****  ****    0 ROOT
