@<TRIPOS>MOLECULE
4ZY
   20    20     1     0     0
SMALL
bcc


@<TRIPOS>ATOM
      1 N1         -0.0210   -0.0410   -0.0450 nz        1 4ZY     -0.851600
      2 C1          1.4850    0.0420    0.0220 c3        1 4ZY      0.199100
      3 C2          1.9440    0.0230    1.4260 ca        1 4ZY     -0.297300
      4 C7          2.2600   -1.1920    2.0540 ca        1 4ZY     -0.032000
      5 C6          2.7280   -1.2190    3.3530 ca        1 4ZY     -0.223000
      6 C5          2.9060   -0.0060    4.0840 ca        1 4ZY      0.264600
      7 C4          2.5890    1.2220    3.4300 ca        1 4ZY     -0.223000
      8 C3          2.1220    1.2240    2.1310 ca        1 4ZY     -0.032000
      9 N2          3.3490   -0.0220    5.3720 nv        1 4ZY     -0.848200
     10 H11N       -0.4310    0.7510    0.4580 hn        1 4ZY      0.452133
     11 H12N       -0.3400   -0.0280   -1.0160 hn        1 4ZY      0.452133
     12 H11C        1.8890   -0.8390   -0.5570 hx        1 4ZY      0.104700
     13 H12C        1.7850    0.9970   -0.4990 hx        1 4ZY      0.104700
     14 H7          2.1490   -2.1400    1.5030 ha        1 4ZY      0.134000
     15 H3          1.9020    2.1860    1.6400 ha        1 4ZY      0.134000
     16 H6          2.9740   -2.1840    3.8230 ha        1 4ZY      0.156000
     17 H4          2.7250    2.1770    3.9620 ha        1 4ZY      0.156000
     18 H21N        3.5230    0.8270    5.8500 hn        1 4ZY      0.448800
     19 H22N        3.6200   -0.8750    5.7960 hn        1 4ZY      0.448800
     20 H13        -0.3380   -0.9040    0.4060 hn        1 4ZY      0.452133
@<TRIPOS>BOND
     1    1    2 1   
     2    1   10 1   
     3    1   11 1   
     4    1   20 1   
     5    2    3 1   
     6    2   12 1   
     7    2   13 1   
     8    3    4 ar  
     9    3    8 ar  
    10    4    5 ar  
    11    4   14 1   
    12    5    6 ar  
    13    5   16 1   
    14    6    7 ar  
    15    6    9 1   
    16    7    8 ar  
    17    7   17 1   
    18    8   15 1   
    19    9   18 1   
    20    9   19 1   
@<TRIPOS>SUBSTRUCTURE
     1 4ZY         1 TEMP              0 ****  ****    0 ROOT
