@<TRIPOS>MOLECULE
4ZY
   21    21     1     0     0
SMALL
bcc


@<TRIPOS>ATOM
      1 N1         -0.0210   -0.0160   -0.1510 n4        1 4ZY     -0.839600
      2 C1          1.4620    0.0040    0.0270 c3        1 4ZY      0.150100
      3 C2          1.8880    0.0090    1.4620 ca        1 4ZY     -0.128300
      4 C7          2.1520   -1.2000    2.1180 ca        1 4ZY     -0.072000
      5 C6          2.6550   -1.2050    3.4200 ca        1 4ZY     -0.087000
      6 C5          2.8970    0.0200    4.0670 ca        1 4ZY     -0.016400
      7 C4          2.6220    1.2390    3.4220 ca        1 4ZY     -0.087000
      8 C3          2.1190    1.2220    2.1200 ca        1 4ZY     -0.072000
      9 N2          3.4610    0.0260    5.4180 n4        1 4ZY     -0.713000
     10 H11N       -0.4500    0.8110    0.2810 hn        1 4ZY      0.472133
     11 H12N       -0.4270   -0.8550    0.2790 hn        1 4ZY      0.472133
     12 H11C        1.8820   -0.9060   -0.5000 hx        1 4ZY      0.135700
     13 H12C        1.8570    0.9270   -0.4980 hx        1 4ZY      0.135700
     14 H7          1.9890   -2.1670    1.6090 ha        1 4ZY      0.180500
     15 H3          1.9310    2.1860    1.6130 ha        1 4ZY      0.180500
     16 H6          2.8620   -2.1730    3.9100 ha        1 4ZY      0.187000
     17 H4          2.8040    2.2120    3.9140 ha        1 4ZY      0.187000
     18 H21N        3.1680   -0.8160    5.9320 hn        1 4ZY      0.480800
     19 H22N        4.4900    0.0400    5.3610 hn        1 4ZY      0.480800
     20 H13        -0.2470   -0.0180   -1.1550 hn        1 4ZY      0.472133
     21 H23         3.1450    0.8590    5.9330 hn        1 4ZY      0.480800
@<TRIPOS>BOND
     1    1    2 1   
     2    1   10 1   
     3    1   11 1   
     4    1   20 1   
     5    2    3 1   
     6    2   12 1   
     7    2   13 1   
     8    3    4 ar  
     9    3    8 ar  
    10    4    5 ar  
    11    4   14 1   
    12    5    6 ar  
    13    5   16 1   
    14    6    7 ar  
    15    6    9 1   
    16    7    8 ar  
    17    7   17 1   
    18    8   15 1   
    19    9   18 1   
    20    9   19 1   
    21    9   21 1   
@<TRIPOS>SUBSTRUCTURE
     1 4ZY         1 TEMP              0 ****  ****    0 ROOT
