@<TRIPOS>MOLECULE
A
   35    37     1     0     0
SMALL
bcc


@<TRIPOS>ATOM
      1 OP3         0.3610    0.5440   -5.6710 o         1 A       -0.929167
      2 P           0.3180    0.9440   -4.2310 p5        1 A        1.333900
      3 OP1         1.4940    1.6720   -3.6470 o         1 A       -0.929167
      4 OP2        -1.0190    1.4060   -3.6820 o         1 A       -0.929167
      5 O5'         0.4030   -0.5770   -3.3740 os        1 A       -0.554200
      6 C5'         0.4500   -0.4380   -2.0160 c3        1 A        0.228400
      7 C4'        -0.9320   -0.7430   -1.3890 c3        1 A        0.049100
      8 O4'        -0.7650   -1.4040   -0.1070 os        1 A       -0.432600
      9 C3'        -1.8030    0.5080   -1.1710 c3        1 A        0.128100
     10 O3'        -2.9420    0.4810   -1.9980 oh        1 A       -0.682800
     11 C2'        -2.2560    0.4500    0.3050 c3        1 A        0.102100
     12 O2'        -3.5990    0.0670    0.5060 oh        1 A       -0.615800
     13 C1'        -1.3390   -0.6480    0.9440 c3        1 A        0.215800
     14 N9         -0.2830   -0.0970    1.7890 na        1 A       -0.254000
     15 C8          0.8950    0.5570    1.3630 cc        1 A        0.456700
     16 N7          1.7250    0.8890    2.3700 nd        1 A       -0.589100
     17 C5          1.0920    0.4240    3.5300 ca        1 A       -0.206200
     18 C6          1.4540    0.4540    4.9110 ca        1 A        0.698200
     19 N6          2.6010    1.1390    5.3130 nh        1 A       -0.931500
     20 N1          0.6330   -0.1420    5.8320 nb        1 A       -0.804000
     21 C2         -0.5210   -0.7010    5.3660 ca        1 A        0.642900
     22 N3         -1.0050   -0.7890    4.1110 nb        1 A       -0.707000
     23 C4         -0.1790   -0.2190    3.1790 ca        1 A        0.437800
     24 H5'         0.7790    0.6040   -1.7300 h1        1 A       -0.002300
     25 H5''        1.1780   -1.1840   -1.5780 h1        1 A       -0.002300
     26 H4'        -1.4720   -1.4890   -2.0330 h1        1 A        0.080700
     27 H3'        -1.2140    1.4480   -1.3680 h1        1 A        0.116700
     28 HO3'       -2.6240    0.7830   -2.8850 ho        1 A        0.515000
     29 H2'        -2.1470    1.4440    0.8120 h1        1 A        0.067700
     30 HO2'       -3.9210   -0.3240   -0.3190 ho        1 A        0.431000
     31 H1'        -1.9410   -1.3630    1.5760 h2        1 A        0.093700
     32 H8          1.0740    0.7420    0.2850 h5        1 A        0.125800
     33 H61         2.9890    0.8790    6.1890 hn        1 A        0.409300
     34 H62         3.2620    1.2950    4.5850 hn        1 A        0.409300
     35 H2         -1.1560   -1.1600    6.1510 h5        1 A        0.029100
@<TRIPOS>BOND
     1    1    2 1   
     2    2    3 1   
     3    2    4 1   
     4    2    5 1   
     5    5    6 1   
     6    6    7 1   
     7    6   24 1   
     8    6   25 1   
     9    7    8 1   
    10    7    9 1   
    11    7   26 1   
    12    8   13 1   
    13    9   10 1   
    14    9   11 1   
    15    9   27 1   
    16   10   28 1   
    17   11   12 1   
    18   11   13 1   
    19   11   29 1   
    20   12   30 1   
    21   13   14 1   
    22   13   31 1   
    23   14   15 1   
    24   14   23 1   
    25   15   16 2   
    26   15   32 1   
    27   16   17 1   
    28   17   18 ar  
    29   17   23 ar  
    30   18   19 1   
    31   18   20 ar  
    32   19   33 1   
    33   19   34 1   
    34   20   21 ar  
    35   21   22 ar  
    36   21   35 1   
    37   22   23 ar  
@<TRIPOS>SUBSTRUCTURE
     1 A           1 TEMP              0 ****  ****    0 ROOT
