@<TRIPOS>MOLECULE
A00
   88    90     1     0     0
SMALL
bcc


@<TRIPOS>ATOM
      1 C3         -4.9800    0.8670    2.3140 c3        1 A00      0.119400
      2 C1         -2.6290    1.0110    1.4720 c3        1 A00     -0.086400
      3 C2         -1.6230    0.2880    0.6050 c3        1 A00     -0.095400
      4 C10        -5.6830   -0.7010   -1.2330 ca        1 A00     -0.448500
      5 C4         -4.7330    2.8150   -0.0410 c3        1 A00      0.223800
      6 C5         -6.0890    3.3460    0.4580 c3        1 A00     -0.081700
      7 C6         -6.0760    4.8570    0.3340 c3        1 A00     -0.098100
      8 C7         -7.2620    2.7650   -0.2960 c3        1 A00     -0.098100
      9 C12        -7.8990   -1.7060   -1.1480 ca        1 A00     -0.238000
     10 C11        -7.0770   -0.6130   -1.3540 ca        1 A00      0.030000
     11 O26         5.8910   -2.9020    0.4500 o         1 A00     -0.570000
     12 O25         5.8310   -3.2250    2.6770 os        1 A00     -0.445900
     13 C27         6.3110   -4.5420    2.4030 c3        1 A00      0.138700
     14 N22         5.2980   -1.1140    1.9220 n         1 A00     -0.476900
     15 C21         4.5590   -0.2800    0.9940 c3        1 A00      0.038700
     16 C28         5.2550   -0.1270   -0.3810 c3        1 A00      0.019900
     17 C30         4.5170    0.8380   -1.2630 ca        1 A00     -0.075800
     18 C40         4.0030    0.3880   -2.4860 ca        1 A00     -0.120000
     19 C39         3.3390    1.2700   -3.3380 ca        1 A00     -0.129750
     20 C38         3.1830    2.6090   -2.9800 ca        1 A00     -0.126500
     21 C37         3.6960    3.0640   -1.7650 ca        1 A00     -0.129750
     22 C36         4.3610    2.1850   -0.9130 ca        1 A00     -0.120000
     23 C29         6.6900    0.2930   -0.2440 ca        1 A00     -0.075800
     24 C35         7.6500   -0.3300   -1.0540 ca        1 A00     -0.120000
     25 C34         8.9900    0.0450   -0.9770 ca        1 A00     -0.129750
     26 C33         9.3880    1.0430   -0.0880 ca        1 A00     -0.126500
     27 C32         8.4410    1.6600    0.7280 ca        1 A00     -0.129750
     28 C31         7.0990    1.2870    0.6510 ca        1 A00     -0.120000
     29 C20         3.0980   -0.7780    0.7960 c         1 A00      0.620100
     30 O23         2.7920   -1.9680    1.0160 o         1 A00     -0.608100
     31 N19         2.1590    0.1590    0.4410 n         1 A00     -0.559900
     32 C18         0.7840   -0.1790    0.1850 c3        1 A00      0.083000
     33 C17        -0.2080    0.6410    1.0130 c3        1 A00     -0.090400
     34 C          -4.0810    0.6970    1.0680 c3        1 A00      0.254500
     35 O          -4.6280    2.0780    2.9620 oh        1 A00     -0.598800
     36 N          -4.5590    1.3870   -0.1090 n3        1 A00     -0.800500
     37 S          -4.7040    0.6190   -1.5550 sy        1 A00      1.511200
     38 O8         -3.4410    0.1340   -1.9680 o         1 A00     -0.662300
     39 O9         -5.3560    1.4660   -2.4820 o         1 A00     -0.662300
     40 C15        -5.1330   -1.9540   -0.9170 ca        1 A00      0.030000
     41 C14        -5.9260   -3.0670   -0.7050 ca        1 A00     -0.238000
     42 C13        -7.3400   -2.9650   -0.8040 ca        1 A00      0.236600
     43 N16        -8.1480   -4.0460   -0.5230 nh        1 A00     -0.848200
     44 H31A       -6.0660    0.8750    2.0330 h1        1 A00      0.031200
     45 H32A       -4.7870    0.0040    3.0090 h1        1 A00      0.031200
     46 H11A       -2.4960    0.6940    2.5400 hc        1 A00      0.056200
     47 H12A       -2.4450    2.1160    1.4410 hc        1 A00      0.056200
     48 H21A       -1.7740   -0.8210    0.6990 hc        1 A00      0.058200
     49 H22        -1.7810    0.5480   -0.4770 hc        1 A00      0.058200
     50 H41        -4.5620    3.2350   -1.0770 h1        1 A00      0.059700
     51 H42        -3.9460    3.2460    0.6450 h1        1 A00      0.059700
     52 H5         -6.1920    3.0820    1.5490 hc        1 A00      0.051700
     53 H61        -6.0160    5.1630   -0.7380 hc        1 A00      0.037867
     54 H62        -7.0100    5.2850    0.7710 hc        1 A00      0.037867
     55 H63        -5.2010    5.2870    0.8780 hc        1 A00      0.037867
     56 H71        -7.0670    2.7730   -1.3980 hc        1 A00      0.037867
     57 H72        -7.4480    1.7120    0.0280 hc        1 A00      0.037867
     58 H73        -8.1870    3.3580   -0.0930 hc        1 A00      0.037867
     59 H12        -8.9890   -1.5950   -1.2540 ha        1 A00      0.139500
     60 H11        -7.5250    0.3570   -1.6450 ha        1 A00      0.153500
     61 H271        5.5880   -5.0830    1.7480 h1        1 A00      0.051367
     62 H272        7.3120   -4.4880    1.9110 h1        1 A00      0.051367
     63 H273        6.3760   -5.0070    3.4180 h1        1 A00      0.051367
     64 HN22        4.9660   -1.0410    2.8640 hn        1 A00      0.309500
     65 H21         4.5170    0.7400    1.4870 h1        1 A00      0.073700
     66 H28         5.2360   -1.1510   -0.8690 hc        1 A00      0.108700
     67 H40         4.1220   -0.6670   -2.7780 ha        1 A00      0.134250
     68 H39         2.9380    0.9070   -4.2960 ha        1 A00      0.132500
     69 H38         2.6590    3.3030   -3.6530 ha        1 A00      0.132500
     70 H37         3.5830    4.1210   -1.4820 ha        1 A00      0.132500
     71 H36         4.7840    2.5570    0.0330 ha        1 A00      0.134250
     72 H35         7.3450   -1.1320   -1.7440 ha        1 A00      0.134250
     73 H34         9.7340   -0.4510   -1.6170 ha        1 A00      0.132500
     74 H33        10.4450    1.3390   -0.0270 ha        1 A00      0.132500
     75 H32         8.7500    2.4420    1.4370 ha        1 A00      0.132500
     76 H31         6.3690    1.7780    1.3100 ha        1 A00      0.134250
     77 HN19        2.4600    1.0670    0.1700 hn        1 A00      0.316500
     78 H181        0.5620   -0.0120   -0.9100 h1        1 A00      0.064200
     79 H182        0.6290   -1.2750    0.4060 h1        1 A00      0.064200
     80 H171       -0.0350    1.7370    0.8560 hc        1 A00      0.041700
     81 H172       -0.0610    0.4310    2.1040 hc        1 A00      0.041700
     82 H          -4.1280   -0.4130    0.8210 h1        1 A00      0.047700
     83 HO         -5.2540    2.1930    3.6870 ho        1 A00      0.400000
     84 H15        -4.0330   -2.0550   -0.8610 ha        1 A00      0.153500
     85 H14        -5.4580   -4.0310   -0.4610 ha        1 A00      0.139500
     86 H161       -9.0950   -4.0020   -0.8130 hn        1 A00      0.419800
     87 H162       -7.7290   -4.9440   -0.5060 hn        1 A00      0.419800
     88 C24         5.6480   -2.4200    1.5660 c         1 A00      0.734100
@<TRIPOS>BOND
     1    1   34 1   
     2    1   35 1   
     3    1   44 1   
     4    1   45 1   
     5    2    3 1   
     6    2   34 1   
     7    2   46 1   
     8    2   47 1   
     9    3   33 1   
    10    3   48 1   
    11    3   49 1   
    12    4   10 ar  
    13    4   37 1   
    14    4   40 ar  
    15    5    6 1   
    16    5   36 1   
    17    5   50 1   
    18    5   51 1   
    19    6    7 1   
    20    6    8 1   
    21    6   52 1   
    22    7   53 1   
    23    7   54 1   
    24    7   55 1   
    25    8   56 1   
    26    8   57 1   
    27    8   58 1   
    28    9   10 ar  
    29    9   42 ar  
    30    9   59 1   
    31   10   60 1   
    32   11   88 2   
    33   12   13 1   
    34   12   88 1   
    35   13   61 1   
    36   13   62 1   
    37   13   63 1   
    38   14   15 1   
    39   14   64 1   
    40   14   88 1   
    41   15   16 1   
    42   15   29 1   
    43   15   65 1   
    44   16   17 1   
    45   16   23 1   
    46   16   66 1   
    47   17   18 ar  
    48   17   22 ar  
    49   18   19 ar  
    50   18   67 1   
    51   19   20 ar  
    52   19   68 1   
    53   20   21 ar  
    54   20   69 1   
    55   21   22 ar  
    56   21   70 1   
    57   22   71 1   
    58   23   24 ar  
    59   23   28 ar  
    60   24   25 ar  
    61   24   72 1   
    62   25   26 ar  
    63   25   73 1   
    64   26   27 ar  
    65   26   74 1   
    66   27   28 ar  
    67   27   75 1   
    68   28   76 1   
    69   29   30 2   
    70   29   31 1   
    71   31   32 1   
    72   31   77 1   
    73   32   33 1   
    74   32   78 1   
    75   32   79 1   
    76   33   80 1   
    77   33   81 1   
    78   34   36 1   
    79   34   82 1   
    80   35   83 1   
    81   36   37 1   
    82   37   38 2   
    83   37   39 2   
    84   40   41 ar  
    85   40   84 1   
    86   41   42 ar  
    87   41   85 1   
    88   42   43 1   
    89   43   86 1   
    90   43   87 1   
@<TRIPOS>SUBSTRUCTURE
     1 A00         1 TEMP              0 ****  ****    0 ROOT
