@<TRIPOS>MOLECULE
A00
   91    89     1     0     0
SMALL
bcc


@<TRIPOS>ATOM
      1 C3        -73.1920   91.9600   71.0400 c3        1 A00     -0.009000
      2 C1        -74.1880   88.7140   67.7260 c3        1 A00     -0.220500
      3 C2        -73.1040   88.9950   68.6890 c2        1 A00     -0.182500
      4 C10       -73.3420   91.8070   74.3040 cv        1 A00     -0.837000
      5 C4        -74.6100   89.4490   70.6720 c2        1 A00      0.104000
      6 C5        -74.1060   86.8460   73.6540 c2        1 A00     -0.118000
      7 C6        -74.8600   86.8410   72.5520 c2        1 A00     -0.321000
      8 C7        -72.6860   86.4510   73.6920 c3        1 A00     -0.223000
      9 C12       -75.5920   92.3830   73.3380 c3        1 A00     -0.178000
     10 C11       -74.2740   91.7560   73.2980 cv        1 A00      0.109000
     11 O26       102.9050 -114.6290  -86.3310 o         1 A00     -0.436000
     12 O25       102.4240 -112.8470  -85.0700 os        1 A00     -0.259000
     13 C27       101.1010 -112.8380  -85.6130 c3        1 A00     -0.075000
     14 N22       101.1260 -114.3730  -91.4200 n2        1 A00     -0.229000
     15 C21       100.2570 -114.1780  -90.5040 c2        1 A00     -0.026000
     16 C28        99.6080 -115.3160  -89.7390 c3        1 A00      0.006000
     17 C30        98.3430 -115.7900  -90.3810 ca        1 A00     -0.133000
     18 C40        97.2520 -116.0910  -89.5520 ca        1 A00     -0.122500
     19 C39        96.0500 -116.5290  -90.1020 ca        1 A00     -0.118500
     20 C38        95.9220 -116.6700  -91.4840 ca        1 A00     -0.097000
     21 C37        97.0020 -116.3690  -92.3140 ca        1 A00     -0.118500
     22 C36        98.2080 -115.9310  -91.7660 ca        1 A00     -0.122500
     23 C29       100.5840 -116.4920  -89.4970 c3        1 A00     -0.157000
     24 C35       101.6370 -116.1280  -88.5280 c2        1 A00      0.071000
     25 C34       102.9500 -116.4780  -88.7260 c2        1 A00     -0.216500
     26 C33       103.3420 -117.1460  -89.9000 c2        1 A00      0.132000
     27 C32       102.3970 -117.4720  -90.8900 c2        1 A00     -0.216500
     28 C31       101.0770 -117.1280  -90.7330 c2        1 A00      0.071000
     29 C20        99.8040 -112.8230  -89.9710 c2        1 A00      0.291000
     30 O23        99.9370 -112.5670  -88.7570 o         1 A00     -0.360000
     31 N19        99.3100 -111.9170  -90.8620 n         1 A00     -0.402000
     32 C18       -71.4870   88.3170   70.4570 c3        1 A00     -0.220500
     33 C17       -72.6800   88.1150   69.6150 c2        1 A00     -0.182500
     34 C         -73.5380   91.0220   72.1950 cy        1 A00     -0.512000
     35 O         -74.4140   92.4330   70.4960 oh        1 A00     -0.370000
     36 N         -74.0550   89.7340   71.8240 n3        1 A00     -0.118000
     37 S         -72.0570   90.9530   73.6180 s6        1 A00      2.805000
     38 O8        -71.0020   91.7030   73.2060 o         1 A00     -0.825500
     39 O9        -71.9960   89.6330   73.9610 o         1 A00     -0.825500
     40 C15       -73.6260   92.5120   75.5130 c2        1 A00      0.128000
     41 C14       -74.8200   93.1530   75.6560 c2        1 A00     -0.242000
     42 C13       -75.8330   93.1500   74.6180 c2        1 A00      0.236000
     43 N16       -76.9720   93.8100   74.7770 n3        1 A00     -0.208000
     44 H31A      -72.6000   91.4130   70.2530 h1        1 A00      0.121000
     45 H32A      -72.5730   92.8150   71.4300 h1        1 A00      0.121000
     46 H11A      -73.7350   88.4870   66.7230 hc        1 A00      0.104333
     47 H12A      -74.8570   89.6020   67.6010 hc        1 A00      0.104333
     48 H21A      -74.8060   87.8330   68.0270 hc        1 A00      0.104333
     49 H22       -72.5720   89.9510   68.5340 ha        1 A00      0.140000
     50 H41       -73.9030   88.9860   72.5060 hn        1 A00      0.297000
     51 H42       -74.8050   90.2450   69.9150 h4        1 A00      0.213500
     52 H5        -75.0070   88.4210   70.5000 h4        1 A00      0.213500
     53 H61       -74.5350   87.1360   74.6310 ha        1 A00      0.130000
     54 H62       -74.4800   86.4810   71.5850 ha        1 A00      0.116500
     55 H63       -75.9320   87.0770   72.5730 ha        1 A00      0.116500
     56 H71       -72.3150   86.1120   72.6930 hc        1 A00      0.106667
     57 H72       -72.5500   85.6060   74.4160 hc        1 A00      0.106667
     58 H73       -72.0530   87.3080   74.0400 hc        1 A00      0.106667
     59 H12       -75.6790   93.0700   72.4310 hc        1 A00      0.206500
     60 H11       -76.3990   91.5970   73.2060 hc        1 A00      0.206500
     61 H271      101.1410 -112.7000  -86.7210 h1        1 A00      0.099667
     62 H272      100.6160 -111.9650  -85.1090 h1        1 A00      0.099667
     63 H273      100.5850 -113.7940  -85.3580 h1        1 A00      0.099667
     64 HN22      104.2690 -113.7110  -85.0030 h5        1 A00      0.189000
     65 H21       100.3280 -117.3370  -91.5210 ha        1 A00      0.198000
     66 H28        99.0440 -115.6890  -92.4400 ha        1 A00      0.138500
     67 H40        99.3560 -114.9050  -88.7100 hc        1 A00      0.151000
     68 H39        97.3370 -115.9700  -88.4600 ha        1 A00      0.138500
     69 H38        95.1980 -116.7600  -89.4430 ha        1 A00      0.153000
     70 H37        94.9700 -117.0140  -91.9190 ha        1 A00      0.156000
     71 H36        96.9040 -116.4740  -93.4060 ha        1 A00      0.153000
     72 H35        99.9530 -117.3000  -88.9730 hc        1 A00      0.218000
     73 H34       101.3380 -115.5660  -87.6180 ha        1 A00      0.198000
     74 H33       103.7040 -116.2030  -87.9610 ha        1 A00      0.196500
     75 H32       104.4070 -117.4060  -90.0530 ha        1 A00      0.181000
     76 H31       102.7340 -117.9800  -91.8110 ha        1 A00      0.196500
     77 HN19       99.0960 -112.1750  -91.7920 hn        1 A00      0.243000
     78 H181      -70.6630   87.6470   70.0890 hc        1 A00      0.104333
     79 H182      -71.1110   89.3700   70.4170 hc        1 A00      0.104333
     80 H171      -71.6930   88.0380   71.5230 hc        1 A00      0.104333
     81 H172      -73.1580   87.1210   69.7090 ha        1 A00      0.140000
     82 H         -70.4390   91.5770   70.8330 ha        1 A00      0.001500
     83 HO        -74.1950   93.0610   69.7920 ho        1 A00      0.255000
     84 H15       -72.8730   92.5370   76.3250 ha        1 A00      0.201000
     85 H14       -75.0310   93.7030   76.5950 ha        1 A00      0.202000
     86 H161      -77.1620   94.3270   75.6190 hn        1 A00      0.290000
     87 H162      -77.6810   93.8220   74.0690 hn        1 A00      0.290000
     88 H222      101.5130 -113.5670  -91.8660 hn        1 A00      0.183000
     89 H192       98.9840 -111.0390  -90.5290 hn        1 A00      0.243000
     90 HN1       -69.8080   91.7860   70.9740 ha        1 A00      0.001500
     91 C24       103.2820 -113.8010  -85.4930 c2        1 A00      0.284000
@<TRIPOS>BOND
     1    1   34 1   
     2    1   35 1   
     3    1   44 1   
     4    1   45 1   
     5    2    3 1   
     6    2   46 1   
     7    2   47 1   
     8    2   48 1   
     9    3   33 1   
    10    3   49 1   
    11    4   10 1   
    12    4   37 1   
    13    4   40 1   
    14    5   36 1   
    15    5   51 1   
    16    5   52 1   
    17    6    7 1   
    18    6    8 1   
    19    6   53 1   
    20    7   54 1   
    21    7   55 1   
    22    8   56 1   
    23    8   57 1   
    24    8   58 1   
    25    9   10 1   
    26    9   42 1   
    27    9   59 1   
    28    9   60 1   
    29   10   34 1   
    30   11   91 1   
    31   12   13 1   
    32   12   91 1   
    33   13   61 1   
    34   13   62 1   
    35   13   63 1   
    36   14   15 1   
    37   14   88 1   
    38   15   16 1   
    39   15   29 1   
    40   16   17 1   
    41   16   23 1   
    42   16   67 1   
    43   17   18 1   
    44   17   22 1   
    45   18   19 1   
    46   18   68 1   
    47   19   20 1   
    48   19   69 1   
    49   20   21 1   
    50   20   70 1   
    51   21   22 1   
    52   21   71 1   
    53   22   66 1   
    54   23   24 1   
    55   23   28 1   
    56   23   72 1   
    57   24   25 1   
    58   24   73 1   
    59   25   26 1   
    60   25   74 1   
    61   26   27 1   
    62   26   75 1   
    63   27   28 1   
    64   27   76 1   
    65   28   65 1   
    66   29   30 1   
    67   29   31 1   
    68   31   77 1   
    69   31   89 1   
    70   32   33 1   
    71   32   78 1   
    72   32   79 1   
    73   32   80 1   
    74   33   81 1   
    75   34   36 1   
    76   34   37 1   
    77   35   83 1   
    78   36   50 1   
    79   37   38 1   
    80   37   39 1   
    81   40   41 1   
    82   40   84 1   
    83   41   42 1   
    84   41   85 1   
    85   42   43 1   
    86   43   86 1   
    87   43   87 1   
    88   64   91 1   
    89   82   90 1   
@<TRIPOS>SUBSTRUCTURE
     1 A00         1 TEMP              0 ****  ****    0 ROOT
