@<TRIPOS>MOLECULE
A00
   88    80     1     0     0
SMALL
bcc


@<TRIPOS>ATOM
      1 C3         -0.9830    0.9260    1.3680 c3        1 A00     -0.028000
      2 C1         -1.1440   -1.1270    2.7360 c3        1 A00     -0.180000
      3 C2          0.2980   -1.6220    2.9770 c3        1 A00     -0.163000
      4 C10        -1.7070    3.2710    4.7340 c1        1 A00     -0.894000
      5 C4         -3.6680    0.4970    2.5900 c3        1 A00     -0.012000
      6 C5         -4.2770    1.7730    1.8870 c3        1 A00     -0.134000
      7 C6         -4.7650    1.3910    0.4400 c3        1 A00     -0.216000
      8 C7         -5.4920    2.3020    2.7200 c3        1 A00     -0.216000
      9 C12        -1.9940    5.6190    5.2800 c1        1 A00     -0.119375
     10 C11        -2.4970    4.3050    5.2390 c1        1 A00     -0.119375
     11 O26        -0.0500   -3.7920   -2.1760 o         1 A00     -0.420000
     12 C24        -0.1850   -2.5820   -2.2960 c1        1 A00      0.388000
     13 O25        -1.5010   -2.0160   -2.4270 os        1 A00     -0.272000
     14 C27        -2.5630   -2.9470   -2.1590 c3        1 A00     -0.052000
     15 N22         0.9780   -1.7280   -2.3460 n2        1 A00     -0.344000
     16 C21         2.2690   -2.2970   -2.3150 c3        1 A00      0.022000
     17 C28         3.2100   -1.4640   -3.1720 c3        1 A00     -0.034000
     18 C30         4.1130   -2.4050   -4.0200 c1        1 A00     -0.084000
     19 C40         5.5060   -2.2620   -3.9770 c1        1 A00     -0.119375
     20 C39         6.3110   -3.0050   -4.8430 c1        1 A00     -0.119375
     21 C38         5.7330   -3.8810   -5.7440 c1        1 A00     -0.119375
     22 C37         4.3410   -4.0230   -5.7880 c1        1 A00     -0.119375
     23 C36         3.5360   -3.2820   -4.9240 c1        1 A00     -0.119000
     24 C29         2.3850   -0.5600   -4.1110 c2        1 A00     -0.084000
     25 C35         2.8170    0.7310   -4.3920 c2        1 A00     -0.117000
     26 C34         2.1170    1.5150   -5.3130 c1        1 A00     -0.127000
     27 C33         0.9800    1.0000   -5.9510 c1        1 A00     -0.119375
     28 C32         0.5520   -0.2870   -5.6700 c1        1 A00     -0.119375
     29 C31         1.2500   -1.0720   -4.7500 c1        1 A00     -0.132000
     30 C20         2.7760   -2.3240   -0.8810 c2        1 A00      0.297000
     31 O23         3.8060   -1.7370   -0.5860 o         1 A00     -0.392000
     32 N19         2.0730   -3.0910    0.1160 n         1 A00     -0.362000
     33 C18         2.0590   -2.6590    1.4580 c3        1 A00     -0.026000
     34 C17         0.6000   -2.8080    2.0470 c3        1 A00     -0.180000
     35 C          -1.1670    0.4070    2.7570 c3        1 A00      0.010000
     36 O           0.3660    0.9670    1.0660 oh        1 A00     -0.334000
     37 N          -2.4300    0.8600    3.2770 n3        1 A00     -0.823000
     38 S          -2.4970    1.6280    4.8140 s6        1 A00      2.854000
     39 O8         -1.8980    0.8090    5.8370 o         1 A00     -0.941500
     40 O9         -3.8400    1.7210    5.2880 o         1 A00     -0.941500
     41 C15        -0.4200    3.5400    4.2690 c1        1 A00      0.035000
     42 C14         0.0770    4.8410    4.3100 c1        1 A00     -0.234000
     43 C13        -0.7200    5.8850    4.8200 c1        1 A00      0.157000
     44 N16        -0.2690    7.2360    4.7220 n2        1 A00     -0.359000
     45 H31A       -1.4460    0.3300    0.7300 h1        1 A00      0.089000
     46 H32A       -1.3590    1.8270    1.3040 h1        1 A00      0.089000
     47 H11A       -1.7190   -1.4650    3.4270 hc        1 A00      0.093500
     48 H12A       -1.4550   -1.4430    1.8750 hc        1 A00      0.093500
     49 H21A        0.9110   -0.9130    2.7960 hc        1 A00      0.089000
     50 H22         0.3930   -1.9090    3.9150 hc        1 A00      0.089000
     51 H41        -4.3180    0.1390    3.2480 h1        1 A00      0.096500
     52 H42        -3.4750   -0.1930    1.9080 h1        1 A00      0.096500
     53 H5         -3.5980    2.4660    1.8280 hc        1 A00      0.093000
     54 H61        -5.5700    0.8250    0.5030 hc        1 A00      0.078833
     55 H62        -4.9840    2.2240   -0.0680 hc        1 A00      0.078833
     56 H63        -4.0470    0.8940   -0.0330 hc        1 A00      0.078833
     57 H71        -5.2040    3.0690    3.2770 hc        1 A00      0.078833
     58 H72        -6.2070    2.5920    2.1080 hc        1 A00      0.078833
     59 H73        -5.8290    1.5850    3.3000 hc        1 A00      0.078833
     60 H12        -2.5390    6.3340    5.6290 ha        1 A00      0.138000
     61 H11        -3.3970    4.1180    5.5640 ha        1 A00      0.138000
     62 H271       -2.4640   -3.7390   -2.7490 h1        1 A00      0.094333
     63 H272       -2.5190   -3.2310   -1.2170 h1        1 A00      0.094333
     64 H273       -3.4390   -2.5110   -2.3330 h1        1 A00      0.094333
     65 HN22        0.8770   -0.8000   -2.3120 hn        1 A00      0.257000
     66 H21         2.2320   -3.2140   -2.6670 h1        1 A00      0.124000
     67 H28         3.7630   -0.9150   -2.6000 hc        1 A00      0.137000
     68 H40         5.9130   -1.6470   -3.3440 ha        1 A00      0.138000
     69 H39         7.3020   -2.9040   -4.8120 ha        1 A00      0.138000
     70 H38         6.2950   -4.3990   -6.3490 ha        1 A00      0.138000
     71 H37         3.9380   -4.6360   -6.4190 ha        1 A00      0.138000
     72 H36         2.5660   -3.3820   -4.9550 ha        1 A00      0.133000
     73 H35         3.6030    1.0860   -3.9500 ha        1 A00      0.139000
     74 H34         2.4130    2.4040   -5.5070 ha        1 A00      0.135000
     75 H33         0.4860    1.5520   -6.6000 ha        1 A00      0.138000
     76 H32        -0.2350   -0.6430   -6.1110 ha        1 A00      0.138000
     77 H31         0.9480   -1.9750   -4.5530 ha        1 A00      0.132000
     78 HN19        1.6790   -3.8770   -0.1120 hn        1 A00      0.251000
     79 H181        2.6790   -3.2040    1.9830 h1        1 A00      0.098000
     80 H182        2.3350   -1.7200    1.5020 h1        1 A00      0.098000
     81 H171        0.5370   -3.6560    2.5610 hc        1 A00      0.089000
     82 H172       -0.0520   -2.8230    1.3110 hc        1 A00      0.089000
     83 H          -0.4330    0.7400    3.3330 h1        1 A00      0.104000
     84 HO          0.5090    1.5710    0.4410 ho        1 A00      0.217000
     85 H15         0.1320    2.8190    3.9170 ha        1 A00      0.154000
     86 H14         0.9670    5.0260    3.9890 ha        1 A00      0.139000
     87 H161        0.5400    7.4220    4.3350 hn        1 A00      0.214500
     88 H162       -0.8160    7.9220    4.9920 hn        1 A00      0.214500
@<TRIPOS>BOND
     1    1   35 1   
     2    1   36 1   
     3    1   45 1   
     4    1   46 1   
     5    2    3 1   
     6    2   35 1   
     7    2   47 1   
     8    2   48 1   
     9    3   34 1   
    10    3   49 1   
    11    3   50 1   
    12    4   38 1   
    13    4   41 1   
    14    5    6 1   
    15    5   37 1   
    16    5   51 1   
    17    5   52 1   
    18    6    7 1   
    19    6    8 1   
    20    6   53 1   
    21    7   54 1   
    22    7   55 1   
    23    7   56 1   
    24    8   57 1   
    25    8   58 1   
    26    8   59 1   
    27    9   10 1   
    28    9   60 1   
    29   10   61 1   
    30   11   12 1   
    31   12   13 1   
    32   13   14 1   
    33   14   62 1   
    34   14   63 1   
    35   14   64 1   
    36   15   16 1   
    37   15   65 1   
    38   16   17 1   
    39   16   30 1   
    40   16   66 1   
    41   17   18 1   
    42   17   24 1   
    43   17   67 1   
    44   18   23 1   
    45   19   20 1   
    46   19   68 1   
    47   20   69 1   
    48   21   22 1   
    49   21   70 1   
    50   22   71 1   
    51   23   72 1   
    52   24   25 1   
    53   24   29 1   
    54   25   26 1   
    55   25   73 1   
    56   26   74 1   
    57   27   28 1   
    58   27   75 1   
    59   28   76 1   
    60   29   77 1   
    61   30   31 1   
    62   30   32 1   
    63   32   33 1   
    64   32   78 1   
    65   33   34 1   
    66   33   79 1   
    67   33   80 1   
    68   34   81 1   
    69   34   82 1   
    70   35   37 1   
    71   35   83 1   
    72   36   84 1   
    73   37   38 1   
    74   38   39 1   
    75   38   40 1   
    76   41   85 1   
    77   42   43 1   
    78   42   86 1   
    79   44   87 1   
    80   44   88 1   
@<TRIPOS>SUBSTRUCTURE
     1 A00         1 TEMP              0 ****  ****    0 ROOT
