@<TRIPOS>MOLECULE
A00
   91    88     1     0     0
SMALL
bcc


@<TRIPOS>ATOM
      1 C3          1.5180    3.9720   -1.4910 c3        1 A00     -0.058000
      2 C1          3.8910   -0.4960    0.8610 c2        1 A00      0.133000
      3 C2          5.1780   -0.9510    0.7120 c2        1 A00     -0.307000
      4 C10         0.6060    3.4480    3.4580 c2        1 A00     -0.873000
      5 C4         -3.3260    0.0410    4.9770 c3        1 A00     -0.208500
      6 C5         -3.4760    1.3840    4.3650 c2        1 A00     -0.065000
      7 C6         -3.4430    1.4130    2.8820 c3        1 A00     -0.208500
      8 C7         -3.6460    2.4890    5.1010 c2        1 A00     -0.308000
      9 C12        -1.0260    4.3480    5.1210 c3        1 A00     -0.218000
     10 C11        -0.6640    3.5720    3.9230 c2        1 A00      0.093000
     11 O26         7.8350   -4.9810   -6.8660 o         1 A00     -0.415000
     12 O25         7.6860   -3.4240   -8.4630 os        1 A00     -0.260000
     13 C27         8.9810   -2.9460   -8.0950 c3        1 A00     -0.068000
     14 N22         8.4850   -7.4810   -5.3740 n2        1 A00     -0.201000
     15 C21         9.1510   -7.3410   -4.2890 c2        1 A00     -0.091000
     16 C28        10.2130   -8.3440   -3.8760 c3        1 A00      0.008000
     17 C30         9.7980   -9.1360   -2.6760 ca        1 A00     -0.146000
     18 C40        10.7760   -9.5130   -1.7450 ca        1 A00     -0.125500
     19 C39        10.4260  -10.2650   -0.6260 ca        1 A00     -0.115500
     20 C38         9.0990  -10.6470   -0.4260 ca        1 A00     -0.095000
     21 C37         8.1210  -10.2690   -1.3470 ca        1 A00     -0.115500
     22 C36         8.4680   -9.5160   -2.4680 ca        1 A00     -0.125500
     23 C29        10.6300   -9.3020   -5.0180 c3        1 A00     -0.149000
     24 C35        11.4480   -8.6340   -6.0510 c2        1 A00      0.067500
     25 C34        11.2580   -8.8710   -7.3850 c2        1 A00     -0.210500
     26 C33        10.2150   -9.7190   -7.8220 c2        1 A00      0.148000
     27 C32         9.3600  -10.3350   -6.8960 c2        1 A00     -0.210500
     28 C31         9.5150  -10.1080   -5.5470 c2        1 A00      0.067500
     29 C20         9.0160   -6.2100   -3.3020 c2        1 A00      0.198000
     30 O23         7.9510   -5.6170   -3.1310 o         1 A00     -0.281000
     31 N19         7.2040   -3.7740   -0.7940 n8        1 A00     -0.378000
     32 C18         6.9090   -2.5680   -0.1120 c3        1 A00     -0.091000
     33 C17         5.5070   -2.0870   -0.0240 c2        1 A00      0.154000
     34 C           1.4050    3.2090   -0.2320 c1        1 A00     -0.102000
     35 O           1.2110    5.3440   -1.3020 oh        1 A00     -0.355000
     36 N           0.9930    3.6870    0.9320 n7        1 A00     -0.689000
     37 S           0.9560    2.4890    2.0790 s6        1 A00      2.877000
     38 O8          2.2190    1.9010    2.2560 o         1 A00     -0.921500
     39 O9         -0.1210    1.6220    1.9070 o         1 A00     -0.921500
     40 C15         1.6730    4.0850    4.1820 c2        1 A00      0.100000
     41 C14         1.4540    4.8190    5.3060 c2        1 A00     -0.257000
     42 C13         0.1220    4.9990    5.8370 c2        1 A00      0.239000
     43 N16        -0.0980    5.7190    6.9290 n8        1 A00     -0.220000
     44 H31A        0.8120    3.4970   -2.2330 h1        1 A00      0.128000
     45 H32A        2.5750    3.8540   -1.8670 h1        1 A00      0.128000
     46 H11A        3.1280    1.4980   -0.7430 ha        1 A00      0.005500
     47 H12A        3.0260   -1.0030    0.3960 ha        1 A00      0.183500
     48 H21A        3.6070    1.0280   -0.8590 ha        1 A00      0.005500
     49 H22         6.0000   -0.3960    1.2100 ha        1 A00      0.189000
     50 H41        -4.2480   -0.5640    4.7790 hc        1 A00      0.096500
     51 H42        -3.1820    0.1020    6.0830 hc        1 A00      0.096500
     52 H5         -2.4550   -0.4990    4.5290 hc        1 A00      0.096500
     53 H61        -2.4350    1.0950    2.5060 hc        1 A00      0.096500
     54 H62        -4.2030    0.7000    2.4730 hc        1 A00      0.096500
     55 H63        -3.6730    2.4300    2.4820 hc        1 A00      0.096500
     56 H71        -3.7150    2.4580    6.1960 ha        1 A00      0.109500
     57 H72        -1.5230    3.0560    3.4260 ha        1 A00      0.214000
     58 H73        -3.8210    3.4730    4.6470 ha        1 A00      0.109500
     59 H12        -1.7870    5.1350    4.8160 hc        1 A00      0.207500
     60 H11        -1.5900    3.6480    5.8250 hc        1 A00      0.207500
     61 H271        8.9700   -2.6010   -7.0340 h1        1 A00      0.095333
     62 H272        9.7360   -3.7570   -8.2290 h1        1 A00      0.095333
     63 H273        9.1610   -2.0980   -8.8020 h1        1 A00      0.095333
     64 HN22        6.1840   -4.7710   -8.1710 h5        1 A00      0.187000
     65 H21         8.8200  -10.5480   -4.8050 ha        1 A00      0.183000
     66 H28         7.6860   -9.2160   -3.1840 ha        1 A00      0.137000
     67 H40        11.1380   -7.7460   -3.6140 hc        1 A00      0.125000
     68 H39        11.8260   -9.2130   -1.8920 ha        1 A00      0.137000
     69 H38        11.2010  -10.5600    0.1010 ha        1 A00      0.156500
     70 H37         8.8240  -11.2480    0.4560 ha        1 A00      0.160000
     71 H36         7.0730  -10.5690   -1.1920 ha        1 A00      0.156500
     72 H35        11.3380  -10.0670   -4.5210 hc        1 A00      0.223000
     73 H34        12.2480   -7.9570   -5.7000 ha        1 A00      0.183000
     74 H33        11.9080   -8.3900   -8.1400 ha        1 A00      0.193500
     75 H32        10.0690   -9.8890   -8.9070 ha        1 A00      0.191000
     76 H31         8.5410  -10.9830   -7.2610 ha        1 A00      0.193500
     77 HN19        6.7670   -4.5880   -0.4240 hn        1 A00      0.201500
     78 H181        7.1680   -3.7350   -1.7900 hn        1 A00      0.201500
     79 H182        7.2860   -2.6630    0.9620 h1        1 A00      0.174500
     80 H171        7.5210   -1.7230   -0.5730 h1        1 A00      0.174500
     81 H172        4.7130   -2.6620   -0.5440 ha        1 A00      0.164000
     82 H           3.6560    0.3950    1.4820 ha        1 A00      0.183500
     83 HO          1.2070    5.7650   -2.1720 ho        1 A00      0.235000
     84 H15         2.7080    3.9480    3.8060 ha        1 A00      0.187000
     85 H14         2.3050    5.2890    5.8330 ha        1 A00      0.189000
     86 H161        0.6550    6.1650    7.4200 hn        1 A00      0.284500
     87 H162       -1.0210    5.8440    7.3000 hn        1 A00      0.284500
     88 H222        7.8160   -6.7670   -5.5970 hn        1 A00      0.212000
     89 H192        9.9400   -5.9510   -2.7400 h4        1 A00      0.123000
     90 HN1         0.7180    4.6390    1.0710 hn        1 A00      0.237000
     91 C24         7.1800   -4.4810   -7.7860 c2        1 A00      0.273000
@<TRIPOS>BOND
     1    1   34 1   
     2    1   35 1   
     3    1   44 1   
     4    1   45 1   
     5    2    3 1   
     6    2   47 1   
     7    2   82 1   
     8    3   33 1   
     9    3   49 1   
    10    4   10 1   
    11    4   37 1   
    12    4   40 1   
    13    5    6 1   
    14    5   50 1   
    15    5   51 1   
    16    5   52 1   
    17    6    7 1   
    18    6    8 1   
    19    7   53 1   
    20    7   54 1   
    21    7   55 1   
    22    8   56 1   
    23    8   58 1   
    24    9   10 1   
    25    9   42 1   
    26    9   59 1   
    27    9   60 1   
    28   10   57 1   
    29   11   91 1   
    30   12   13 1   
    31   12   91 1   
    32   13   61 1   
    33   13   62 1   
    34   13   63 1   
    35   14   15 1   
    36   14   88 1   
    37   15   16 1   
    38   15   29 1   
    39   16   17 1   
    40   16   23 1   
    41   16   67 1   
    42   17   18 1   
    43   17   22 1   
    44   18   19 1   
    45   18   68 1   
    46   19   20 1   
    47   19   69 1   
    48   20   21 1   
    49   20   70 1   
    50   21   22 1   
    51   21   71 1   
    52   22   66 1   
    53   23   24 1   
    54   23   28 1   
    55   23   72 1   
    56   24   25 1   
    57   24   73 1   
    58   25   26 1   
    59   25   74 1   
    60   26   27 1   
    61   26   75 1   
    62   27   28 1   
    63   27   76 1   
    64   28   65 1   
    65   29   30 1   
    66   29   89 1   
    67   31   32 1   
    68   31   77 1   
    69   31   78 1   
    70   32   33 1   
    71   32   79 1   
    72   32   80 1   
    73   33   81 1   
    74   34   36 1   
    75   35   83 1   
    76   36   37 1   
    77   36   90 1   
    78   37   38 1   
    79   37   39 1   
    80   40   41 1   
    81   40   84 1   
    82   41   42 1   
    83   41   85 1   
    84   42   43 1   
    85   43   86 1   
    86   43   87 1   
    87   46   48 1   
    88   64   91 1   
@<TRIPOS>SUBSTRUCTURE
     1 A00         1 TEMP              0 ****  ****    0 ROOT
