@<TRIPOS>MOLECULE
A04
   25    21     1     0     0
SMALL
bcc


@<TRIPOS>ATOM
      1 OAQ        -4.9660   -1.0350    1.2660 o         1 A04     -0.793800
      2 CAB        -4.3180   -0.0260    0.8850 c         1 A04      0.936800
      3 OAR        -4.9190    0.9430    0.3520 o         1 A04     -0.793800
      4 CAA        -2.8110    0.0020    1.0230 ce        1 A04     -0.035200
      5 OAP        -1.9090   -0.4640    0.1030 os        1 A04     -0.140200
      6 CAD        -2.1050    0.4720    2.1120 c1        1 A04     -0.192900
      7 CAE        -0.7730    0.2950    1.8600 c1        1 A04     -0.085900
      8 CAC        -0.6500   -0.2850    0.6140 ce        1 A04     -0.097700
      9 CAG         0.5370   -0.6600    0.0050 cg        1 A04      0.033700
     10 CAK         1.2120   -1.7900    0.4380 c1        1 A04     -0.083500
     11 CAH         2.3700   -2.1960   -0.2060 c1        1 A04     -0.082000
     12 CAF         2.8540   -1.4710   -1.2830 c1        1 A04     -0.082000
     13 CAI         2.1800   -0.3400   -1.7170 c1        1 A04     -0.074500
     14 CAJ         1.0220    0.0660   -1.0730 c1        1 A04      0.065600
     15 OAS         0.3120    1.1860   -1.5420 os        1 A04     -0.330400
     16 CAL         0.9880    2.4040   -1.3610 c3        1 A04      0.823700
     17 FAN         0.8160    3.1750   -2.4420 f         1 A04     -0.217967
     18 FAO         2.2940    2.1670   -1.1850 f         1 A04     -0.217967
     19 FAM         0.4980    3.0310   -0.2820 f         1 A04     -0.217967
     20 HAD        -2.4880    0.8820    2.9120 DU        1 A04      0.146000
     21 HAE        -0.0400    0.5390    2.4540 DU        1 A04      0.146000
     22 HAK         0.8710   -2.3010    1.1970 ha        1 A04      0.078500
     23 HAH         2.8450   -2.9920    0.0990 ha        1 A04      0.064500
     24 HAF         3.6570   -1.7720   -1.7530 ha        1 A04      0.064500
     25 HAI         2.5200    0.1710   -2.4750 ha        1 A04      0.086500
@<TRIPOS>BOND
     1    1    2 1   
     2    2    3 1   
     3    2    4 1   
     4    4    5 1   
     5    4    6 2   
     6    5    8 1   
     7    6    7 2   
     8    7    8 2   
     9    8    9 1   
    10    9   10 3   
    11   10   22 1   
    12   11   12 3   
    13   11   23 1   
    14   12   24 1   
    15   13   14 3   
    16   13   25 1   
    17   14   15 1   
    18   15   16 1   
    19   16   17 1   
    20   16   18 1   
    21   16   19 1   
@<TRIPOS>SUBSTRUCTURE
     1 A04         1 TEMP              0 ****  ****    0 ROOT
