@<TRIPOS>MOLECULE
A04
   25    26     1     0     0
SMALL
bcc


@<TRIPOS>ATOM
      1 OAQ         2.8730    2.2670   -0.3690 o         1 A04     -0.793800
      2 CAB         3.3900    1.3030    0.2440 c         1 A04      0.828100
      3 OAR         4.5150    1.2930    0.8090 o         1 A04     -0.793800
      4 CAA         2.6180   -0.0100    0.3000 cc        1 A04      0.287200
      5 OAP         1.2380    0.0240    0.1910 os        1 A04     -0.310800
      6 CAD         3.0510   -1.3310    0.4250 cd        1 A04     -0.321300
      7 CAE         1.8860   -2.1590    0.3790 cd        1 A04     -0.214300
      8 CAC         0.7900   -1.3080    0.2370 cc        1 A04      0.190200
      9 CAG        -0.6150   -1.5690    0.1350 ca        1 A04     -0.040500
     10 CAK        -1.0490   -2.8940   -0.0830 ca        1 A04     -0.141000
     11 CAH        -2.3990   -3.2010   -0.1960 ca        1 A04     -0.126000
     12 CAF        -3.3650   -2.1980   -0.0940 ca        1 A04     -0.153000
     13 CAI        -2.9730   -0.8830    0.1320 ca        1 A04     -0.132000
     14 CAJ        -1.6100   -0.5760    0.2490 ca        1 A04      0.082100
     15 OAS        -1.2440    0.7120    0.6350 os        1 A04     -0.346900
     16 CAL        -1.3690    1.7420   -0.3110 c3        1 A04      0.823700
     17 FAN        -2.6860    2.0600   -0.4870 f         1 A04     -0.217967
     18 FAO        -0.7500    2.8120    0.2360 f         1 A04     -0.217967
     19 FAM        -0.8490    1.4500   -1.5250 f         1 A04     -0.217967
     20 HAD         4.0800   -1.6550    0.5430 ha        1 A04      0.159000
     21 HAE         1.8640   -3.2420    0.4490 ha        1 A04      0.132000
     22 HAK        -0.2940   -3.6890   -0.1720 ha        1 A04      0.136000
     23 HAH        -2.7080   -4.2420   -0.3700 ha        1 A04      0.121000
     24 HAF        -4.4310   -2.4450   -0.1880 ha        1 A04      0.123000
     25 HAI        -3.7150   -0.0760    0.2180 ha        1 A04      0.144000
@<TRIPOS>BOND
     1    1    2 1   
     2    2    3 1   
     3    2    4 1   
     4    4    5 1   
     5    4    6 2   
     6    5    8 1   
     7    6    7 1   
     8    6   20 1   
     9    7    8 2   
    10    7   21 1   
    11    8    9 1   
    12    9   10 ar  
    13    9   14 ar  
    14   10   11 ar  
    15   10   22 1   
    16   11   12 ar  
    17   11   23 1   
    18   12   13 ar  
    19   12   24 1   
    20   13   14 ar  
    21   13   25 1   
    22   14   15 1   
    23   15   16 1   
    24   16   17 1   
    25   16   18 1   
    26   16   19 1   
@<TRIPOS>SUBSTRUCTURE
     1 A04         1 TEMP              0 ****  ****    0 ROOT
