@<TRIPOS>MOLECULE
A04
   25    26     1     0     0
SMALL
bcc


@<TRIPOS>ATOM
      1 OAQ         0.0510   -1.2690   -0.5330 o         1 A04     -0.793800
      2 CAB         1.2440   -0.9560   -0.3050 c         1 A04      0.828100
      3 OAR         1.8450   -1.0570    0.7960 o         1 A04     -0.793800
      4 CAA         2.0630   -0.3650   -1.4470 cc        1 A04      0.287200
      5 OAP         1.7110   -0.6760   -2.7490 os        1 A04     -0.310800
      6 CAD         3.1540    0.5050   -1.4450 cd        1 A04     -0.321300
      7 CAE         3.4900    0.7560   -2.8120 cd        1 A04     -0.214300
      8 CAC         2.5960    0.0210   -3.5910 cc        1 A04      0.190200
      9 CAG         2.4520   -0.1130   -5.0090 ca        1 A04     -0.040500
     10 CAK         3.1510    0.7740   -5.8540 ca        1 A04     -0.141000
     11 CAH         3.0430    0.6910   -7.2360 ca        1 A04     -0.126000
     12 CAF         2.2330   -0.2820   -7.8260 ca        1 A04     -0.153000
     13 CAI         1.5380   -1.1790   -7.0240 ca        1 A04     -0.132000
     14 CAJ         1.6520   -1.0970   -5.6290 ca        1 A04      0.082100
     15 OAS         1.0810   -2.0990   -4.8480 os        1 A04     -0.346900
     16 CAL        -0.3160   -2.1090   -4.7090 c3        1 A04      0.823700
     17 FAN        -0.9010   -2.5370   -5.8660 f         1 A04     -0.217967
     18 FAO        -0.5760   -3.0210   -3.7460 f         1 A04     -0.217967
     19 FAM        -0.8520   -0.9080   -4.3950 f         1 A04     -0.217967
     20 HAD         3.6510    0.9020   -0.5660 ha        1 A04      0.159000
     21 HAE         4.2950    1.3910   -3.1700 ha        1 A04      0.132000
     22 HAK         3.7860    1.5480   -5.3970 ha        1 A04      0.136000
     23 HAH         3.5960    1.3990   -7.8700 ha        1 A04      0.121000
     24 HAF         2.1460   -0.3410   -8.9200 ha        1 A04      0.123000
     25 HAI         0.8960   -1.9560   -7.4650 ha        1 A04      0.144000
@<TRIPOS>BOND
     1    1    2 1   
     2    2    3 1   
     3    2    4 1   
     4    4    5 1   
     5    4    6 2   
     6    5    8 1   
     7    6    7 1   
     8    6   20 1   
     9    7    8 2   
    10    7   21 1   
    11    8    9 1   
    12    9   10 ar  
    13    9   14 ar  
    14   10   11 ar  
    15   10   22 1   
    16   11   12 ar  
    17   11   23 1   
    18   12   13 ar  
    19   12   24 1   
    20   13   14 ar  
    21   13   25 1   
    22   14   15 1   
    23   15   16 1   
    24   16   17 1   
    25   16   18 1   
    26   16   19 1   
@<TRIPOS>SUBSTRUCTURE
     1 A04         1 TEMP              0 ****  ****    0 ROOT
