@<TRIPOS>MOLECULE
A05
   23    24     1     0     0
SMALL
bcc


@<TRIPOS>ATOM
      1 OAN         0.1280   -1.2860   -0.5820 o         1 A05     -0.785800
      2 CAB         1.2130   -0.7630   -0.2290 c         1 A05      0.826100
      3 OAO         1.6350   -0.6180    0.9460 o         1 A05     -0.785800
      4 CAA         2.1400   -0.2380   -1.3250 cc        1 A05      0.302200
      5 OAM         1.7370   -0.3650   -2.6360 os        1 A05     -0.326800
      6 CAD         3.3910    0.3850   -1.2730 cd        1 A05     -0.325300
      7 CAE         3.7800    0.6550   -2.6190 cd        1 A05     -0.168300
      8 CAC         2.7560    0.1900   -3.4490 cc        1 A05      0.159200
      9 CAG         2.5050    0.1440   -4.8550 ca        1 A05      0.008500
     10 CAK         1.2920   -0.4370   -5.3020 ca        1 A05     -0.143000
     11 CAH         0.9710   -0.5220   -6.6440 ca        1 A05     -0.062000
     12 CAF         1.8730   -0.0170   -7.6010 ca        1 A05     -0.215200
     13 NAL         1.5460   -0.0990   -9.0390 no        1 A05      0.320200
     14 OAQ         0.5050   -0.6000   -9.3820 o         1 A05     -0.232000
     15 OAP         2.3250    0.3370   -9.8490 o         1 A05     -0.232000
     16 CAI         3.0820    0.5650   -7.1960 ca        1 A05     -0.056000
     17 CAJ         3.3890    0.6420   -5.8360 ca        1 A05     -0.025600
     18 CLAR        4.8800    1.3660   -5.4430 cl        1 A05     -0.094400
     19 HAD         3.9490    0.6120   -0.3700 ha        1 A05      0.167000
     20 HAE         4.7060    1.1350   -2.9230 ha        1 A05      0.149000
     21 HAK         0.5900   -0.8310   -4.5450 ha        1 A05      0.186000
     22 HAH         0.0200   -0.9790   -6.9650 ha        1 A05      0.164000
     23 HAI         3.7850    0.9600   -7.9500 ha        1 A05      0.168000
@<TRIPOS>BOND
     1    1    2 1   
     2    2    3 1   
     3    2    4 1   
     4    4    5 1   
     5    4    6 2   
     6    5    8 1   
     7    6    7 1   
     8    6   19 1   
     9    7    8 2   
    10    7   20 1   
    11    8    9 1   
    12    9   10 ar  
    13    9   17 ar  
    14   10   11 ar  
    15   10   21 1   
    16   11   12 ar  
    17   11   22 1   
    18   12   13 1   
    19   12   16 ar  
    20   13   14 1   
    21   13   15 1   
    22   16   17 ar  
    23   16   23 1   
    24   17   18 1   
@<TRIPOS>SUBSTRUCTURE
     1 A05         1 TEMP              0 ****  ****    0 ROOT
