@<TRIPOS>MOLECULE
A05
   23    24     1     0     0
SMALL
bcc


@<TRIPOS>ATOM
      1 OAN         4.0500    2.4960    0.0710 o         1 A05     -0.785800
      2 CAB         4.3640    1.2960    0.2600 c         1 A05      0.826100
      3 OAO         5.5250    0.8300    0.3840 o         1 A05     -0.785800
      4 CAA         3.2360    0.2700    0.3540 cc        1 A05      0.302200
      5 OAM         1.9380    0.7160    0.2270 os        1 A05     -0.326800
      6 CAD         3.2420   -1.1140    0.5540 cd        1 A05     -0.325300
      7 CAE         1.8820   -1.5440    0.5510 cd        1 A05     -0.168300
      8 CAC         1.0880   -0.4110    0.3490 cc        1 A05      0.159200
      9 CAG        -0.3090   -0.1340    0.2410 ca        1 A05      0.008500
     10 CAK        -0.7140    1.2070    0.0270 ca        1 A05     -0.143000
     11 CAH        -2.0450    1.5620   -0.0880 ca        1 A05     -0.062000
     12 CAF        -3.0340    0.5640    0.0080 ca        1 A05     -0.215200
     13 NAL        -4.4610    0.9260   -0.1130 no        1 A05      0.320200
     14 OAQ        -4.7670    2.0770   -0.2940 o         1 A05     -0.232000
     15 OAP        -5.2990    0.0640   -0.0280 o         1 A05     -0.232000
     16 CAI        -2.6720   -0.7730    0.2200 ca        1 A05     -0.056000
     17 CAJ        -1.3230   -1.1130    0.3340 ca        1 A05     -0.025600
     18 CLAR       -0.9830   -2.7620    0.5900 cl        1 A05     -0.094400
     19 HAD         4.1260   -1.7300    0.6860 ha        1 A05      0.167000
     20 HAE         1.5450   -2.5680    0.6830 ha        1 A05      0.149000
     21 HAK         0.0690    1.9850   -0.0480 ha        1 A05      0.186000
     22 HAH        -2.3310    2.6140   -0.2550 ha        1 A05      0.164000
     23 HAI        -3.4510   -1.5510    0.2950 ha        1 A05      0.168000
@<TRIPOS>BOND
     1    1    2 1   
     2    2    3 1   
     3    2    4 1   
     4    4    5 1   
     5    4    6 2   
     6    5    8 1   
     7    6    7 1   
     8    6   19 1   
     9    7    8 2   
    10    7   20 1   
    11    8    9 1   
    12    9   10 ar  
    13    9   17 ar  
    14   10   11 ar  
    15   10   21 1   
    16   11   12 ar  
    17   11   22 1   
    18   12   13 1   
    19   12   16 ar  
    20   13   14 1   
    21   13   15 1   
    22   16   17 ar  
    23   16   23 1   
    24   17   18 1   
@<TRIPOS>SUBSTRUCTURE
     1 A05         1 TEMP              0 ****  ****    0 ROOT
