@<TRIPOS>MOLECULE
A05
   23    19     1     0     0
SMALL
bcc


@<TRIPOS>ATOM
      1 OAN        -5.0210    1.7880    0.7920 o         1 A05     -0.516000
      2 CAB        -3.9940    2.3860    1.0100 c2        1 A05      0.392000
      3 OAO        -3.9750    3.7160    0.9480 o         1 A05     -0.516000
      4 CAA        -2.6710    1.6060    1.1430 c2        1 A05      0.040000
      5 OAM        -1.8450    1.2040    0.0930 os        1 A05     -0.051000
      6 CAD        -2.1370    1.1080    2.3190 c1        1 A05     -0.279000
      7 CAE        -0.9540    0.3800    2.0010 c1        1 A05     -0.113000
      8 CAC        -0.7710    0.4340    0.6520 c2        1 A05     -0.148000
      9 CAG         0.2980   -0.2030   -0.0770 c1        1 A05      0.119000
     10 CAK         0.2010   -1.5060   -0.4060 c1        1 A05     -0.163000
     11 CAH         1.2000   -2.1060   -1.1190 c1        1 A05     -0.063000
     12 CAF         2.3120   -1.3830   -1.5060 c1        1 A05     -0.169000
     13 NAL         3.3640   -2.0360   -2.2150 n2        1 A05      0.466400
     14 OAQ         3.3590   -3.3160   -2.3160 o         1 A05     -0.327700
     15 OAP         4.3380   -1.3750   -2.6360 o         1 A05     -0.327700
     16 CAI         2.4140   -0.0890   -1.1820 c2        1 A05     -0.060000
     17 CAJ         1.4070    0.5230   -0.4610 c1        1 A05     -0.089000
     18 CLAR        1.5600    2.2470    0.0120 cl        1 A05      0.032000
     19 HAD        -2.5110    1.2330    3.2220 DU        1 A05      0.147000
     20 HAE        -0.4440   -0.0250    2.5620 DU        1 A05      0.147000
     21 HAK        -0.5240   -2.0190   -0.0920 ha        1 A05      0.148000
     22 HAH         1.1680   -3.0080   -1.2800 ha        1 A05      0.158000
     23 HAI         3.2290    0.4420   -1.4640 ha        1 A05      0.171000
@<TRIPOS>BOND
     1    1    2 1   
     2    2    3 1   
     3    2    4 1   
     4    4    5 1   
     5    4    6 1   
     6    5    8 1   
     7    6    7 1   
     8    7    8 1   
     9    8    9 1   
    10    9   10 1   
    11   10   21 1   
    12   11   12 1   
    13   11   22 1   
    14   12   16 1   
    15   13   14 2   
    16   13   15 2   
    17   16   17 1   
    18   16   23 1   
    19   17   18 1   
@<TRIPOS>SUBSTRUCTURE
     1 A05         1 TEMP              0 ****  ****    0 ROOT
