@<TRIPOS>MOLECULE
A06
   36    35     1     0     0
SMALL
bcc


@<TRIPOS>ATOM
      1 C1         -0.4410    0.2560    0.4730 c2        1 A06      0.020000
      2 C6          0.6500   -0.3650    0.9740 c2        1 A06     -0.162000
      3 C5          1.0340   -0.3360    2.3650 c2        1 A06     -0.115000
      4 C4          1.7870   -1.2500    2.9900 c2        1 A06     -0.162000
      5 C3         -1.4440    1.0330    2.6150 c1        1 A06      0.152000
      6 C2         -1.3690    1.0060    1.3010 c2        1 A06     -0.426000
      7 C8         -2.2280   -1.0520   -4.8630 c2        1 A06      0.053000
      8 C9         -1.7500   -1.0950   -6.1130 c2        1 A06     -0.261000
      9 C10        -7.5580   -2.7040   -6.9780 c1        1 A06      0.118000
     10 C11        -6.3550   -2.3790   -7.3310 c2        1 A06     -0.550000
     11 C12        -4.6450   -1.6270   -5.2270 c1        1 A06      0.132000
     12 C13        -3.6540   -1.2910   -4.4170 c2        1 A06     -0.241000
     13 N14        -3.7080   -1.1000   -2.9930 n2        1 A06     -0.212000
     14 C15        -2.4540   -0.7910   -2.6140 c2        1 A06      0.113000
     15 C14        -0.7470    0.1950   -0.9990 c3        1 A06     -0.079000
     16 C16        -2.0760   -0.5320   -1.1850 c3        1 A06     -0.105000
     17 C17        -0.7500    1.5830   -1.6240 c3        1 A06     -0.241000
     18 C18         0.4500    1.8050   -2.5660 c2        1 A06      0.332000
     19 O1          1.0120    2.9290   -2.5490 o         1 A06     -0.566500
     20 O2          0.8040    0.8510   -3.3300 o         1 A06     -0.566500
     21 N9         -1.5140   -0.8080   -3.6590 na        1 A06     -0.283000
     22 Cl2         2.4120   -2.6530    2.2740 cl        1 A06     -0.041000
     23 H6          1.3210   -0.9210    0.2940 ha        1 A06      0.156000
     24 H2         -2.0890    1.6410    0.7350 ha        1 A06      0.203000
     25 H5          0.6880    0.5360    2.9600 ha        1 A06      0.142000
     26 H3          2.0680   -1.1680    4.0470 h4        1 A06      0.141000
     27 HA         -0.6330   -0.3030   -3.6340 hn        1 A06      0.328000
     28 H10        -2.3990   -1.3250   -6.9650 ha        1 A06      0.135500
     29 H12        -5.6950   -2.0620   -6.3850 h4        1 A06      0.320000
     30 H14        -1.6810    1.7340   -2.2270 hc        1 A06      0.080500
     31 H161        0.0690   -0.4070   -1.5030 hc        1 A06      0.140000
     32 H162       -2.0280   -1.5300   -0.6690 hc        1 A06      0.107500
     33 H171       -2.9000    0.0620   -0.7030 hc        1 A06      0.107500
     34 H172       -0.7230    2.3790   -0.8380 hc        1 A06      0.080500
     35 Cl1        -5.4860   -2.2850   -8.7570 cl        1 A06      0.011000
     36 H9         -0.6950   -0.8960   -6.3410 ha        1 A06      0.135500
@<TRIPOS>BOND
     1    1    2 1   
     2    1    6 1   
     3    1   15 1   
     4    2    3 1   
     5    2   23 1   
     6    3    4 1   
     7    3   25 1   
     8    4   22 1   
     9    4   26 1   
    10    5    6 1   
    11    6   24 1   
    12    7    8 1   
    13    7   12 1   
    14    7   21 1   
    15    8   28 1   
    16    8   36 1   
    17    9   10 1   
    18   10   29 1   
    19   10   35 1   
    20   11   12 1   
    21   12   13 1   
    22   13   14 1   
    23   14   16 1   
    24   14   21 1   
    25   15   16 1   
    26   15   17 1   
    27   15   31 1   
    28   16   32 1   
    29   16   33 1   
    30   17   18 1   
    31   17   30 1   
    32   17   34 1   
    33   18   19 1   
    34   18   20 1   
    35   21   27 1   
@<TRIPOS>SUBSTRUCTURE
     1 A06         1 TEMP              0 ****  ****    0 ROOT
