@<TRIPOS>MOLECULE
A06
   36    28     1     0     0
SMALL
bcc


@<TRIPOS>ATOM
      1 C1          1.1350    1.3630    1.7430 c1        1 A06     -0.050000
      2 C6          2.5200    1.3800    1.6810 c1        1 A06     -0.119000
      3 C5          3.2650    1.3940    2.8490 c1        1 A06     -0.119000
      4 C4          2.6270    1.3900    4.0790 c1        1 A06     -0.081000
      5 C3          1.2420    1.3720    4.1410 c1        1 A06     -0.138000
      6 C2          0.4960    1.3590    2.9730 c1        1 A06     -0.138000
      7 C8         -0.6010   -2.3000   -2.2700 c1        1 A06     -0.054500
      8 C9         -0.4070   -3.3540   -3.1820 c1        1 A06     -0.093500
      9 C10        -1.4990   -3.9720   -3.7710 c1        1 A06     -0.138000
     10 C11        -2.7820   -3.5520   -3.4600 c1        1 A06     -0.081000
     11 C12        -2.9740   -2.5150   -2.5620 c1        1 A06     -0.093500
     12 C13        -1.8650   -1.8870   -1.9640 c1        1 A06     -0.054500
     13 N14        -1.7680   -0.8590   -1.0860 n1        1 A06     -0.194500
     14 C15        -0.4490   -0.6340   -0.8460 c1        1 A06      0.021000
     15 C14         0.3220    1.3080    0.4690 c3        1 A06     -0.066000
     16 C16        -0.5560    0.0770    0.4840 c2        1 A06     -0.094000
     17 C17        -0.5450    2.5450    0.3710 c3        1 A06     -0.239000
     18 C18         0.1790    3.6070   -0.4270 c2        1 A06      0.326000
     19 O1          0.2990    3.4850   -1.6740 o         1 A06     -0.570000
     20 O2          0.6370    4.6260    0.1530 o         1 A06     -0.570000
     21 CL1        -4.1240   -4.2820   -4.3010 cl        1 A06     -0.061000
     22 N9          0.2700   -1.5250   -1.5780 n1        1 A06     -0.194500
     23 CL2         3.5650    1.3440    5.5480 cl        1 A06     -0.061000
     24 H6          2.9690    1.3830    0.8150 ha        1 A06      0.173000
     25 H2         -0.4790    1.3460    3.0170 ha        1 A06      0.130000
     26 H5          4.2400    1.4060    2.8050 ha        1 A06      0.173000
     27 H3          0.7930    1.3690    5.0070 ha        1 A06      0.132000
     28 H9          0.4980   -3.6380   -3.4150 ha        1 A06      0.149000
     29 HA          1.1790   -1.5990   -1.5900 DU        1 A06      0.334000
     30 H10        -1.3640   -4.7020   -4.4030 ha        1 A06      0.132000
     31 H12        -3.8790   -2.2250   -2.3370 ha        1 A06      0.149000
     32 H14         0.9230    1.2700   -0.3000 hc        1 A06      0.119000
     33 H161       -0.2640   -0.5230    1.1990 ha        1 A06      0.102500
     34 H162       -1.4850    0.3410    0.6380 ha        1 A06      0.102500
     35 H171       -0.7330    2.8830    1.2690 hc        1 A06      0.083000
     36 H172       -1.3860    2.3190   -0.0750 hc        1 A06      0.083000
@<TRIPOS>BOND
     1    1    6 1   
     2    1   15 1   
     3    2    3 1   
     4    2   24 1   
     5    3   26 1   
     6    4    5 1   
     7    4   23 1   
     8    5   27 1   
     9    6   25 1   
    10    7    8 1   
    11    8   28 1   
    12    9   10 1   
    13    9   30 1   
    14   10   21 1   
    15   11   12 1   
    16   11   31 1   
    17   13   14 1   
    18   14   22 1   
    19   15   16 1   
    20   15   17 1   
    21   15   32 1   
    22   16   33 1   
    23   16   34 1   
    24   17   18 1   
    25   17   35 1   
    26   17   36 1   
    27   18   19 1   
    28   18   20 1   
@<TRIPOS>SUBSTRUCTURE
     1 A06         1 TEMP              0 ****  ****    0 ROOT
