@<TRIPOS>MOLECULE
A06
   36    34     1     0     0
SMALL
bcc


@<TRIPOS>ATOM
      1 C1         -3.2860    0.3630    1.3170 c2        1 A06      0.222000
      2 C6          2.9080    0.3920   -0.0440 c2        1 A06     -0.102000
      3 C5          4.1110   -0.0670    0.1010 c1        1 A06     -0.201000
      4 C4          5.3120   -0.5380    0.2640 c2        1 A06     -0.142000
      5 C3         -5.6490   -0.1690    2.2460 c1        1 A06      0.128000
      6 C2         -4.4990    0.0850    1.7760 c1        1 A06     -0.600000
      7 C8         -2.1170   -1.4470   -4.0130 c2        1 A06      0.059000
      8 C9         -1.0630   -1.9130   -4.6960 c2        1 A06     -0.275000
      9 C10        -5.7180   -2.2070   -9.2110 c1        1 A06      0.182000
     10 C11        -4.4850   -1.8780   -8.9060 c2        1 A06     -0.486000
     11 C12        -3.8770   -1.3470   -5.8050 c1        1 A06      0.155000
     12 C13        -3.4960   -1.1450   -4.5490 c2        1 A06     -0.289000
     13 N14        -4.2880   -0.6290   -3.4630 n2        1 A06     -0.190000
     14 C15        -3.4870   -0.6280   -2.3870 c2        1 A06      0.095000
     15 C14        -2.8040    0.1240   -0.0650 c3        1 A06     -0.135000
     16 C16        -3.9400   -0.1740   -1.0300 c3        1 A06     -0.102000
     17 C17        -1.9340    1.2880   -0.5310 c3        1 A06     -0.233000
     18 C18        -0.4430    0.9430   -0.4100 c2        1 A06      0.325000
     19 O1          0.3250    1.7640    0.1540 o         1 A06     -0.574000
     20 O2         -0.0480   -0.1670   -0.8920 o         1 A06     -0.574000
     21 N9         -2.2010   -1.1650   -2.6220 na        1 A06     -0.287000
     22 CL2         6.5660   -0.3080   -0.8760 cl        1 A06     -0.089000
     23 H6          2.5820    1.3830    0.3240 ha        1 A06      0.190500
     24 H2         -2.5190    0.7960    1.9970 ha        1 A06      0.142000
     25 H5          2.0790   -0.1680   -0.5270 ha        1 A06      0.190500
     26 H3          5.6470   -1.1210    1.1290 h4        1 A06      0.143000
     27 HA         -1.3890   -0.9130   -2.0780 hn        1 A06      0.312000
     28 H10        -1.1300   -2.1270   -5.7680 ha        1 A06      0.132000
     29 H12        -4.2720   -1.6650   -7.8170 h4        1 A06      0.262000
     30 H14        -2.1470    1.5200   -1.6050 hc        1 A06      0.090000
     31 H161       -2.1340   -0.7960    0.0160 hc        1 A06      0.165000
     32 H162       -4.5940   -0.9830   -0.6000 hc        1 A06      0.120000
     33 H171       -4.5760    0.7440   -1.1510 hc        1 A06      0.120000
     34 H172       -2.1480    2.2120    0.0620 hc        1 A06      0.090000
     35 CL1        -3.1310   -1.7140   -9.8890 cl        1 A06      0.021000
     36 H9         -0.0910   -2.0960   -4.2220 ha        1 A06      0.132000
@<TRIPOS>BOND
     1    1    6 1   
     2    1   15 1   
     3    1   24 1   
     4    2    3 1   
     5    2   23 1   
     6    2   25 1   
     7    3    4 1   
     8    4   22 1   
     9    4   26 1   
    10    5    6 1   
    11    7    8 1   
    12    7   12 1   
    13    7   21 1   
    14    8   28 1   
    15    8   36 1   
    16    9   10 1   
    17   10   29 1   
    18   10   35 1   
    19   11   12 1   
    20   12   13 1   
    21   13   14 1   
    22   14   16 1   
    23   14   21 1   
    24   15   16 1   
    25   15   17 1   
    26   15   31 1   
    27   16   32 1   
    28   16   33 1   
    29   17   18 1   
    30   17   30 1   
    31   17   34 1   
    32   18   19 1   
    33   18   20 1   
    34   21   27 1   
@<TRIPOS>SUBSTRUCTURE
     1 A06         1 TEMP              0 ****  ****    0 ROOT
