@<TRIPOS>MOLECULE
A06
   36    38     1     0     0
SMALL
bcc


@<TRIPOS>ATOM
      1 C1          2.6280    0.4080   -0.2540 ca        1 A06     -0.057300
      2 C6          3.5750    0.2660    0.7770 ca        1 A06     -0.124000
      3 C5          4.9220    0.5200    0.5460 ca        1 A06     -0.133500
      4 C4          5.3400    0.9140   -0.7300 ca        1 A06      0.004400
      5 C3          4.4190    1.0380   -1.7680 ca        1 A06     -0.133500
      6 C2          3.0680    0.7810   -1.5260 ca        1 A06     -0.124000
      7 C8         -3.1030    0.3990    0.4200 ca        1 A06     -0.080200
      8 C9         -4.1460    0.2890    1.3510 ca        1 A06     -0.106000
      9 C10        -5.4330    0.5510    0.9120 ca        1 A06     -0.137000
     10 C11        -5.6840    0.9160   -0.4270 ca        1 A06     -0.009600
     11 C12        -4.6780    1.0340   -1.3760 ca        1 A06     -0.081000
     12 C13        -3.3620    0.7740   -0.9650 ca        1 A06      0.065400
     13 N14        -2.1500    0.8050   -1.6680 nc        1 A06     -0.615100
     14 C15        -1.1960    0.4640   -0.7540 cd        1 A06      0.422800
     15 C14         1.1900    0.1500    0.0910 c3        1 A06     -0.019400
     16 C16         0.2600    0.3840   -1.0920 c3        1 A06     -0.090700
     17 C17         1.0390   -1.2540    0.6750 c3        1 A06     -0.210400
     18 C18         0.9240   -1.1870    2.2080 c         1 A06      0.906600
     19 O1          1.9300   -1.4880    2.9050 o         1 A06     -0.835300
     20 O2         -0.1850   -0.8150    2.7070 o         1 A06     -0.835300
     21 N9         -1.7280    0.2200    0.5230 na        1 A06     -0.244300
     22 CL2         6.9920    1.2370   -1.0200 cl        1 A06     -0.136400
     23 H6          3.2330   -0.0850    1.7740 ha        1 A06      0.167000
     24 H2          2.3640    0.8700   -2.3670 ha        1 A06      0.167000
     25 H5          5.6510    0.4050    1.3620 ha        1 A06      0.136500
     26 H3          4.7480    1.3350   -2.7750 ha        1 A06      0.136500
     27 HA         -1.2190   -0.1060    1.3390 hn        1 A06      0.383700
     28 H10        -6.2740    0.4730    1.6170 ha        1 A06      0.133000
     29 H12        -4.8920    1.3190   -2.4150 ha        1 A06      0.147000
     30 H14         0.9190    0.8970    0.8980 hc        1 A06      0.079700
     31 H161        0.3960   -0.4390   -1.8450 hc        1 A06      0.063200
     32 H162        0.5280    1.3580   -1.5880 hc        1 A06      0.063200
     33 H171        0.1280   -1.7560    0.2650 hc        1 A06      0.043700
     34 H172        1.9220   -1.8860    0.4060 hc        1 A06      0.043700
     35 CL1        -7.3020    1.2260   -0.8920 cl        1 A06     -0.142400
     36 H9         -3.9420    0.0020    2.3920 ha        1 A06      0.151000
@<TRIPOS>BOND
     1    1    2 ar  
     2    1    6 ar  
     3    1   15 1   
     4    2    3 ar  
     5    2   23 1   
     6    3    4 ar  
     7    3   25 1   
     8    4    5 ar  
     9    4   22 1   
    10    5    6 ar  
    11    5   26 1   
    12    6   24 1   
    13    7    8 ar  
    14    7   12 ar  
    15    7   21 1   
    16    8    9 ar  
    17    8   36 1   
    18    9   10 ar  
    19    9   28 1   
    20   10   11 ar  
    21   10   35 1   
    22   11   12 ar  
    23   11   29 1   
    24   12   13 1   
    25   13   14 2   
    26   14   16 1   
    27   14   21 1   
    28   15   16 1   
    29   15   17 1   
    30   15   30 1   
    31   16   31 1   
    32   16   32 1   
    33   17   18 1   
    34   17   33 1   
    35   17   34 1   
    36   18   19 1   
    37   18   20 1   
    38   21   27 1   
@<TRIPOS>SUBSTRUCTURE
     1 A06         1 TEMP              0 ****  ****    0 ROOT
