@<TRIPOS>MOLECULE
A07
   38    30     1     0     0
SMALL
bcc


@<TRIPOS>ATOM
      1 C1          2.3690    2.0330    1.9980 c1        1 A07     -0.044000
      2 CL1         2.8060    4.4790   -0.1430 cl        1 A07     -0.002000
      3 C2          1.8680    2.6670    3.1240 c1        1 A07     -0.123500
      4 C3          2.6180    2.7060    4.2880 c1        1 A07     -0.123500
      5 C4          3.8700    2.1120    4.3270 c1        1 A07     -0.123500
      6 C5          4.3710    1.4780    3.2010 c1        1 A07     -0.123500
      7 C6          3.6200    1.4390    2.0360 c1        1 A07     -0.115000
      8 C12         1.8050    3.0560   -0.0320 c2        1 A07     -0.015000
      9 C13         1.1490    3.0810   -1.2510 c1        1 A07     -0.141000
     10 C14         0.2910    2.0240   -1.6100 c1        1 A07     -0.071000
     11 C15         0.1070    0.9770   -0.7590 c1        1 A07     -0.071000
     12 C16         0.7740    0.9520    0.4800 c1        1 A07     -0.047000
     13 C17         1.6180    1.9930    0.8340 c1        1 A07     -0.062000
     14 N20        -0.4700    1.7990   -2.7260 n1        1 A07     -0.179000
     15 N21        -1.1280    0.6020   -2.5590 n2        1 A07     -0.047000
     16 C22        -0.7770    0.0950   -1.3540 c1        1 A07      0.045000
     17 N23        -1.3620   -1.1100   -0.8840 n2        1 A07     -0.315000
     18 C24        -2.2140   -1.8620   -1.7330 c2        1 A07      0.307000
     19 C25        -2.8760   -3.1200   -1.2160 c3        1 A07     -0.181000
     20 C26        -3.4270   -3.9140   -2.3800 c3        1 A07     -0.155000
     21 C29        -4.1640   -5.1280   -1.8590 c3        1 A07     -0.213000
     22 O35        -2.4420   -1.4750   -2.8610 o         1 A07     -0.306000
     23 H2          0.9870    3.0860    3.0970 ha        1 A07      0.135000
     24 H3          2.2650    3.1530    5.0810 ha        1 A07      0.135000
     25 H4          4.3980    2.1400    5.1470 ha        1 A07      0.135000
     26 H5          5.2520    1.0600    3.2280 ha        1 A07      0.135000
     27 H6          3.9730    0.9920    1.2430 ha        1 A07      0.135000
     28 H13         1.3010    3.8190   -1.8720 ha        1 A07      0.158000
     29 H16         0.6450    0.2010    1.0890 ha        1 A07      0.141000
     30 HN23       -1.1690   -1.4140   -0.0460 hn        1 A07      0.238000
     31 H25        -2.2180   -3.6610   -0.7350 hc        1 A07      0.103500
     32 H25A       -3.6060   -2.8800   -0.6110 hc        1 A07      0.103500
     33 H26        -2.6910   -4.2020   -2.9560 hc        1 A07      0.100000
     34 H26A       -4.0430   -3.3550   -2.8940 hc        1 A07      0.100000
     35 H29        -3.5460   -5.6900   -1.3460 hc        1 A07      0.075000
     36 H29A       -4.5240   -5.6410   -2.6130 hc        1 A07      0.075000
     37 H29B       -4.9000   -4.8390   -1.2790 hc        1 A07      0.075000
     38 HN20       -0.5300    2.3470   -3.4520 DU        1 A07      0.264000
@<TRIPOS>BOND
     1    1    7 1   
     2    2    8 1   
     3    3    4 1   
     4    3   23 1   
     5    4   24 1   
     6    5    6 1   
     7    5   25 1   
     8    6   26 1   
     9    7   27 1   
    10    8    9 1   
    11    8   13 1   
    12    9   28 1   
    13   10   11 1   
    14   12   13 1   
    15   12   29 1   
    16   14   15 1   
    17   15   16 1   
    18   17   18 1   
    19   17   30 1   
    20   18   19 1   
    21   18   22 1   
    22   19   20 1   
    23   19   31 1   
    24   19   32 1   
    25   20   21 1   
    26   20   33 1   
    27   20   34 1   
    28   21   35 1   
    29   21   36 1   
    30   21   37 1   
@<TRIPOS>SUBSTRUCTURE
     1 A07         1 TEMP              0 ****  ****    0 ROOT
