@<TRIPOS>MOLECULE
A07
   38    39     1     0     0
SMALL
bcc


@<TRIPOS>ATOM
      1 C1          0.0320    0.1710   -0.1480 c2        1 A07     -0.017000
      2 C2          0.8990   -0.8740    0.5070 c3        1 A07     -0.104000
      3 C3          1.9140   -0.1930    1.3910 c2        1 A07     -0.152000
      4 C4          1.7370    1.0390    1.9190 c2        1 A07     -0.146000
      5 C5          0.4020    1.6400    1.7670 c2        1 A07     -0.069000
      6 C6         -0.2050    1.1930    0.6720 c1        1 A07     -0.207000
      7 C12        -0.7100    1.4340   -2.1740 c3        1 A07     -0.138000
      8 C13        -1.6260    1.4430   -3.3120 c1        1 A07      0.069000
      9 C14        -2.6930    0.5000   -3.2670 c2        1 A07     -0.145000
     10 C15        -2.4250   -0.7890   -2.5830 c2        1 A07     -0.280000
     11 C16        -1.3870   -1.0040   -1.7090 c1        1 A07     -0.081000
     12 C17        -0.3570    0.0420   -1.5740 c3        1 A07     -0.070000
     13 N20        -3.8940    0.4570   -3.8930 n2        1 A07      0.016000
     14 N21        -4.4020   -0.7680   -3.6910 na        1 A07     -0.163000
     15 C22        -3.5670   -1.5920   -2.9220 c2        1 A07      0.207000
     16 N23        -3.7830   -2.9010   -2.5530 n         1 A07     -0.305000
     17 C24        -4.8930   -3.6750   -2.9120 c2        1 A07      0.319000
     18 C25        -4.9290   -5.0850   -2.3880 c3        1 A07     -0.249000
     19 C26        -7.8720   -5.8180   -4.4100 c2        1 A07     -0.226500
     20 C29        -8.2740   -6.5410   -3.3740 c2        1 A07     -0.226500
     21 O35        -5.7890   -3.1990   -3.6300 o         1 A07     -0.350000
     22 H2          1.4240   -1.4510   -0.2990 hc        1 A07      0.117000
     23 H3          0.3100   -1.6070    1.1200 hc        1 A07      0.117000
     24 H4          2.8170   -0.7850    1.6010 ha        1 A07      0.133000
     25 H5          2.4890    1.5480    2.5320 ha        1 A07      0.139000
     26 H6         -0.0200    2.2680    2.5560 ha        1 A07      0.154000
     27 H13        -1.1650    2.0750   -1.3570 h1        1 A07      0.178000
     28 H16         0.5340   -0.3620   -2.1550 hc        1 A07      0.158000
     29 HN23       -3.0770   -3.2830   -1.9530 hn        1 A07      0.281000
     30 H25        -4.9260   -5.0890   -1.2710 hc        1 A07      0.123667
     31 H25A       -5.8690   -5.5760   -2.7550 hc        1 A07      0.123667
     32 H26        -4.0480   -5.6640   -2.7590 hc        1 A07      0.123667
     33 H26A       -7.8980   -6.1960   -5.4410 ha        1 A07      0.113500
     34 H29        -7.4880   -4.7910   -4.3080 ha        1 A07      0.113500
     35 H29A       -8.2580   -6.1620   -2.3430 ha        1 A07      0.113500
     36 H29B       -8.6610   -7.5640   -3.4760 ha        1 A07      0.113500
     37 HN20       -5.2870   -1.0300   -4.0810 hn        1 A07      0.309000
     38 CL1         0.7810    2.2780   -2.6250 cl        1 A07     -0.092000
@<TRIPOS>BOND
     1    1    2 1   
     2    1    6 1   
     3    1   12 1   
     4    2    3 1   
     5    2   22 1   
     6    2   23 1   
     7    3    4 1   
     8    3   24 1   
     9    4    5 1   
    10    4   25 1   
    11    5    6 1   
    12    5   26 1   
    13    7    8 1   
    14    7   12 1   
    15    7   27 1   
    16    7   38 1   
    17    8    9 1   
    18    9   10 1   
    19    9   13 1   
    20   10   11 1   
    21   10   15 1   
    22   11   12 1   
    23   12   28 1   
    24   13   14 1   
    25   14   15 1   
    26   14   37 1   
    27   15   16 1   
    28   16   17 1   
    29   16   29 1   
    30   17   18 1   
    31   17   21 1   
    32   18   30 1   
    33   18   31 1   
    34   18   32 1   
    35   19   20 1   
    36   19   33 1   
    37   19   34 1   
    38   20   35 1   
    39   20   36 1   
@<TRIPOS>SUBSTRUCTURE
     1 A07         1 TEMP              0 ****  ****    0 ROOT
