@<TRIPOS>MOLECULE
A07
   39    41     1     0     0
SMALL
bcc


@<TRIPOS>ATOM
      1 C1         -0.0270   -0.3880   -0.1820 c2        1 A07     -0.144000
      2 C2          1.4290   -0.0010   -0.0020 c3        1 A07     -0.111000
      3 C3          1.6640    0.6680    1.3210 c2        1 A07     -0.101000
      4 C4          0.8460    0.5510    2.3920 c2        1 A07     -0.154000
      5 C5         -0.2240   -0.4600    2.3050 c2        1 A07     -0.040000
      6 C6         -0.5780   -0.6120    1.0390 c1        1 A07      0.029000
      7 C12        -0.0700    0.1160   -2.6640 c3        1 A07     -0.141000
      8 C13        -0.8650    0.2640   -3.9050 c1        1 A07      0.056000
      9 C14        -2.2120   -0.1130   -3.8140 c2        1 A07     -0.320000
     10 C15        -2.7950   -0.6460   -2.5890 c2        1 A07      0.038000
     11 C16        -2.0870   -0.7690   -1.4300 c2        1 A07     -0.207000
     12 C17        -0.7280   -0.3520   -1.3970 c2        1 A07      0.170000
     13 N20        -3.1640   -0.0600   -4.8360 n2        1 A07      0.240000
     14 N21        -4.2660   -0.5110   -4.4060 n3        1 A07     -0.192000
     15 C22        -4.2590   -0.9360   -2.9150 c3        1 A07      0.121000
     16 N23        -4.7100   -2.2610   -2.6550 n         1 A07     -0.378000
     17 C24        -6.0500   -2.5940   -2.9330 c2        1 A07      0.312000
     18 C25        -6.5230   -3.9790   -2.5710 c3        1 A07     -0.178000
     19 C26        -5.7720   -5.0620   -3.3180 c3        1 A07     -0.158000
     20 C29        -6.4020   -6.4110   -3.0730 c3        1 A07     -0.217000
     21 O35        -6.7790   -1.7210   -3.4320 o         1 A07     -0.338000
     22 H2          1.6960    0.7190   -0.8250 hc        1 A07      0.148000
     23 H3          2.1170   -0.8860   -0.0950 hc        1 A07      0.148000
     24 H4          2.5980    1.2540    1.3830 ha        1 A07      0.176000
     25 H5          0.9870    1.0830    3.3420 ha        1 A07      0.185000
     26 H6         -0.5630   -1.0100    3.1910 ha        1 A07      0.210000
     27 H13         0.4020    1.1310   -2.4790 h1        1 A07      0.191000
     28 H16        -2.5520   -1.1600   -0.5090 ha        1 A07      0.174000
     29 HN23       -4.0340   -2.9880   -2.5960 hn        1 A07      0.248000
     30 H25        -6.4180   -4.1260   -1.4630 hc        1 A07      0.135000
     31 H25A       -7.6190   -4.0320   -2.8210 hc        1 A07      0.135000
     32 H26        -4.7000   -5.0900   -2.9870 hc        1 A07      0.083000
     33 H26A       -5.7800   -4.8400   -4.4180 hc        1 A07      0.083000
     34 H29        -7.4580   -6.4260   -3.4370 hc        1 A07      0.089333
     35 H29A       -5.8310   -7.2030   -3.6160 hc        1 A07      0.089333
     36 H29B       -6.4010   -6.6570   -1.9840 hc        1 A07      0.089333
     37 HN20       -5.1000   -0.5460   -4.9710 hn        1 A07      0.325000
     38 H232       -4.9550   -0.1920   -2.4070 h2        1 A07      0.193000
     39 CL1         1.2470   -0.9850   -3.0780 cl        1 A07      0.010000
@<TRIPOS>BOND
     1    1    2 1   
     2    1    6 1   
     3    1   12 1   
     4    2    3 1   
     5    2   22 1   
     6    2   23 1   
     7    3    4 1   
     8    3   24 1   
     9    4    5 1   
    10    4   25 1   
    11    5    6 1   
    12    5   26 1   
    13    7    8 1   
    14    7   12 1   
    15    7   27 1   
    16    7   39 1   
    17    8    9 1   
    18    9   10 1   
    19    9   13 1   
    20   10   11 1   
    21   10   15 1   
    22   11   12 1   
    23   11   28 1   
    24   13   14 1   
    25   14   15 1   
    26   14   37 1   
    27   15   16 1   
    28   15   38 1   
    29   16   17 1   
    30   16   29 1   
    31   17   18 1   
    32   17   21 1   
    33   18   19 1   
    34   18   30 1   
    35   18   31 1   
    36   19   20 1   
    37   19   32 1   
    38   19   33 1   
    39   20   34 1   
    40   20   35 1   
    41   20   36 1   
@<TRIPOS>SUBSTRUCTURE
     1 A07         1 TEMP              0 ****  ****    0 ROOT
