@<TRIPOS>MOLECULE
A07
   38    40     1     0     0
SMALL
bcc


@<TRIPOS>ATOM
      1 C1         -2.7870    0.9990    0.0220 cp        1 A07     -0.044000
      2 C2         -3.7190    1.1440   -1.0130 ca        1 A07     -0.110500
      3 C3         -4.5950    2.2290   -1.0190 ca        1 A07     -0.132500
      4 C4         -4.5490    3.1740    0.0060 ca        1 A07     -0.123000
      5 C5         -3.6220    3.0340    1.0380 ca        1 A07     -0.132500
      6 C6         -2.7410    1.9540    1.0470 ca        1 A07     -0.110500
      7 C12        -2.2810   -1.4650    0.1100 ca        1 A07      0.063400
      8 C13        -1.3960   -2.5410    0.1100 ca        1 A07     -0.141000
      9 C14        -0.0290   -2.2500    0.0330 ca        1 A07     -0.037200
     10 C15         0.4320   -0.8880   -0.0390 ca        1 A07     -0.233900
     11 C16        -0.4750    0.1610   -0.0440 ca        1 A07     -0.047000
     12 C17        -1.8420   -0.1210    0.0280 cp        1 A07     -0.062000
     13 N20         1.1110   -3.0700   -0.0700 na        1 A07     -0.004100
     14 N21         2.2460   -2.3410   -0.0800 nc        1 A07     -0.514100
     15 C22         1.9040   -1.0200   -0.1050 cd        1 A07      0.423500
     16 N23         2.7530    0.0760   -0.2040 n         1 A07     -0.475400
     17 C24         4.1300    0.0750    0.0340 c         1 A07      0.663100
     18 C25         4.8290    1.3970   -0.2390 c3        1 A07     -0.152400
     19 C26         6.3060    1.3000    0.0830 c3        1 A07     -0.076400
     20 C29         7.0070    2.6040   -0.1910 c3        1 A07     -0.095100
     21 O35         4.7290   -0.9260    0.4490 o         1 A07     -0.545100
     22 H2         -3.7600    0.3980   -1.8210 ha        1 A07      0.137500
     23 H3         -5.3250    2.3370   -1.8350 ha        1 A07      0.133500
     24 H4         -5.2430    4.0270    0.0000 ha        1 A07      0.133000
     25 H5         -3.5850    3.7760    1.8490 ha        1 A07      0.133500
     26 H6         -2.0120    1.8430    1.8630 ha        1 A07      0.137500
     27 H13        -1.7560   -3.5780    0.1680 ha        1 A07      0.158000
     28 H16        -0.1330    1.2050   -0.1060 ha        1 A07      0.141000
     29 HN23        2.3150    0.9220   -0.4870 hn        1 A07      0.324500
     30 H25         4.6940    1.6680   -1.3190 hc        1 A07      0.063700
     31 H25A        4.3580    2.2040    0.3820 hc        1 A07      0.063700
     32 H26         6.4320    1.0120    1.1600 hc        1 A07      0.060700
     33 H26A        6.7650    0.4770   -0.5270 hc        1 A07      0.060700
     34 H29         8.0930    2.5130    0.0520 hc        1 A07      0.035700
     35 H29A        6.9100    2.8890   -1.2670 hc        1 A07      0.035700
     36 H29B        6.5750    3.4260    0.4290 hc        1 A07      0.035700
     37 HN20        1.1640   -3.9840    0.3240 hn        1 A07      0.313700
     38 CL1        -3.9420   -1.8170    0.2340 cl        1 A07     -0.080400
@<TRIPOS>BOND
     1    1    2 ar  
     2    1    6 ar  
     3    1   12 1   
     4    2    3 ar  
     5    2   22 1   
     6    3    4 ar  
     7    3   23 1   
     8    4    5 ar  
     9    4   24 1   
    10    5    6 ar  
    11    5   25 1   
    12    6   26 1   
    13    7    8 ar  
    14    7   12 ar  
    15    7   38 1   
    16    8    9 ar  
    17    8   27 1   
    18    9   10 ar  
    19    9   13 1   
    20   10   11 ar  
    21   10   15 1   
    22   11   12 ar  
    23   11   28 1   
    24   13   14 1   
    25   13   37 1   
    26   14   15 2   
    27   15   16 1   
    28   16   17 1   
    29   16   29 1   
    30   17   18 1   
    31   17   21 2   
    32   18   19 1   
    33   18   30 1   
    34   18   31 1   
    35   19   20 1   
    36   19   32 1   
    37   19   33 1   
    38   20   34 1   
    39   20   35 1   
    40   20   36 1   
@<TRIPOS>SUBSTRUCTURE
     1 A07         1 TEMP              0 ****  ****    0 ROOT
