@<TRIPOS>MOLECULE
A07
   38    40     1     0     0
SMALL
bcc


@<TRIPOS>ATOM
      1 C1         -0.1470   -0.0380   -0.1800 c2        1 A07     -0.016000
      2 C2          0.5350   -1.1920    0.5100 c3        1 A07     -0.104000
      3 C3          1.5640   -0.6560    1.4740 c2        1 A07     -0.152000
      4 C4          1.5060    0.5810    2.0150 c2        1 A07     -0.146000
      5 C5          0.2700    1.3490    1.7860 c2        1 A07     -0.070000
      6 C6         -0.3100    0.9960    0.6440 c1        1 A07     -0.207000
      7 C12        -0.5850    1.3340   -2.2230 c3        1 A07     -0.138000
      8 C13        -1.4110    1.4710   -3.4210 c1        1 A07      0.068000
      9 C14        -2.5860    0.6660   -3.4680 c2        1 A07     -0.145000
     10 C15        -2.5260   -0.6540   -2.7960 c2        1 A07     -0.281000
     11 C16        -1.5870   -1.0080   -1.8590 c1        1 A07     -0.083000
     12 C17        -0.4480   -0.0990   -1.6320 c3        1 A07     -0.070000
     13 N20        -3.7360    0.7810   -4.1750 n2        1 A07      0.016000
     14 N21        -4.4030   -0.3740   -4.0340 na        1 A07     -0.164000
     15 C22        -3.7330   -1.3060   -3.2280 c2        1 A07      0.209000
     16 N23        -4.1310   -2.5820   -2.9030 ns        1 A07     -0.307000
     17 C24        -5.3020   -3.2100   -3.3510 c2        1 A07      0.315000
     18 C25        -5.5330   -4.6190   -2.8500 c3        1 A07     -0.176000
     19 C26        -6.8260   -5.1830   -3.4010 c3        1 A07     -0.155000
     20 C29        -7.0550   -6.5860   -2.9040 c3        1 A07     -0.215000
     21 O35        -6.0780   -2.6130   -4.1160 o         1 A07     -0.343000
     22 H2          1.0380   -1.8210   -0.2710 hc        1 A07      0.117000
     23 H3         -0.1820   -1.8520    1.0660 hc        1 A07      0.117000
     24 H4          2.3680   -1.3600    1.7320 ha        1 A07      0.132000
     25 H5          2.2710    0.9840    2.6880 ha        1 A07      0.139000
     26 H6         -0.1230    2.0150    2.5580 ha        1 A07      0.154000
     27 H13        -1.0150    2.0150   -1.4260 h1        1 A07      0.178000
     28 H16         0.4250   -0.6020   -2.1600 hc        1 A07      0.158000
     29 HN23       -3.5210   -3.0540   -2.2640 hn        1 A07      0.280000
     30 H25        -5.5690   -4.6090   -1.7270 hc        1 A07      0.117000
     31 H25A       -4.6700   -5.2660   -3.1620 hc        1 A07      0.117000
     32 H26        -7.6800   -4.5210   -3.0980 hc        1 A07      0.100500
     33 H26A       -6.7880   -5.1720   -4.5230 hc        1 A07      0.100500
     34 H29        -6.2240   -7.2620   -3.2210 hc        1 A07      0.079000
     35 H29A       -7.1200   -6.6080   -1.7890 hc        1 A07      0.079000
     36 H29B       -8.0120   -6.9860   -3.3200 hc        1 A07      0.079000
     37 HN20       -5.2850   -0.5190   -4.4890 hn        1 A07      0.309000
     38 Cl1         1.0260    1.9940   -2.5530 cl        1 A07     -0.092000
@<TRIPOS>BOND
     1    1    2 1   
     2    1    6 1   
     3    1   12 1   
     4    2    3 1   
     5    2   22 1   
     6    2   23 1   
     7    3    4 1   
     8    3   24 1   
     9    4    5 1   
    10    4   25 1   
    11    5    6 1   
    12    5   26 1   
    13    7    8 1   
    14    7   12 1   
    15    7   27 1   
    16    7   38 1   
    17    8    9 1   
    18    9   10 1   
    19    9   13 1   
    20   10   11 1   
    21   10   15 1   
    22   11   12 1   
    23   12   28 1   
    24   13   14 1   
    25   14   15 1   
    26   14   37 1   
    27   15   16 1   
    28   16   17 1   
    29   16   29 1   
    30   17   18 1   
    31   17   21 1   
    32   18   19 1   
    33   18   30 1   
    34   18   31 1   
    35   19   20 1   
    36   19   32 1   
    37   19   33 1   
    38   20   34 1   
    39   20   35 1   
    40   20   36 1   
@<TRIPOS>SUBSTRUCTURE
     1 A07         1 TEMP              0 ****  ****    0 ROOT
