@<TRIPOS>MOLECULE
A08
   25    26     1     0     0
SMALL
bcc


@<TRIPOS>ATOM
      1 Cl1         0.0290   -0.1520    0.0920 cl        1 A08     -0.087400
      2 C1          1.7230   -0.0670   -0.0090 ca        1 A08      0.024400
      3 C2          2.5070   -0.5810    1.0300 ca        1 A08     -0.124000
      4 C3          3.8950   -0.5080    0.9450 ca        1 A08     -0.103500
      5 C4          4.5060    0.0750   -0.1730 ca        1 A08     -0.092300
      6 C5          3.7140    0.5820   -1.2070 ca        1 A08     -0.103500
      7 C6          2.3240    0.5150   -1.1280 ca        1 A08     -0.124000
      8 C7          6.0050    0.1340   -0.2220 c3        1 A08      0.000400
      9 C8          6.5610   -1.1980   -0.6980 ca        1 A08      0.419600
     10 C9          6.7090   -1.4460   -2.0780 ca        1 A08     -0.228300
     11 C10         7.2060   -2.6830   -2.4890 ca        1 A08     -0.081000
     12 C11         7.5380   -3.6390   -1.5290 ca        1 A08     -0.228300
     13 C12         7.3540   -3.3020   -0.1710 ca        1 A08      0.495300
     14 N14         6.8780   -2.1110    0.2520 nb        1 A08     -0.656000
     15 Cl2         7.7600   -4.4730    1.0110 cl        1 A08     -0.145000
     16 C16         6.4940    1.2160   -1.0630 c1        1 A08      0.213700
     17 N17         6.9020    2.0950   -1.7050 n1        1 A08     -0.358800
     18 H1          2.0330   -1.0420    1.9100 ha        1 A08      0.151500
     19 H2          4.5160   -0.9180    1.7580 ha        1 A08      0.148000
     20 H3          4.1820    1.0410   -2.0920 ha        1 A08      0.148000
     21 H4          1.7070    0.9200   -1.9450 ha        1 A08      0.151500
     22 H5          6.3840    0.3440    0.8290 hc        1 A08      0.114700
     23 H6          6.4360   -0.6760   -2.8130 ha        1 A08      0.156000
     24 H7          7.3340   -2.9040   -3.5590 ha        1 A08      0.149000
     25 H8          7.9320   -4.6240   -1.8150 ha        1 A08      0.161000
@<TRIPOS>BOND
     1    1    2 1   
     2    2    3 ar  
     3    2    7 ar  
     4    3    4 ar  
     5    3   18 1   
     6    4    5 ar  
     7    4   19 1   
     8    5    6 ar  
     9    5    8 1   
    10    6    7 ar  
    11    6   20 1   
    12    7   21 1   
    13    8    9 1   
    14    8   16 1   
    15    8   22 1   
    16    9   10 ar  
    17    9   14 ar  
    18   10   11 ar  
    19   10   23 1   
    20   11   12 ar  
    21   11   24 1   
    22   12   13 ar  
    23   12   25 1   
    24   13   14 ar  
    25   13   15 1   
    26   16   17 3   
@<TRIPOS>SUBSTRUCTURE
     1 A08         1 TEMP              0 ****  ****    0 ROOT
