@<TRIPOS>MOLECULE
A08
   25    26     1     0     0
SMALL
bcc


@<TRIPOS>ATOM
      1 CL1         0.0130    0.0350    0.0970 cl        1 A08     -0.087400
      2 C1          1.7080    0.0760   -0.0090 ca        1 A08      0.024400
      3 C2          2.4810   -0.4930    1.0080 ca        1 A08     -0.124000
      4 C3          3.8700   -0.4550    0.9190 ca        1 A08     -0.103500
      5 C4          4.4930    0.1470   -0.1820 ca        1 A08     -0.092300
      6 C5          3.7110    0.7100   -1.1950 ca        1 A08     -0.103500
      7 C6          2.3200    0.6790   -1.1120 ca        1 A08     -0.124000
      8 C7          5.9930    0.1660   -0.2360 c3        1 A08      0.000400
      9 C8          6.5090   -1.1650   -0.7570 ca        1 A08      0.419600
     10 C9          6.6450   -1.3730   -2.1450 ca        1 A08     -0.228300
     11 C10         7.1060   -2.6100   -2.5970 ca        1 A08     -0.081000
     12 C11         7.4150   -3.6040   -1.6710 ca        1 A08     -0.228300
     13 C12         7.2450   -3.3060   -0.3010 ca        1 A08      0.495300
     14 N14         6.8040   -2.1160    0.1620 nb        1 A08     -0.656000
     15 CL2         7.6230   -4.5250    0.8410 cl        1 A08     -0.145000
     16 C16         6.5080    1.2600   -1.0450 c1        1 A08      0.213700
     17 N17         6.9380    2.1470   -1.6600 n1        1 A08     -0.358800
     18 H1          1.9980   -0.9700    1.8750 ha        1 A08      0.151500
     19 H2          4.4830   -0.9090    1.7150 ha        1 A08      0.148000
     20 H3          4.1880    1.1850   -2.0660 ha        1 A08      0.148000
     21 H4          1.7110    1.1270   -1.9110 ha        1 A08      0.151500
     22 H5          6.3810    0.3320    0.8190 hc        1 A08      0.114700
     23 H6          6.3910   -0.5720   -2.8540 ha        1 A08      0.156000
     24 H7          7.2240   -2.7990   -3.6750 ha        1 A08      0.149000
     25 H8          7.7800   -4.5900   -1.9890 ha        1 A08      0.161000
@<TRIPOS>BOND
     1    1    2 1   
     2    2    3 ar  
     3    2    7 ar  
     4    3    4 ar  
     5    3   18 1   
     6    4    5 ar  
     7    4   19 1   
     8    5    6 ar  
     9    5    8 1   
    10    6    7 ar  
    11    6   20 1   
    12    7   21 1   
    13    8    9 1   
    14    8   16 1   
    15    8   22 1   
    16    9   10 ar  
    17    9   14 ar  
    18   10   11 ar  
    19   10   23 1   
    20   11   12 ar  
    21   11   24 1   
    22   12   13 ar  
    23   12   25 1   
    24   13   14 ar  
    25   13   15 1   
    26   16   17 3   
@<TRIPOS>SUBSTRUCTURE
     1 A08         1 TEMP              0 ****  ****    0 ROOT
