@<TRIPOS>MOLECULE
A09
   19    18     1     0     0
SMALL
bcc


@<TRIPOS>ATOM
      1 C1          0.0070    0.2370   -0.0170 ca        1 A09     -0.596500
      2 N1         -1.2880   -1.7930   -2.1170 n3        1 A09     -0.765300
      3 O1         -1.9780    0.8010   -1.4240 o         1 A09     -0.429400
      4 S1         -0.6690    0.4440   -1.4060 s4        1 A09      1.684300
      5 C2          1.4060    0.0220    0.1000 ca        1 A09      0.038000
      6 O2          0.1380    0.5550   -2.4910 o         1 A09     -0.429400
      7 C3          2.0100   -0.1370    1.3350 ca        1 A09     -0.153000
      8 O3         -0.8730   -2.5630   -1.1160 oh        1 A09     -0.396300
      9 C4          1.2390   -0.0930    2.5040 ca        1 A09      0.031000
     10 C5         -0.1430    0.1140    2.4210 ca        1 A09     -0.153000
     11 C6         -0.7480    0.2730    1.1860 ca        1 A09      0.038000
     12 HN1        -0.8280   -2.0330   -2.9940 hn        1 A09      0.405800
     13 H2          2.0220   -0.0120   -0.8200 ha        1 A09      0.173000
     14 H3          3.1000   -0.2980    1.4000 ha        1 A09      0.181000
     15 HO3        -1.0720   -3.5060   -1.2930 ho        1 A09      0.436000
     16 H4          1.7220   -0.2210    3.4900 ha        1 A09      0.177000
     17 H5         -0.7510    0.1510    3.3420 ha        1 A09      0.181000
     18 H6         -1.8410    0.4380    1.1270 ha        1 A09      0.173000
     19 H12        -2.2950   -1.8620   -2.2550 hn        1 A09      0.405800
@<TRIPOS>BOND
     1    1    4 1   
     2    1    5 ar  
     3    1   11 ar  
     4    2    8 1   
     5    2   12 1   
     6    2   19 1   
     7    3    4 1   
     8    4    6 1   
     9    5    7 ar  
    10    5   13 1   
    11    7    9 ar  
    12    7   14 1   
    13    8   15 1   
    14    9   10 ar  
    15    9   16 1   
    16   10   11 ar  
    17   10   17 1   
    18   11   18 1   
@<TRIPOS>SUBSTRUCTURE
     1 A09         1 TEMP              0 ****  ****    0 ROOT
