@<TRIPOS>MOLECULE
A09
   18    15     1     0     0
SMALL
bcc


@<TRIPOS>ATOM
      1 C1         -0.0310    0.2110    0.0980 c1        1 A09     -0.446200
      2 N1         -1.1510   -0.9140   -2.2430 n3        1 A09     -0.683600
      3 O1         -2.2250    1.1170   -1.1210 o         1 A09     -0.640800
      4 S1         -0.9580    0.5030   -1.4020 s6        1 A09      1.552900
      5 C2          1.3540    0.2410    0.0960 c1        1 A09      0.055500
      6 O2         -0.3330    1.5100   -2.2140 o         1 A09     -0.640800
      7 C3          2.0520    0.2160    1.2990 c1        1 A09     -0.040500
      8 O3         -0.9760   -0.9320   -3.6070 oh        1 A09     -0.344300
      9 C4          1.3610    0.1620    2.5000 c1        1 A09     -0.040500
     10 C5         -0.0280    0.1320    2.5020 c1        1 A09     -0.040500
     11 C6         -0.7240    0.1570    1.3020 c1        1 A09     -0.040500
     12 HN1        -1.4240   -1.6740   -1.8050 hn        1 A09      0.448800
     13 H2          1.8470    0.2800   -0.7620 ha        1 A09      0.093500
     14 H3          3.0440    0.2370    1.2970 ha        1 A09      0.088500
     15 HO3        -1.4300   -1.6190   -3.9570 ho        1 A09      0.414000
     16 H4          1.8570    0.1440    3.3550 ha        1 A09      0.088500
     17 H5         -0.5200    0.0930    3.3570 ha        1 A09      0.088500
     18 H6         -1.7170    0.1360    1.3030 ha        1 A09      0.088500
@<TRIPOS>BOND
     1    1    4 1   
     2    1    5 3   
     3    2    4 1   
     4    2    8 1   
     5    2   12 1   
     6    3    4 2   
     7    4    6 2   
     8    5   13 1   
     9    7    9 3   
    10    7   14 1   
    11    8   15 1   
    12    9   16 1   
    13   10   11 3   
    14   10   17 1   
    15   11   18 1   
@<TRIPOS>SUBSTRUCTURE
     1 A09         1 TEMP              0 ****  ****    0 ROOT
