@<TRIPOS>MOLECULE
A09
   19    18     1     0     0
SMALL
bcc


@<TRIPOS>ATOM
      1 C1          0.0070    0.2370   -0.0170 ca        1 A09     -0.596500
      2 N1         -1.2440   -1.7970   -2.1390 n8        1 A09     -0.765300
      3 O1         -1.9520    0.7970   -1.4620 o         1 A09     -0.429400
      4 S1         -0.6430    0.4410   -1.4190 s4        1 A09      1.684300
      5 C2          1.4050    0.0250    0.1270 ca        1 A09      0.038000
      6 O2          0.1850    0.5530   -2.4880 o         1 A09     -0.429400
      7 C3          1.9850   -0.1320    1.3740 ca        1 A09     -0.153000
      8 O3         -0.8480   -2.5650   -1.1280 oh        1 A09     -0.396300
      9 C4          1.1920   -0.0880    2.5270 ca        1 A09      0.031000
     10 C5         -0.1890    0.1160    2.4180 ca        1 A09     -0.153000
     11 C6         -0.7710    0.2730    1.1710 ca        1 A09      0.038000
     12 HN1        -0.7660   -2.0380   -3.0060 hn        1 A09      0.405800
     13 H2          2.0370   -0.0090   -0.7810 ha        1 A09      0.173000
     14 H3          3.0740   -0.2900    1.4600 ha        1 A09      0.181000
     15 HO3        -1.0430   -3.5090   -1.3080 ho        1 A09      0.436000
     16 H4          1.6550   -0.2140    3.5220 ha        1 A09      0.177000
     17 H5         -0.8140    0.1520    3.3270 ha        1 A09      0.181000
     18 H6         -1.8630    0.4350    1.0920 ha        1 A09      0.173000
     19 H12        -2.2480   -1.8670   -2.2970 hn        1 A09      0.405800
@<TRIPOS>BOND
     1    1    4 1   
     2    1    5 ar  
     3    1   11 ar  
     4    2    8 1   
     5    2   12 1   
     6    2   19 1   
     7    3    4 1   
     8    4    6 1   
     9    5    7 ar  
    10    5   13 1   
    11    7    9 ar  
    12    7   14 1   
    13    8   15 1   
    14    9   10 ar  
    15    9   16 1   
    16   10   11 ar  
    17   10   17 1   
    18   11   18 1   
@<TRIPOS>SUBSTRUCTURE
     1 A09         1 TEMP              0 ****  ****    0 ROOT
