@<TRIPOS>MOLECULE
A09
   18    18     1     0     0
SMALL
bcc


@<TRIPOS>ATOM
      1 C1          0.4400    0.1310    0.1220 ca        1 A09     -0.388500
      2 N1         -1.8750   -0.2890   -0.9760 n3        1 A09     -0.697600
      3 O1         -1.6090   -0.1800    1.5450 o         1 A09     -0.643300
      4 S1         -1.1970    0.4270    0.3520 sy        1 A09      1.515200
      5 C2          1.2190    0.9960   -0.6590 ca        1 A09     -0.011500
      6 O2         -1.4580    1.8060    0.2140 o         1 A09     -0.643300
      7 C3          2.5830    0.7730   -0.8260 ca        1 A09     -0.159000
      8 O3         -1.9610   -1.6040   -1.0410 oh        1 A09     -0.329300
      9 C4          3.1880   -0.3240   -0.2090 ca        1 A09     -0.062000
     10 C5          2.4270   -1.1900    0.5760 ca        1 A09     -0.159000
     11 C6          1.0630   -0.9620    0.7390 ca        1 A09     -0.011500
     12 HN1        -2.5380    0.1820   -1.5590 hn        1 A09      0.447800
     13 H2          0.7420    1.8730   -1.1310 ha        1 A09      0.157000
     14 H3          3.1820    1.4620   -1.4390 ha        1 A09      0.143500
     15 HO3        -1.3800   -1.8910   -1.7770 ho        1 A09      0.401000
     16 H4          4.2670   -0.5020   -0.3400 ha        1 A09      0.139000
     17 H5          2.9030   -2.0510    1.0690 ha        1 A09      0.143500
     18 H6          0.4610   -1.6380    1.3720 ha        1 A09      0.157000
@<TRIPOS>BOND
     1    1    4 1   
     2    1    5 ar  
     3    1   11 ar  
     4    2    4 1   
     5    2    8 1   
     6    2   12 1   
     7    3    4 2   
     8    4    6 2   
     9    5    7 ar  
    10    5   13 1   
    11    7    9 ar  
    12    7   14 1   
    13    8   15 1   
    14    9   10 ar  
    15    9   16 1   
    16   10   11 ar  
    17   10   17 1   
    18   11   18 1   
@<TRIPOS>SUBSTRUCTURE
     1 A09         1 TEMP              0 ****  ****    0 ROOT
