@<TRIPOS>MOLECULE
A09
   19    18     1     0     0
SMALL
bcc


@<TRIPOS>ATOM
      1 C1          0.0080    0.2370   -0.0190 ca        1 A09     -0.596500
      2 N1         -1.2590   -1.8000   -2.1290 n3        1 A09     -0.765300
      3 O1         -1.9580    0.7970   -1.4540 o         1 A09     -0.429400
      4 S1         -0.6490    0.4390   -1.4170 s4        1 A09      1.684300
      5 C2          1.4060    0.0220    0.1170 ca        1 A09      0.038000
      6 O2          0.1720    0.5460   -2.4920 o         1 A09     -0.429400
      7 C3          1.9930   -0.1320    1.3610 ca        1 A09     -0.153000
      8 O3         -0.8610   -2.5660   -1.1180 oh        1 A09     -0.396300
      9 C4          1.2070   -0.0850    2.5190 ca        1 A09      0.031000
     10 C5         -0.1740    0.1210    2.4170 ca        1 A09     -0.153000
     11 C6         -0.7630    0.2760    1.1740 ca        1 A09      0.038000
     12 HN1        -0.7860   -2.0440   -2.9980 hn        1 A09      0.405800
     13 H2          2.0340   -0.0150   -0.7940 ha        1 A09      0.173000
     14 H3          3.0820   -0.2930    1.4410 ha        1 A09      0.181000
     15 HO3        -1.0590   -3.5100   -1.2940 ho        1 A09      0.436000
     16 H4          1.6760   -0.2100    3.5120 ha        1 A09      0.177000
     17 H5         -0.7940    0.1610    3.3300 ha        1 A09      0.181000
     18 H6         -1.8550    0.4410    1.1000 ha        1 A09      0.173000
     19 H12        -2.2640   -1.8680   -2.2820 hn        1 A09      0.405800
@<TRIPOS>BOND
     1    1    4 1   
     2    1    5 ar  
     3    1   11 ar  
     4    2    8 1   
     5    2   12 1   
     6    2   19 1   
     7    3    4 1   
     8    4    6 1   
     9    5    7 ar  
    10    5   13 1   
    11    7    9 ar  
    12    7   14 1   
    13    8   15 1   
    14    9   10 ar  
    15    9   16 1   
    16   10   11 ar  
    17   10   17 1   
    18   11   18 1   
@<TRIPOS>SUBSTRUCTURE
     1 A09         1 TEMP              0 ****  ****    0 ROOT
