@<TRIPOS>MOLECULE
A0A
   18    17     1     0     0
SMALL
bcc


@<TRIPOS>ATOM
      1 N          -0.0220    0.0130   -0.1550 n4        1 A0A     -0.820600
      2 CA          1.4580   -0.0010    0.0160 c3        1 A0A     -0.089500
      3 C           2.0560   -1.3410   -0.6780 c         1 A0A      0.945600
      4 O           3.2130   -1.6240   -0.3390 o         1 A0A     -0.746800
      5 CB          1.9060    0.0650    1.4600 c3        1 A0A     -0.141400
      6 CG          1.3570    1.2630    2.1670 c         1 A0A      0.653100
      7 OD1         0.3150    1.8820    1.9110 o         1 A0A     -0.599000
      8 OD2         2.1140    1.6740    3.2260 os        1 A0A     -0.462200
      9 CM1         1.7190    2.7870    3.9780 c         1 A0A      0.637900
     10 OM2         2.4880    3.0010    4.9000 o         1 A0A     -0.436000
     11 OXT         1.2570   -1.8900   -1.4740 o         1 A0A     -0.746800
     12 HN1        -0.3880    0.9650   -0.1360 hn        1 A0A      0.451800
     13 HN2        -0.2120   -0.4590   -1.0620 hn        1 A0A      0.451800
     14 HA          1.8740    0.8650   -0.5680 hx        1 A0A      0.097700
     15 HBC1        3.0350    0.0780    1.4610 hc        1 A0A      0.132200
     16 HBC2        1.6020   -0.8550    2.0300 hc        1 A0A      0.132200
     17 HM1         0.8050    3.3190    3.6650 h5        1 A0A      0.090200
     18 HN3        -0.4610   -0.5270    0.5890 hn        1 A0A      0.451800
@<TRIPOS>BOND
     1    1    2 1   
     2    1   12 1   
     3    1   13 1   
     4    1   18 1   
     5    2    3 1   
     6    2    5 1   
     7    2   14 1   
     8    3    4 1   
     9    3   11 1   
    10    5    6 1   
    11    5   15 1   
    12    5   16 1   
    13    6    7 2   
    14    6    8 1   
    15    8    9 1   
    16    9   10 2   
    17    9   17 1   
@<TRIPOS>SUBSTRUCTURE
     1 A0A         1 TEMP              0 ****  ****    0 ROOT
