@<TRIPOS>MOLECULE
A0A
   17    15     1     0     0
SMALL
bcc


@<TRIPOS>ATOM
      1 N           0.5160    1.2770   -2.1140 n3        1 A0A     -0.331000
      2 CA         -0.1210    0.4820   -1.1210 c3        1 A0A     -0.133000
      3 C          -1.6140    0.7090   -1.1750 c2        1 A0A      0.314000
      4 O          -2.0790    1.8720   -1.0450 o         1 A0A     -0.565500
      5 CB          0.3980    0.8690    0.2450 c3        1 A0A     -0.137000
      6 CG          0.1320   -0.2550    1.2230 c1        1 A0A      0.348000
      7 OD1        -0.7640   -0.1530    2.0370 o         1 A0A     -0.378000
      8 OD2         0.9300   -1.4110    1.1970 o         1 A0A     -0.309000
      9 CM1         0.7370   -2.2600    2.3010 c2        1 A0A      0.274000
     10 OM2        -0.0520   -3.1840    2.2270 o         1 A0A     -0.309000
     11 OXT        -2.3920   -0.2620   -1.3660 o         1 A0A     -0.565500
     12 HN1         1.4250    1.1930   -2.0350 hn        1 A0A      0.135000
     13 HN2         0.2540    0.9950   -2.9450 hn        1 A0A      0.135000
     14 HA          0.0710   -0.4620   -1.2870 h1        1 A0A      0.097000
     15 HBC1       -0.0570    1.6800    0.5490 hc        1 A0A      0.133000
     16 HBC2        1.3610    1.0350    0.1920 hc        1 A0A      0.133000
     17 HM1         1.2560   -2.1250    3.1180 h5        1 A0A      0.158000
@<TRIPOS>BOND
     1    1    2 1   
     2    1   12 1   
     3    1   13 1   
     4    2    3 1   
     5    2    5 1   
     6    2   14 1   
     7    3    4 1   
     8    3   11 1   
     9    5    6 1   
    10    5   15 1   
    11    5   16 1   
    12    6    7 1   
    13    8    9 1   
    14    9   10 1   
    15    9   17 1   
@<TRIPOS>SUBSTRUCTURE
     1 A0A         1 TEMP              0 ****  ****    0 ROOT
