@<TRIPOS>MOLECULE
A0A
   17    16     1     0     0
SMALL
bcc


@<TRIPOS>ATOM
      1 N          -0.9730    1.6240   -0.3820 n3        1 A0A     -0.898800
      2 CA         -1.0880    0.1810   -0.2250 c3        1 A0A      0.014500
      3 C          -2.5400   -0.3330    0.0770 c         1 A0A      0.894600
      4 O          -3.4950    0.4450   -0.1930 o         1 A0A     -0.830800
      5 CB         -0.1670   -0.3700    0.8660 c3        1 A0A     -0.108400
      6 CG          1.2380    0.0890    0.6900 c         1 A0A      0.677100
      7 OD1         1.9080    0.8900    1.3450 o         1 A0A     -0.567000
      8 OD2         1.9020   -0.5310   -0.3660 os        1 A0A     -0.473200
      9 CM1         3.0600    0.0340   -0.8480 c         1 A0A      0.645900
     10 OM2         3.6380   -0.6650   -1.6760 o         1 A0A     -0.514000
     11 OXT        -2.6550   -1.4930    0.5560 o         1 A0A     -0.830800
     12 HN1        -1.6810    1.9080   -1.0390 hn        1 A0A      0.339800
     13 HN2        -1.2050    2.0620    0.4930 hn        1 A0A      0.339800
     14 HA         -0.7810   -0.2800   -1.2090 h1        1 A0A      0.057700
     15 HBC1       -0.2230   -1.4910    0.8160 hc        1 A0A      0.093700
     16 HBC2       -0.5190   -0.0400    1.8780 hc        1 A0A      0.093700
     17 HM1         3.3460    1.0330   -0.4730 h5        1 A0A      0.065200
@<TRIPOS>BOND
     1    1    2 1   
     2    1   12 1   
     3    1   13 1   
     4    2    3 1   
     5    2    5 1   
     6    2   14 1   
     7    3    4 1   
     8    3   11 1   
     9    5    6 1   
    10    5   15 1   
    11    5   16 1   
    12    6    7 2   
    13    6    8 1   
    14    8    9 1   
    15    9   10 2   
    16    9   17 1   
@<TRIPOS>SUBSTRUCTURE
     1 A0A         1 TEMP              0 ****  ****    0 ROOT
