@<TRIPOS>MOLECULE
A0A
   18    17     1     0     0
SMALL
bcc


@<TRIPOS>ATOM
      1 N          -0.0110    0.0030   -0.1630 n4        1 A0A     -0.820600
      2 CA          1.4670   -0.0220    0.0270 c3        1 A0A     -0.089500
      3 C           2.0600   -1.3780   -0.6380 c         1 A0A      0.945600
      4 O           3.2110   -1.6650   -0.2810 o         1 A0A     -0.746800
      5 CB          1.8980    0.0650    1.4740 c3        1 A0A     -0.141400
      6 CG          1.3520    1.2800    2.1540 c         1 A0A      0.653100
      7 OD1         0.3200    1.9040    1.8750 o         1 A0A     -0.599000
      8 OD2         2.1000    1.7010    3.2160 os        1 A0A     -0.462200
      9 CM1         1.7070    2.8300    3.9430 c         1 A0A      0.637900
     10 OM2         2.4650    3.0510    4.8730 o         1 A0A     -0.436000
     11 OXT         1.2660   -1.9330   -1.4340 o         1 A0A     -0.746800
     12 HN1        -0.1950   -0.4830   -1.0630 hn        1 A0A      0.451800
     13 HN2        -0.4640   -0.5210    0.5850 hn        1 A0A      0.451800
     14 HA          1.8970    0.8310   -0.5670 hx        1 A0A      0.097700
     15 HBC1        1.5790   -0.8420    2.0560 hc        1 A0A      0.132200
     16 HBC2        3.0270    0.0680    1.4880 hc        1 A0A      0.132200
     17 HM1         0.8030    3.3670    3.6090 h5        1 A0A      0.090200
     18 HN3        -0.3690    0.9580   -0.1630 hn        1 A0A      0.451800
@<TRIPOS>BOND
     1    1    2 1   
     2    1   12 1   
     3    1   13 1   
     4    1   18 1   
     5    2    3 1   
     6    2    5 1   
     7    2   14 1   
     8    3    4 1   
     9    3   11 1   
    10    5    6 1   
    11    5   15 1   
    12    5   16 1   
    13    6    7 2   
    14    6    8 1   
    15    8    9 1   
    16    9   10 2   
    17    9   17 1   
@<TRIPOS>SUBSTRUCTURE
     1 A0A         1 TEMP              0 ****  ****    0 ROOT
