@<TRIPOS>MOLECULE
A0A
   18    17     1     0     0
SMALL
bcc


@<TRIPOS>ATOM
      1 N          -0.0160    0.0140   -0.1620 nz        1 A0A     -0.820600
      2 CA          1.4630   -0.0080    0.0200 c3        1 A0A     -0.089500
      3 C           2.0580   -1.3550   -0.6620 c         1 A0A      0.945600
      4 O           3.2120   -1.6420   -0.3140 o         1 A0A     -0.746800
      5 CB          1.9010    0.0640    1.4660 c3        1 A0A     -0.141400
      6 CG          1.3540    1.2680    2.1630 c         1 A0A      0.653100
      7 OD1         0.3180    1.8920    1.8960 o         1 A0A     -0.599000
      8 OD2         2.1060    1.6800    3.2260 os        1 A0A     -0.462200
      9 CM1         1.7120    2.8000    3.9680 c         1 A0A      0.637900
     10 OM2         2.4750    3.0140    4.8950 o         1 A0A     -0.436000
     11 OXT         1.2620   -1.9040   -1.4610 o         1 A0A     -0.746800
     12 HN1        -0.4630   -0.5200    0.5820 hn        1 A0A      0.451800
     13 HN2        -0.3770    0.9680   -0.1500 hn        1 A0A      0.451800
     14 HA          1.8880    0.8530   -0.5660 hx        1 A0A      0.097700
     15 HBC1        3.0300    0.0700    1.4750 hc        1 A0A      0.132200
     16 HBC2        1.5880   -0.8520    2.0390 hc        1 A0A      0.132200
     17 HM1         0.8040    3.3360    3.6450 h5        1 A0A      0.090200
     18 HN3        -0.2020   -0.4630   -1.0670 hn        1 A0A      0.451800
@<TRIPOS>BOND
     1    1    2 1   
     2    1   12 1   
     3    1   13 1   
     4    1   18 1   
     5    2    3 1   
     6    2    5 1   
     7    2   14 1   
     8    3    4 1   
     9    3   11 1   
    10    5    6 1   
    11    5   15 1   
    12    5   16 1   
    13    6    7 2   
    14    6    8 1   
    15    8    9 1   
    16    9   10 2   
    17    9   17 1   
@<TRIPOS>SUBSTRUCTURE
     1 A0A         1 TEMP              0 ****  ****    0 ROOT
