@<TRIPOS>MOLECULE
A0C
   31    32     1     0     0
SMALL
bcc


@<TRIPOS>ATOM
      1 O1         -0.0080    0.6580    0.1990 o         1 A0C     -0.377100
      2 C9          1.1400    0.3060   -0.0070 c         1 A0C      0.501600
      3 N3          1.9990    0.1290    1.2320 nz        1 A0C     -0.756400
      4 C8          1.8090    0.0330   -1.2660 cc        1 A0C      0.190800
      5 C7          1.2040    0.1960   -2.5800 cc        1 A0C     -0.271600
      6 N2          3.0920   -0.4110   -1.4120 nd        1 A0C     -0.307300
      7 O           3.3490   -0.5380   -2.6710 os        1 A0C     -0.041100
      8 C6          2.2130   -0.1720   -3.4590 cd        1 A0C      0.322000
      9 C5          2.3710   -0.2700   -4.9050 c3        1 A0C     -0.103600
     10 S           2.1770    1.3750   -5.5460 ss        1 A0C     -0.195400
     11 C4          2.3220    1.1760   -7.2630 ca        1 A0C      0.729300
     12 N           2.2000    2.3360   -7.9750 nb        1 A0C     -0.712500
     13 C3          2.3110    2.2250   -9.3230 ca        1 A0C      0.472600
     14 C10         2.1890    3.4510  -10.1670 c3        1 A0C     -0.160900
     15 C2          2.5380    0.9740   -9.9410 ca        1 A0C     -0.363600
     16 N1          2.5400   -0.0720   -7.7670 nb        1 A0C     -0.712500
     17 C1          2.6480   -0.1670   -9.1190 ca        1 A0C      0.472600
     18 C           2.8890   -1.5030   -9.7400 c3        1 A0C     -0.160900
     19 H31N        2.8120    0.7540    1.1830 hn        1 A0C      0.477133
     20 H32N        1.4520    0.3490    2.0740 hn        1 A0C      0.477133
     21 H7          0.1920    0.5370   -2.7950 ha        1 A0C      0.222000
     22 H51C        1.5950   -0.9640   -5.3290 h1        1 A0C      0.128700
     23 H52C        3.3750   -0.6960   -5.1730 h1        1 A0C      0.128700
     24 H101        2.9850    4.1900   -9.8960 hc        1 A0C      0.066367
     25 H102        2.2960    3.1880  -11.2480 hc        1 A0C      0.066367
     26 H103        1.1930    3.9360  -10.0100 hc        1 A0C      0.066367
     27 H2          2.6270    0.8930  -11.0320 ha        1 A0C      0.165000
     28 HC1         2.9350   -1.4080  -10.8520 hc        1 A0C      0.066367
     29 HC2         2.0670   -2.2130   -9.4740 hc        1 A0C      0.066367
     30 HC3         3.8560   -1.9330   -9.3770 hc        1 A0C      0.066367
     31 H33         2.3350   -0.8390    1.2890 hn        1 A0C      0.477133
@<TRIPOS>BOND
     1    1    2 2   
     2    2    3 1   
     3    2    4 1   
     4    3   19 1   
     5    3   20 1   
     6    3   31 1   
     7    4    5 1   
     8    4    6 2   
     9    5    8 2   
    10    5   21 1   
    11    6    7 1   
    12    7    8 1   
    13    8    9 1   
    14    9   10 1   
    15    9   22 1   
    16    9   23 1   
    17   10   11 1   
    18   11   12 ar  
    19   11   16 ar  
    20   12   13 ar  
    21   13   14 1   
    22   13   15 ar  
    23   14   24 1   
    24   14   25 1   
    25   14   26 1   
    26   15   17 ar  
    27   15   27 1   
    28   16   17 ar  
    29   17   18 1   
    30   18   28 1   
    31   18   29 1   
    32   18   30 1   
@<TRIPOS>SUBSTRUCTURE
     1 A0C         1 TEMP              0 ****  ****    0 ROOT
