@<TRIPOS>MOLECULE
A0D
   49    52     1     0     0
SMALL
bcc


@<TRIPOS>ATOM
      1 N1          0.0930    0.2190   -1.1310 ny        1 A0D     -0.688800
      2 C2         -0.6910   -1.0860   -1.0890 c         1 A0D      0.534100
      3 C3         -1.9120   -1.0700   -0.1520 c3        1 A0D      0.141500
      4 O4         -0.2750   -1.9590   -1.8270 o         1 A0D     -0.388100
      5 N5         -2.2710   -2.4360    0.1910 n3        1 A0D     -0.736600
      6 C6         -3.5880   -2.7390   -0.3710 c3        1 A0D      0.165800
      7 C7         -4.1280   -1.4990   -1.1000 c3        1 A0D     -0.098400
      8 C8         -3.0860   -0.4040   -0.9120 c3        1 A0D     -0.097400
      9 C9          2.3420    1.2930   -0.7580 c3        1 A0D     -0.077200
     10 C10         1.4130    0.1070   -0.4140 c3        1 A0D      0.126500
     11 C11         1.8030    2.5910   -0.1710 c3        1 A0D     -0.078650
     12 C12         1.6810    2.4670    1.3430 c3        1 A0D     -0.069200
     13 C13         3.0550    2.1710    1.9380 c3        1 A0D     -0.076400
     14 C14         3.5890    0.8640    1.3630 c3        1 A0D     -0.069200
     15 C15         2.6320   -0.2740    1.7030 c3        1 A0D     -0.078650
     16 C16         1.2500    0.0190    1.1170 c3        1 A0D     -0.077200
     17 C17         0.7270    1.3300    1.6920 c3        1 A0D     -0.078650
     18 C18         3.7110    0.9870   -0.1520 c3        1 A0D     -0.078650
     19 C19        -2.0760   -2.7880    1.5900 c3        1 A0D      0.179800
     20 C20        -2.1880   -4.2810    1.8530 c3        1 A0D     -0.099100
     21 HN1         0.2890    0.4630   -2.1090 hn        1 A0D      0.449800
     22 H3         -1.6320   -0.4660    0.7620 h1        1 A0D      0.077700
     23 H6         -3.4520   -3.5950   -1.0890 h1        1 A0D      0.073200
     24 H6A        -4.3070   -3.0660    0.4300 h1        1 A0D      0.073200
     25 H7         -4.2820   -1.7230   -2.1850 hc        1 A0D      0.075200
     26 H7A        -5.1140   -1.1890   -0.6730 hc        1 A0D      0.075200
     27 H8         -2.7610    0.0150   -1.8950 hc        1 A0D      0.063200
     28 H8A        -3.4940    0.4360   -0.2950 hc        1 A0D      0.063200
     29 H9          2.4480    1.3890   -1.8730 hc        1 A0D      0.063200
     30 H10         1.8850   -0.8510   -0.7920 hx        1 A0D      0.113700
     31 H11         0.8110    2.8530   -0.6210 hc        1 A0D      0.059575
     32 H11A        2.5100    3.4260   -0.4230 hc        1 A0D      0.059575
     33 H12         1.2870    3.4300    1.7670 hc        1 A0D      0.081700
     34 H13         3.7600    3.0090    1.7000 hc        1 A0D      0.063700
     35 H13A        2.9770    2.0940    3.0530 hc        1 A0D      0.063700
     36 H14         4.5990    0.6440    1.8010 hc        1 A0D      0.081700
     37 H15         3.0240   -1.2420    1.2990 hc        1 A0D      0.059575
     38 H15A        2.5420   -0.3760    2.8160 hc        1 A0D      0.059575
     39 H16         0.5520   -0.8220    1.3790 hc        1 A0D      0.063200
     40 H17        -0.3020    1.5560    1.3130 hc        1 A0D      0.059575
     41 H17A        0.6520    1.2350    2.8080 hc        1 A0D      0.059575
     42 H18         4.4180    1.8170   -0.4120 hc        1 A0D      0.059575
     43 H18A        4.1210    0.0380   -0.5850 hc        1 A0D      0.059575
     44 H19        -1.0400   -2.4500    1.8830 h1        1 A0D      0.034200
     45 H19A       -2.8130   -2.2450    2.2530 h1        1 A0D      0.034200
     46 H20        -1.9810   -4.4640    2.9350 hc        1 A0D      0.055700
     47 H20A       -1.4490   -4.8550    1.2440 hc        1 A0D      0.055700
     48 H20B       -3.2110   -4.6590    1.6170 hc        1 A0D      0.055700
     49 H121       -0.4570    0.9720   -0.7090 hn        1 A0D      0.449800
@<TRIPOS>BOND
     1    1    2 1   
     2    1   10 1   
     3    1   21 1   
     4    1   49 1   
     5    2    3 1   
     6    2    4 2   
     7    3    5 1   
     8    3    8 1   
     9    3   22 1   
    10    5    6 1   
    11    5   19 1   
    12    6    7 1   
    13    6   23 1   
    14    6   24 1   
    15    7    8 1   
    16    7   25 1   
    17    7   26 1   
    18    8   27 1   
    19    8   28 1   
    20    9   10 1   
    21    9   11 1   
    22    9   18 1   
    23    9   29 1   
    24   10   16 1   
    25   10   30 1   
    26   11   12 1   
    27   11   31 1   
    28   11   32 1   
    29   12   13 1   
    30   12   17 1   
    31   12   33 1   
    32   13   14 1   
    33   13   34 1   
    34   13   35 1   
    35   14   15 1   
    36   14   18 1   
    37   14   36 1   
    38   15   16 1   
    39   15   37 1   
    40   15   38 1   
    41   16   17 1   
    42   16   39 1   
    43   17   40 1   
    44   17   41 1   
    45   18   42 1   
    46   18   43 1   
    47   19   20 1   
    48   19   44 1   
    49   19   45 1   
    50   20   46 1   
    51   20   47 1   
    52   20   48 1   
@<TRIPOS>SUBSTRUCTURE
     1 A0D         1 TEMP              0 ****  ****    0 ROOT
