@<TRIPOS>MOLECULE
A0D
   48    51     1     0     0
SMALL
bcc


@<TRIPOS>ATOM
      1 N1          0.0340   -0.2520    0.4920 n         1 A0D     -0.566900
      2 C2         -1.1740   -0.7030   -0.0050 c         1 A0D      0.667100
      3 C3         -2.4580   -0.1750    0.6600 c3        1 A0D      0.113500
      4 O4         -1.2140   -1.5930   -0.8760 o         1 A0D     -0.604100
      5 N5         -3.5740   -0.0760   -0.2960 n3        1 A0D     -0.711600
      6 C6         -4.4400    1.0220    0.1350 c3        1 A0D      0.159800
      7 C7         -3.7120    1.8380    1.2140 c3        1 A0D     -0.091400
      8 C8         -2.3260    1.2120    1.3250 c3        1 A0D     -0.086400
      9 C9          1.9480    0.4710   -0.9560 c3        1 A0D     -0.074700
     10 C10         1.3000   -0.6370   -0.0850 c3        1 A0D      0.104700
     11 C11         2.3920    1.6480   -0.0990 c3        1 A0D     -0.069150
     12 C12         3.4110    1.1820    0.9350 c3        1 A0D     -0.064700
     13 C13         4.6220    0.5880    0.2220 c3        1 A0D     -0.069400
     14 C14         4.1800   -0.5970   -0.6300 c3        1 A0D     -0.064700
     15 C15         3.5440   -1.6570    0.2630 c3        1 A0D     -0.069150
     16 C16         2.3350   -1.0690    0.9850 c3        1 A0D     -0.074700
     17 C17         2.7790    0.1190    1.8280 c3        1 A0D     -0.069150
     18 C18         3.1600   -0.1280   -1.6620 c3        1 A0D     -0.069150
     19 C19        -4.2550   -1.3390   -0.5220 c3        1 A0D      0.161800
     20 C20        -5.3130   -1.2710   -1.6120 c3        1 A0D     -0.091100
     21 HN1         0.0490    0.5130    1.1220 hn        1 A0D      0.304500
     22 H3         -2.6810   -0.9390    1.4700 h1        1 A0D      0.050700
     23 H6         -4.6450    1.6540   -0.7720 h1        1 A0D      0.043700
     24 H6A        -5.4280    0.6570    0.5300 h1        1 A0D      0.043700
     25 H7         -3.6480    2.9140    0.9250 hc        1 A0D      0.049200
     26 H7A        -4.2580    1.7750    2.1870 hc        1 A0D      0.049200
     27 H8         -1.9980    1.1070    2.3860 hc        1 A0D      0.051700
     28 H8A        -1.5880    1.8550    0.7840 hc        1 A0D      0.051700
     29 H9          1.2080    0.8230   -1.7240 hc        1 A0D      0.059200
     30 H10         1.1030   -1.5300   -0.7570 h1        1 A0D      0.090700
     31 H11         2.8530    2.4330   -0.7530 hc        1 A0D      0.041450
     32 H11A        1.5130    2.1140    0.4140 hc        1 A0D      0.041450
     33 H12         3.7360    2.0550    1.5620 hc        1 A0D      0.049200
     34 H13         5.0990    1.3660   -0.4270 hc        1 A0D      0.041200
     35 H13A        5.3800    0.2540    0.9750 hc        1 A0D      0.041200
     36 H14         5.0700   -1.0350   -1.1550 hc        1 A0D      0.049200
     37 H15         3.2290   -2.5370   -0.3540 hc        1 A0D      0.041450
     38 H15A        4.2900   -2.0150    1.0180 hc        1 A0D      0.041450
     39 H16         1.8830   -1.8520    1.6500 hc        1 A0D      0.059200
     40 H17         3.5270   -0.2240    2.5890 hc        1 A0D      0.041450
     41 H17A        1.9110    0.5550    2.3850 hc        1 A0D      0.041450
     42 H18         2.8410   -0.9910   -2.3020 hc        1 A0D      0.041450
     43 H18A        3.6230    0.6430   -2.3290 hc        1 A0D      0.041450
     44 H19        -3.4630   -2.0830   -0.8310 h1        1 A0D      0.044700
     45 H19A       -4.7420   -1.7240    0.4240 h1        1 A0D      0.044700
     46 H20        -6.1330   -0.5640   -1.3400 hc        1 A0D      0.038367
     47 H20A       -4.8670   -0.9410   -2.5800 hc        1 A0D      0.038367
     48 H20B       -5.7490   -2.2900   -1.7480 hc        1 A0D      0.038367
@<TRIPOS>BOND
     1    1    2 1   
     2    1   10 1   
     3    1   21 1   
     4    2    3 1   
     5    2    4 2   
     6    3    5 1   
     7    3    8 1   
     8    3   22 1   
     9    5    6 1   
    10    5   19 1   
    11    6    7 1   
    12    6   23 1   
    13    6   24 1   
    14    7    8 1   
    15    7   25 1   
    16    7   26 1   
    17    8   27 1   
    18    8   28 1   
    19    9   10 1   
    20    9   11 1   
    21    9   18 1   
    22    9   29 1   
    23   10   16 1   
    24   10   30 1   
    25   11   12 1   
    26   11   31 1   
    27   11   32 1   
    28   12   13 1   
    29   12   17 1   
    30   12   33 1   
    31   13   14 1   
    32   13   34 1   
    33   13   35 1   
    34   14   15 1   
    35   14   18 1   
    36   14   36 1   
    37   15   16 1   
    38   15   37 1   
    39   15   38 1   
    40   16   17 1   
    41   16   39 1   
    42   17   40 1   
    43   17   41 1   
    44   18   42 1   
    45   18   43 1   
    46   19   20 1   
    47   19   44 1   
    48   19   45 1   
    49   20   46 1   
    50   20   47 1   
    51   20   48 1   
@<TRIPOS>SUBSTRUCTURE
     1 A0D         1 TEMP              0 ****  ****    0 ROOT
