@<TRIPOS>MOLECULE
A0D
   49    52     1     0     0
SMALL
bcc


@<TRIPOS>ATOM
      1 N1         -0.7720    0.7550    0.8810 n4        1 A0D     -0.663800
      2 C2         -1.7620    0.7850   -0.2520 c         1 A0D      0.540100
      3 C3         -2.4850   -0.5090   -0.6390 c3        1 A0D      0.119500
      4 O4         -1.9180    1.8700   -0.7920 o         1 A0D     -0.427100
      5 N5         -2.5060   -1.4850    0.4470 n3        1 A0D     -0.769600
      6 C6         -1.8570   -2.7160   -0.0150 c3        1 A0D      0.153800
      7 C7         -1.3340   -2.5150   -1.4440 c3        1 A0D     -0.103400
      8 C8         -1.7700   -1.1200   -1.8690 c3        1 A0D     -0.091400
      9 C9          1.3230    1.0490   -0.5150 c3        1 A0D     -0.077200
     10 C10         0.5460    0.1510    0.4700 c3        1 A0D      0.129500
     11 C11         1.7990    2.3290    0.1620 c3        1 A0D     -0.078400
     12 C12         2.6880    1.9870    1.3520 c3        1 A0D     -0.069700
     13 C13         3.8980    1.1950    0.8650 c3        1 A0D     -0.075400
     14 C14         3.4290   -0.0910    0.1930 c3        1 A0D     -0.069700
     15 C15         2.6470   -0.9310    1.1960 c3        1 A0D     -0.078400
     16 C16         1.4360   -0.1450    1.6970 c3        1 A0D     -0.077200
     17 C17         1.9050    1.1470    2.3550 c3        1 A0D     -0.078400
     18 C18         2.5340    0.2490   -0.9940 c3        1 A0D     -0.078400
     19 C19        -3.8240   -1.6730    1.0450 c3        1 A0D      0.161800
     20 C20        -3.7920   -2.4930    2.3240 c3        1 A0D     -0.100100
     21 HN1        -1.1560    0.2000    1.6550 hn        1 A0D      0.462800
     22 H3         -3.5260   -0.1660   -0.9290 h1        1 A0D      0.115700
     23 H6         -1.0090   -2.9300    0.6930 h1        1 A0D      0.066700
     24 H6A        -2.5620   -3.5920    0.0210 h1        1 A0D      0.066700
     25 H7         -1.7580   -3.2920   -2.1290 hc        1 A0D      0.072700
     26 H7A        -0.2200   -2.6160   -1.4740 hc        1 A0D      0.072700
     27 H8         -2.4890   -1.1630   -2.7270 hc        1 A0D      0.077200
     28 H8A        -0.8990   -0.4970   -2.1900 hc        1 A0D      0.077200
     29 H9          0.6690    1.3040   -1.3930 hc        1 A0D      0.065200
     30 H10         0.2880   -0.8280   -0.0400 hx        1 A0D      0.103700
     31 H11         2.3820    2.9360   -0.5800 hc        1 A0D      0.059700
     32 H11A        0.9330    2.9600    0.4900 hc        1 A0D      0.059700
     33 H12         3.0320    2.9340    1.8470 hc        1 A0D      0.081200
     34 H13         4.4870    1.8120    0.1380 hc        1 A0D      0.063200
     35 H13A        4.5670    0.9510    1.7300 hc        1 A0D      0.063200
     36 H14         4.3190   -0.6740   -0.1680 hc        1 A0D      0.081200
     37 H15         3.3010   -1.1890    2.0690 hc        1 A0D      0.059700
     38 H15A        2.3140   -1.8900    0.7210 hc        1 A0D      0.059700
     39 H16         0.8720   -0.7720    2.4400 hc        1 A0D      0.065200
     40 H17         2.5640    0.8940    3.2270 hc        1 A0D      0.059700
     41 H17A        1.0370    1.7300    2.7550 hc        1 A0D      0.059700
     42 H18         2.1980   -0.6890   -1.5060 hc        1 A0D      0.059700
     43 H18A        3.1040    0.8630   -1.7390 hc        1 A0D      0.059700
     44 H19        -4.5350   -2.1650    0.3180 h1        1 A0D      0.047700
     45 H19A       -4.2360   -0.6510    1.2830 h1        1 A0D      0.047700
     46 H20        -3.1460   -2.0160    3.0990 hc        1 A0D      0.053033
     47 H20A       -3.4150   -3.5270    2.1360 hc        1 A0D      0.053033
     48 H20B       -4.8340   -2.5630    2.7230 hc        1 A0D      0.053033
     49 H121       -0.6010    1.7150    1.2120 hn        1 A0D      0.462800
@<TRIPOS>BOND
     1    1    2 1   
     2    1   10 1   
     3    1   21 1   
     4    1   49 1   
     5    2    3 1   
     6    2    4 2   
     7    3    5 1   
     8    3    8 1   
     9    3   22 1   
    10    5    6 1   
    11    5   19 1   
    12    6    7 1   
    13    6   23 1   
    14    6   24 1   
    15    7    8 1   
    16    7   25 1   
    17    7   26 1   
    18    8   27 1   
    19    8   28 1   
    20    9   10 1   
    21    9   11 1   
    22    9   18 1   
    23    9   29 1   
    24   10   16 1   
    25   10   30 1   
    26   11   12 1   
    27   11   31 1   
    28   11   32 1   
    29   12   13 1   
    30   12   17 1   
    31   12   33 1   
    32   13   14 1   
    33   13   34 1   
    34   13   35 1   
    35   14   15 1   
    36   14   18 1   
    37   14   36 1   
    38   15   16 1   
    39   15   37 1   
    40   15   38 1   
    41   16   17 1   
    42   16   39 1   
    43   17   40 1   
    44   17   41 1   
    45   18   42 1   
    46   18   43 1   
    47   19   20 1   
    48   19   44 1   
    49   19   45 1   
    50   20   46 1   
    51   20   47 1   
    52   20   48 1   
@<TRIPOS>SUBSTRUCTURE
     1 A0D         1 TEMP              0 ****  ****    0 ROOT
