@<TRIPOS>MOLECULE
A0H
   61    65     1     0     0
SMALL
bcc


@<TRIPOS>ATOM
      1 Cl          0.0130    0.2340    0.1230 cl        1 A0H      0.006600
      2 C02         1.6750    0.2670    0.0200 cc        1 A0H     -0.074700
      3 C03         2.6410    0.4200    1.0570 cd        1 A0H      0.039600
      4 N04         3.9210    0.3920    0.5450 nd        1 A0H     -0.244600
      5 C05         3.7780    0.2270   -0.8010 cc        1 A0H     -0.185600
      6 N06         2.3990    0.1390   -1.1670 na        1 A0H      0.040700
      7 C07         2.0360   -0.0470   -2.4850 cc        1 A0H     -0.192600
      8 C08         3.0400   -0.1680   -3.4390 cd        1 A0H      0.437800
      9 C09         2.6910   -0.4150   -4.8480 ca        1 A0H     -0.106500
     10 C10         3.5810   -0.0330   -5.8600 ca        1 A0H     -0.093000
     11 C11         3.3180   -0.3570   -7.1950 ca        1 A0H     -0.180300
     12 C12         4.3500   -0.0190   -8.2190 c3        1 A0H      0.172100
     13 N13         5.5770   -0.8590   -8.0390 ny        1 A0H     -0.724900
     14 S14         7.1450   -0.1160   -8.7550 s6        1 A0H      1.419900
     15 O15         6.8990    1.2400   -8.7620 o         1 A0H     -0.563300
     16 C16         8.1710   -0.5950   -7.5750 c3        1 A0H     -0.493300
     17 O17         7.2710   -0.8370   -9.9250 o         1 A0H     -0.563300
     18 C18         2.1280   -1.0000   -7.5430 ca        1 A0H     -0.089000
     19 C19         1.2180   -1.3400   -6.5420 ca        1 A0H     -0.117000
     20 C20         1.5020   -1.0720   -5.2030 ca        1 A0H     -0.084000
     21 N21         4.3940   -0.0820   -3.1510 nd        1 A0H     -0.770000
     22 C22         4.7720    0.1380   -1.8830 cc        1 A0H      0.746200
     23 N23         6.1010    0.3130   -1.5240 nu        1 A0H     -0.736300
     24 C24         7.1550    0.3590   -2.4570 ca        1 A0H      0.134600
     25 C25         8.3290   -0.3940   -2.2400 ca        1 A0H     -0.119500
     26 C26         9.3970   -0.3150   -3.1230 ca        1 A0H     -0.163500
     27 C27         9.3410    0.5050   -4.2700 ca        1 A0H      0.094600
     28 N28        10.3680    0.5410   -5.2560 nh        1 A0H     -0.644000
     29 C29        10.9160    1.8770   -5.4990 c3        1 A0H      0.130300
     30 C30        11.9310    1.8750   -6.6490 c3        1 A0H      0.124900
     31 O31        12.9510    0.9060   -6.4530 os        1 A0H     -0.395600
     32 C32        12.4300   -0.4000   -6.2560 c3        1 A0H      0.124900
     33 C33        11.4340   -0.4430   -5.0880 c3        1 A0H      0.130300
     34 C34         8.1650    1.2630   -4.4760 ca        1 A0H     -0.163500
     35 C35         7.1000    1.1980   -3.5890 ca        1 A0H     -0.119500
     36 H03         2.4440    0.5450    2.1240 h4        1 A0H      0.208000
     37 H07         0.9580   -0.0750   -2.7080 h4        1 A0H      0.185000
     38 H10         4.4940    0.5310   -5.6050 ha        1 A0H      0.148000
     39 H12         3.9580   -0.1850   -9.2630 hx        1 A0H      0.116200
     40 H12A        4.6570    1.0660   -8.1130 hx        1 A0H      0.116200
     41 HN13        5.6810   -1.0360   -7.0360 hn        1 A0H      0.456300
     42 H16         7.9910   -0.1670   -6.5410 h1        1 A0H      0.186700
     43 H16A        8.2740   -1.7040   -7.4230 h1        1 A0H      0.186700
     44 H16B        9.2410   -0.2620   -7.7670 h1        1 A0H      0.186700
     45 H18         1.9020   -1.2340   -8.5950 ha        1 A0H      0.147000
     46 H19         0.2720   -1.8370   -6.8100 ha        1 A0H      0.160000
     47 H20         0.7900   -1.3900   -4.4240 ha        1 A0H      0.156000
     48 HN23        6.3390    0.1850   -0.5640 hn        1 A0H      0.477800
     49 H25         8.4180   -1.0440   -1.3540 ha        1 A0H      0.150500
     50 H26        10.2980   -0.9090   -2.8990 ha        1 A0H      0.140000
     51 H29        10.0730    2.5720   -5.7650 h1        1 A0H      0.056450
     52 H29A       11.4230    2.2800   -4.5760 h1        1 A0H      0.056450
     53 H30        12.4780    2.8550   -6.6800 h1        1 A0H      0.056200
     54 H30A       11.4190    1.6890   -7.6300 h1        1 A0H      0.056200
     55 H32        11.9470   -0.7610   -7.2030 h1        1 A0H      0.056200
     56 H32A       13.3280   -1.0290   -6.0180 h1        1 A0H      0.056200
     57 H33        10.9700   -1.4660   -5.0460 h1        1 A0H      0.056450
     58 H33A       12.0100   -0.2730   -4.1320 h1        1 A0H      0.056450
     59 H34         8.0920    1.9570   -5.3290 ha        1 A0H      0.140000
     60 H35         6.2120    1.8240   -3.7740 ha        1 A0H      0.150500
     61 H132        5.3990   -1.7660   -8.4750 hn        1 A0H      0.456300
@<TRIPOS>BOND
     1    1    2 1   
     2    2    3 2   
     3    2    6 1   
     4    3    4 1   
     5    3   36 1   
     6    4    5 2   
     7    5    6 1   
     8    5   22 1   
     9    6    7 1   
    10    7    8 2   
    11    7   37 1   
    12    8    9 1   
    13    8   21 1   
    14    9   10 ar  
    15    9   20 ar  
    16   10   11 ar  
    17   10   38 1   
    18   11   12 1   
    19   11   18 ar  
    20   12   13 1   
    21   12   39 1   
    22   12   40 1   
    23   13   14 1   
    24   13   41 1   
    25   13   61 1   
    26   14   15 2   
    27   14   16 1   
    28   14   17 2   
    29   16   42 1   
    30   16   43 1   
    31   16   44 1   
    32   18   19 ar  
    33   18   45 1   
    34   19   20 ar  
    35   19   46 1   
    36   20   47 1   
    37   21   22 2   
    38   22   23 1   
    39   23   24 1   
    40   23   48 1   
    41   24   25 ar  
    42   24   35 ar  
    43   25   26 ar  
    44   25   49 1   
    45   26   27 ar  
    46   26   50 1   
    47   27   28 1   
    48   27   34 ar  
    49   28   29 1   
    50   28   33 1   
    51   29   30 1   
    52   29   51 1   
    53   29   52 1   
    54   30   31 1   
    55   30   53 1   
    56   30   54 1   
    57   31   32 1   
    58   32   33 1   
    59   32   55 1   
    60   32   56 1   
    61   33   57 1   
    62   33   58 1   
    63   34   35 ar  
    64   34   59 1   
    65   35   60 1   
@<TRIPOS>SUBSTRUCTURE
     1 A0H         1 TEMP              0 ****  ****    0 ROOT
