@<TRIPOS>MOLECULE
A0H
   61    65     1     0     0
SMALL
bcc


@<TRIPOS>ATOM
      1 CL         -0.0340    0.1870    0.0740 cl        1 A0H      0.006600
      2 C02         1.6290    0.2330   -0.0170 cc        1 A0H     -0.074700
      3 C03         2.5870    0.3950    1.0250 cd        1 A0H      0.039600
      4 N04         3.8690    0.3760    0.5230 nd        1 A0H     -0.244600
      5 C05         3.7370    0.2050   -0.8240 cc        1 A0H     -0.185600
      6 N06         2.3620    0.1060   -1.1990 na        1 A0H      0.040700
      7 C07         2.0100   -0.0850   -2.5190 cc        1 A0H     -0.192600
      8 C08         3.0210   -0.2010   -3.4670 cd        1 A0H      0.437800
      9 C09         2.6830   -0.4540   -4.8770 ca        1 A0H     -0.106500
     10 C10         3.5780   -0.0680   -5.8840 ca        1 A0H     -0.093000
     11 C11         3.3270   -0.3970   -7.2200 ca        1 A0H     -0.180300
     12 C12         4.3630   -0.0540   -8.2370 c3        1 A0H      0.172100
     13 N13         5.5950   -0.8850   -8.0470 n4        1 A0H     -0.724900
     14 S14         7.1630   -0.1330   -8.7530 s6        1 A0H      1.419900
     15 O15         6.9070    1.2220   -8.7660 o         1 A0H     -0.563300
     16 C16         8.1840   -0.6000   -7.5660 c3        1 A0H     -0.493300
     17 O17         7.3020   -0.8550   -9.9210 o         1 A0H     -0.563300
     18 C18         2.1440   -1.0500   -7.5740 ca        1 A0H     -0.089000
     19 C19         1.2290   -1.3930   -6.5790 ca        1 A0H     -0.117000
     20 C20         1.5020   -1.1200   -5.2380 ca        1 A0H     -0.084000
     21 N21         4.3730   -0.1040   -3.1680 nd        1 A0H     -0.770000
     22 C22         4.7400    0.1210   -1.8980 cc        1 A0H      0.746200
     23 N23         6.0650    0.3070   -1.5320 nh        1 A0H     -0.736300
     24 C24         7.1250    0.3580   -2.4570 ca        1 A0H      0.134600
     25 C25         8.3030   -0.3850   -2.2300 ca        1 A0H     -0.119500
     26 C26         9.3770   -0.3010   -3.1060 ca        1 A0H     -0.163500
     27 C27         9.3220    0.5160   -4.2550 ca        1 A0H      0.094600
     28 N28        10.3560    0.5570   -5.2330 nh        1 A0H     -0.644000
     29 C29        10.8950    1.8970   -5.4770 c3        1 A0H      0.130300
     30 C30        11.9190    1.9010   -6.6200 c3        1 A0H      0.124900
     31 O31        12.9450    0.9400   -6.4140 os        1 A0H     -0.395600
     32 C32        12.4320   -0.3700   -6.2170 c3        1 A0H      0.124900
     33 C33        11.4290   -0.4170   -5.0560 c3        1 A0H      0.130300
     34 C34         8.1430    1.2650   -4.4710 ca        1 A0H     -0.163500
     35 C35         7.0720    1.1940   -3.5910 ca        1 A0H     -0.119500
     36 H03         2.3810    0.5210    2.0910 h4        1 A0H      0.208000
     37 H07         0.9330   -0.1210   -2.7500 h4        1 A0H      0.185000
     38 H10         4.4850    0.5030   -5.6240 ha        1 A0H      0.148000
     39 H12         3.9800   -0.2260   -9.2830 hx        1 A0H      0.116200
     40 H12A        4.6620    1.0330   -8.1320 hx        1 A0H      0.116200
     41 HN13        5.6940   -1.0580   -7.0420 hn        1 A0H      0.456300
     42 H16         8.2940   -1.7080   -7.4090 h1        1 A0H      0.186700
     43 H16A        7.9940   -0.1710   -6.5340 h1        1 A0H      0.186700
     44 H16B        9.2520   -0.2610   -7.7500 h1        1 A0H      0.186700
     45 H18         1.9270   -1.2880   -8.6270 ha        1 A0H      0.147000
     46 H19         0.2890   -1.8980   -6.8520 ha        1 A0H      0.160000
     47 H20         0.7870   -1.4410   -4.4640 ha        1 A0H      0.156000
     48 HN23        6.2970    0.1830   -0.5690 hn        1 A0H      0.477800
     49 H25         8.3900   -1.0330   -1.3410 ha        1 A0H      0.150500
     50 H26        10.2810   -0.8870   -2.8740 ha        1 A0H      0.140000
     51 H29        11.3930    2.3070   -4.5510 h1        1 A0H      0.056450
     52 H29A       10.0500    2.5850   -5.7500 h1        1 A0H      0.056450
     53 H30        11.4150    1.7080   -7.6040 h1        1 A0H      0.056200
     54 H30A       12.4580    2.8850   -6.6490 h1        1 A0H      0.056200
     55 H32        13.3340   -0.9910   -5.9710 h1        1 A0H      0.056200
     56 H32A       11.9590   -0.7370   -7.1660 h1        1 A0H      0.056200
     57 H33        11.9960   -0.2410   -4.0960 h1        1 A0H      0.056450
     58 H33A       10.9730   -1.4440   -5.0140 h1        1 A0H      0.056450
     59 H34         8.0710    1.9560   -5.3260 ha        1 A0H      0.140000
     60 H35         6.1810    1.8130   -3.7840 ha        1 A0H      0.150500
     61 H132        5.4260   -1.7940   -8.4820 hn        1 A0H      0.456300
@<TRIPOS>BOND
     1    1    2 1   
     2    2    3 2   
     3    2    6 1   
     4    3    4 1   
     5    3   36 1   
     6    4    5 2   
     7    5    6 1   
     8    5   22 1   
     9    6    7 1   
    10    7    8 2   
    11    7   37 1   
    12    8    9 1   
    13    8   21 1   
    14    9   10 ar  
    15    9   20 ar  
    16   10   11 ar  
    17   10   38 1   
    18   11   12 1   
    19   11   18 ar  
    20   12   13 1   
    21   12   39 1   
    22   12   40 1   
    23   13   14 1   
    24   13   41 1   
    25   13   61 1   
    26   14   15 2   
    27   14   16 1   
    28   14   17 2   
    29   16   42 1   
    30   16   43 1   
    31   16   44 1   
    32   18   19 ar  
    33   18   45 1   
    34   19   20 ar  
    35   19   46 1   
    36   20   47 1   
    37   21   22 2   
    38   22   23 1   
    39   23   24 1   
    40   23   48 1   
    41   24   25 ar  
    42   24   35 ar  
    43   25   26 ar  
    44   25   49 1   
    45   26   27 ar  
    46   26   50 1   
    47   27   28 1   
    48   27   34 ar  
    49   28   29 1   
    50   28   33 1   
    51   29   30 1   
    52   29   51 1   
    53   29   52 1   
    54   30   31 1   
    55   30   53 1   
    56   30   54 1   
    57   31   32 1   
    58   32   33 1   
    59   32   55 1   
    60   32   56 1   
    61   33   57 1   
    62   33   58 1   
    63   34   35 ar  
    64   34   59 1   
    65   35   60 1   
@<TRIPOS>SUBSTRUCTURE
     1 A0H         1 TEMP              0 ****  ****    0 ROOT
