@<TRIPOS>MOLECULE
A0H
   60    64     1     0     0
SMALL
bcc


@<TRIPOS>ATOM
      1 CL         -6.9320    0.8780   -1.1980 cl        1 A0H     -0.014400
      2 C02        -5.7820   -0.3230   -1.0620 cc        1 A0H     -0.093700
      3 C03        -5.8820   -1.7080   -1.3850 cd        1 A0H      0.028600
      4 N04        -4.6990   -2.3590   -1.1250 nd        1 A0H     -0.264600
      5 C05        -3.8490   -1.4030   -0.6390 cc        1 A0H     -0.188600
      6 N06        -4.4860   -0.1300   -0.5860 na        1 A0H      0.060700
      7 C07        -3.7920    0.9770   -0.1420 cc        1 A0H     -0.234600
      8 C08        -2.4660    0.8170    0.2510 cd        1 A0H      0.471800
      9 C09        -1.7310    2.0050    0.7200 ca        1 A0H     -0.140500
     10 C10        -0.4000    2.2140    0.3410 ca        1 A0H     -0.080000
     11 C11         0.2810    3.3540    0.7760 ca        1 A0H     -0.121300
     12 C12         1.7160    3.5600    0.3780 c3        1 A0H      0.271100
     13 N13         1.8920    3.9090   -1.0040 n3        1 A0H     -0.924100
     14 S14         2.6270    5.2470   -1.5240 s6        1 A0H      1.466900
     15 O15         2.6960    6.2130   -0.4970 o         1 A0H     -0.655300
     16 C16         4.2170    4.7180   -1.8410 c3        1 A0H     -0.361300
     17 O17         2.0600    5.6460   -2.7520 o         1 A0H     -0.655300
     18 C18        -0.3660    4.2880    1.5890 ca        1 A0H     -0.099000
     19 C19        -1.6890    4.0730    1.9770 ca        1 A0H     -0.133000
     20 C20        -2.3710    2.9380    1.5470 ca        1 A0H     -0.110000
     21 N21        -1.7890   -0.3900    0.2230 nd        1 A0H     -0.730000
     22 C22        -2.4470   -1.4850   -0.1910 cc        1 A0H      0.724200
     23 N23        -1.8840   -2.7580   -0.1720 nh        1 A0H     -0.712300
     24 C24        -0.5020   -2.9910    0.0090 ca        1 A0H      0.102600
     25 C25         0.1920   -3.8190   -0.9020 ca        1 A0H     -0.114000
     26 C26         1.5290   -4.1270   -0.7070 ca        1 A0H     -0.155000
     27 C27         2.2420   -3.6190    0.4040 ca        1 A0H      0.124600
     28 N28         3.6330   -3.8800    0.5190 nh        1 A0H     -0.629000
     29 C29         4.3390   -3.1480    1.5600 c3        1 A0H      0.147800
     30 C30         5.8530   -3.3930    1.5050 c3        1 A0H      0.123900
     31 O31         6.1620   -4.7810    1.5240 os        1 A0H     -0.412600
     32 C32         5.5240   -5.4860    0.4660 c3        1 A0H      0.123900
     33 C33         4.0020   -5.2900    0.4890 c3        1 A0H      0.147800
     34 C34         1.5410   -2.7960    1.3100 ca        1 A0H     -0.155000
     35 C35         0.1990   -2.4870    1.1190 ca        1 A0H     -0.114000
     36 H03        -6.7560   -2.2240   -1.7860 h4        1 A0H      0.195000
     37 H07        -4.3240    1.9400   -0.1320 h4        1 A0H      0.184000
     38 H10         0.1170    1.4780   -0.2950 ha        1 A0H      0.150000
     39 H12         2.1680    4.3770    1.0160 h1        1 A0H      0.061200
     40 H12A        2.2790    2.6020    0.5910 h1        1 A0H      0.061200
     41 HN13        1.4190    3.2990   -1.6290 hn        1 A0H      0.452800
     42 H16         4.2730    3.9120   -2.6120 h1        1 A0H      0.112700
     43 H16A        4.8330    5.5660   -2.2320 h1        1 A0H      0.112700
     44 H16B        4.7480    4.3380   -0.9360 h1        1 A0H      0.112700
     45 H18         0.1660    5.1920    1.9240 ha        1 A0H      0.146000
     46 H19        -2.1950    4.8040    2.6240 ha        1 A0H      0.139000
     47 H20        -3.4110    2.7680    1.8660 ha        1 A0H      0.137000
     48 HN23       -2.3600   -3.4430   -0.7250 hn        1 A0H      0.455800
     49 H25        -0.3250   -4.2340   -1.7820 ha        1 A0H      0.145500
     50 H26         2.0350   -4.7650   -1.4490 ha        1 A0H      0.138000
     51 H29         4.1510   -2.0490    1.4060 h1        1 A0H      0.047950
     52 H29A        3.9730   -3.4320    2.5890 h1        1 A0H      0.047950
     53 H30         6.2990   -2.9210    0.5900 h1        1 A0H      0.056450
     54 H30A        6.3400   -2.9840    2.4290 h1        1 A0H      0.056450
     55 H32         5.9520   -5.1550   -0.5170 h1        1 A0H      0.056450
     56 H32A        5.7740   -6.5620    0.6550 h1        1 A0H      0.056450
     57 H33         3.5850   -5.8370    1.3840 h1        1 A0H      0.047950
     58 H33A        3.5710   -5.7580   -0.4390 h1        1 A0H      0.047950
     59 H34         2.0420   -2.3810    2.1980 ha        1 A0H      0.138000
     60 H35        -0.3070   -1.8430    1.8570 ha        1 A0H      0.145500
@<TRIPOS>BOND
     1    1    2 1   
     2    2    3 2   
     3    2    6 1   
     4    3    4 1   
     5    3   36 1   
     6    4    5 2   
     7    5    6 1   
     8    5   22 1   
     9    6    7 1   
    10    7    8 2   
    11    7   37 1   
    12    8    9 1   
    13    8   21 1   
    14    9   10 ar  
    15    9   20 ar  
    16   10   11 ar  
    17   10   38 1   
    18   11   12 1   
    19   11   18 ar  
    20   12   13 1   
    21   12   39 1   
    22   12   40 1   
    23   13   14 1   
    24   13   41 1   
    25   14   15 2   
    26   14   16 1   
    27   14   17 2   
    28   16   42 1   
    29   16   43 1   
    30   16   44 1   
    31   18   19 ar  
    32   18   45 1   
    33   19   20 ar  
    34   19   46 1   
    35   20   47 1   
    36   21   22 2   
    37   22   23 1   
    38   23   24 1   
    39   23   48 1   
    40   24   25 ar  
    41   24   35 ar  
    42   25   26 ar  
    43   25   49 1   
    44   26   27 ar  
    45   26   50 1   
    46   27   28 1   
    47   27   34 ar  
    48   28   29 1   
    49   28   33 1   
    50   29   30 1   
    51   29   51 1   
    52   29   52 1   
    53   30   31 1   
    54   30   53 1   
    55   30   54 1   
    56   31   32 1   
    57   32   33 1   
    58   32   55 1   
    59   32   56 1   
    60   33   57 1   
    61   33   58 1   
    62   34   35 ar  
    63   34   59 1   
    64   35   60 1   
@<TRIPOS>SUBSTRUCTURE
     1 A0H         1 TEMP              0 ****  ****    0 ROOT
