@<TRIPOS>MOLECULE
A0H
   60    53     1     0     0
SMALL
bcc


@<TRIPOS>ATOM
      1 CL         -5.9780   -0.4920   -0.4730 cl        1 A0H      0.065000
      2 C02        -4.9150    0.7210   -0.0280 c2        1 A0H     -0.154000
      3 C03        -4.9880    0.8280    1.3450 c1        1 A0H     -0.115000
      4 N04        -3.8480    1.3960    1.7770 n2        1 A0H     -0.093000
      5 C05        -3.0490    1.6490    0.6710 c1        1 A0H     -0.078000
      6 N06        -3.7140    1.2310   -0.4290 n2        1 A0H     -0.027000
      7 C07        -3.1030    1.2700   -1.6520 c1        1 A0H     -0.134000
      8 C08        -1.8160    1.7330   -1.7610 c1        1 A0H      0.030000
      9 C09        -0.7920    1.4580   -2.7620 c1        1 A0H     -0.037000
     10 C10        -0.4740    0.1450   -3.0910 c1        1 A0H     -0.105000
     11 C11         0.4930   -0.1150   -4.0640 c1        1 A0H     -0.123000
     12 C12         0.9140   -1.5740   -4.3620 c3        1 A0H      0.036000
     13 N13         0.3900   -1.9850   -5.6790 n3        1 A0H     -0.895000
     14 S14         1.1930   -3.1080   -6.5660 s4        1 A0H      2.037800
     15 O15         2.4230   -2.5980   -7.0540 o         1 A0H     -0.543900
     16 C16         0.1540   -3.7010   -7.8990 c2        1 A0H     -0.940000
     17 O17         1.6560   -4.2060   -5.7310 o         1 A0H     -0.543900
     18 C18         1.1320    0.9290   -4.6980 c1        1 A0H     -0.102000
     19 C19         0.8130    2.2440   -4.3660 c1        1 A0H     -0.107500
     20 C20        -0.1540    2.5010   -3.3940 c1        1 A0H     -0.107500
     21 N21        -1.1460    2.1550   -0.6490 n1        1 A0H     -0.205000
     22 C22        -1.7470    2.1180    0.5580 c1        1 A0H      0.184000
     23 N23        -1.2450    2.7980    1.7280 n3        1 A0H     -0.225000
     24 C24        -0.3910    2.0680    2.7040 c2        1 A0H      0.021000
     25 C25         0.9910    2.2810    2.7120 c2        1 A0H     -0.112000
     26 C26         1.7890    1.6800    3.6890 c1        1 A0H     -0.134000
     27 C27         1.2130    0.8710    4.6530 c1        1 A0H      0.031000
     28 N28         2.0440    0.3110    5.7340 n3        1 A0H     -0.220000
     29 C29         1.3340   -0.6880    6.3980 c3        1 A0H     -0.093500
     30 C30         1.1420   -1.9670    5.5190 c3        1 A0H     -0.057500
     31 O31         2.3630   -2.4400    4.9780 os        1 A0H     -0.268000
     32 C32         3.0810   -1.4370    4.3080 c3        1 A0H     -0.057500
     33 C33         3.2760   -0.1640    5.1810 c3        1 A0H     -0.093500
     34 C34        -0.1830    0.6550    4.6460 c1        1 A0H     -0.158000
     35 C35        -0.9760    1.2580    3.6670 c1        1 A0H     -0.115000
     36 H03        -5.7630    0.6230    1.8880 DU        1 A0H      0.195000
     37 H07        -3.5990    0.9760   -2.4690 ha        1 A0H      0.181000
     38 H10        -0.9930   -0.6260   -2.6700 ha        1 A0H      0.132000
     39 H12         0.5290   -2.2080   -3.6180 h1        1 A0H      0.094500
     40 H12A        1.8710   -1.6350   -4.3680 h1        1 A0H      0.094500
     41 HN13       -0.3500   -1.6500   -5.9740 hn        1 A0H      0.248000
     42 H16         0.3630   -3.2300   -8.7090 ha        1 A0H      0.153000
     43 H16A        0.3090   -4.6510   -8.0290 ha        1 A0H      0.153000
     44 H16B       -0.8150   -3.5480   -7.6610 ha        1 A0H      0.153000
     45 H18         1.8110    0.7450   -5.3830 ha        1 A0H      0.166000
     46 H19         1.2640    2.9830   -4.8120 ha        1 A0H      0.146500
     47 H20        -0.3740    3.4000   -3.1660 ha        1 A0H      0.146500
     48 HN23       -1.4090    3.6510    1.8420 hn        1 A0H      0.230000
     49 H25         1.3930    2.8430    2.0420 ha        1 A0H      0.142000
     50 H26         2.7300    1.8290    3.6910 ha        1 A0H      0.141000
     51 H29         0.4440   -0.3360    6.6520 h1        1 A0H      0.105750
     52 H29A        1.8100   -0.9280    7.1950 h1        1 A0H      0.105750
     53 H30         0.5180   -1.7480    4.7590 h1        1 A0H      0.093000
     54 H30A        0.7470   -2.6620    6.0580 h1        1 A0H      0.093000
     55 H32         2.6140   -1.2020    3.5300 h1        1 A0H      0.093000
     56 H32A        4.0030   -1.8070    4.0450 h1        1 A0H      0.093000
     57 H33         3.9140   -0.3740    5.9250 h1        1 A0H      0.105750
     58 H33A        3.6680    0.5550    4.6180 h1        1 A0H      0.105750
     59 H34        -0.6060    0.0680    5.3420 ha        1 A0H      0.133000
     60 H35        -1.9570    1.1100    3.6610 ha        1 A0H      0.137000
@<TRIPOS>BOND
     1    1    2 1   
     2    2    3 1   
     3    2    6 1   
     4    3    4 1   
     5    4    5 1   
     6    5   22 1   
     7    6    7 1   
     8    7   37 1   
     9    8   21 1   
    10    9   10 1   
    11   10   38 1   
    12   11   12 1   
    13   11   18 1   
    14   12   13 1   
    15   12   39 1   
    16   12   40 1   
    17   13   14 1   
    18   13   41 1   
    19   14   15 1   
    20   14   17 1   
    21   16   42 1   
    22   16   43 1   
    23   16   44 1   
    24   18   45 1   
    25   19   20 1   
    26   19   46 1   
    27   20   47 1   
    28   22   23 1   
    29   23   24 1   
    30   23   48 1   
    31   24   25 1   
    32   24   35 1   
    33   25   26 1   
    34   25   49 1   
    35   26   50 1   
    36   27   28 1   
    37   27   34 1   
    38   28   29 1   
    39   28   33 1   
    40   29   30 1   
    41   29   51 1   
    42   29   52 1   
    43   30   31 1   
    44   30   53 1   
    45   30   54 1   
    46   31   32 1   
    47   32   33 1   
    48   32   55 1   
    49   32   56 1   
    50   33   57 1   
    51   33   58 1   
    52   34   59 1   
    53   35   60 1   
@<TRIPOS>SUBSTRUCTURE
     1 A0H         1 TEMP              0 ****  ****    0 ROOT
