@<TRIPOS>MOLECULE
A0H
   62    66     1     0     0
SMALL
bcc


@<TRIPOS>ATOM
      1 CL          3.2610   -3.0540    0.1290 cl        1 A0H      0.053600
      2 C02         4.0090   -1.6180   -0.2350 cc        1 A0H     -0.058700
      3 C03         4.7680   -0.7540    0.6080 cd        1 A0H      0.079600
      4 N04         5.2190    0.3490   -0.0860 nd        1 A0H     -0.254600
      5 C05         4.7590    0.2000   -1.3590 cc        1 A0H     -0.162600
      6 N06         3.9960   -1.0140   -1.4990 na        1 A0H      0.030700
      7 C07         3.4240   -1.3230   -2.7050 cc        1 A0H     -0.097600
      8 C08         3.6040   -0.4560   -3.7910 cd        1 A0H      0.396800
      9 C09         2.9250   -0.7730   -5.0590 ca        1 A0H     -0.139500
     10 C10         3.6140   -0.7330   -6.2770 ca        1 A0H     -0.060000
     11 C11         2.9340   -1.0180   -7.4670 ca        1 A0H     -0.166300
     12 C12         3.6440   -0.9100   -8.7760 c3        1 A0H      0.159100
     13 N13         3.7210   -2.1970   -9.5210 n4        1 A0H     -0.711900
     14 S14         4.6210   -1.9450  -11.1810 s6        1 A0H      1.424900
     15 O15         5.9270   -1.8790  -10.7520 o         1 A0H     -0.551800
     16 C16         4.2130   -3.3680  -11.8740 c3        1 A0H     -0.483300
     17 O17         3.9590   -0.8560  -11.6970 o         1 A0H     -0.551800
     18 C18         1.5710   -1.3370   -7.4400 ca        1 A0H     -0.100000
     19 C19         0.8910   -1.3870   -6.2250 ca        1 A0H     -0.105000
     20 C20         1.5630   -1.1040   -5.0360 ca        1 A0H     -0.077000
     21 N21         4.3530    0.7060   -3.7180 nd        1 A0H     -0.612000
     22 C22         4.8930    1.0220   -2.5450 cc        1 A0H      0.534200
     23 N23         5.6680    2.2760   -2.3950 n4        1 A0H     -0.583100
     24 C24         7.1010    2.1030   -2.6270 ca        1 A0H     -0.167400
     25 C25         7.9680    1.8650   -1.5430 ca        1 A0H     -0.035000
     26 C26         9.3280    1.7640   -1.7540 ca        1 A0H     -0.206500
     27 C27         9.8950    1.8750   -3.0620 ca        1 A0H      0.257600
     28 N28        11.2440    1.7040   -3.2800 nh        1 A0H     -0.628000
     29 C29        11.7950    2.0610   -4.5750 c3        1 A0H      0.161800
     30 C30        13.2820    1.7260   -4.7580 c3        1 A0H      0.115900
     31 O31        14.0450    2.0730   -3.6150 os        1 A0H     -0.382600
     32 C32        13.6040    1.3610   -2.4690 c3        1 A0H      0.115900
     33 C33        12.1390    1.6710   -2.1340 c3        1 A0H      0.161800
     34 C34         8.9860    2.1230   -4.1380 ca        1 A0H     -0.206500
     35 C35         7.6260    2.2220   -3.9280 ca        1 A0H     -0.035000
     36 H03         4.9880   -0.9030    1.6720 h4        1 A0H      0.230000
     37 H07         2.8340   -2.2560   -2.7720 h4        1 A0H      0.208000
     38 H10         4.6820   -0.4650   -6.2960 ha        1 A0H      0.153000
     39 H12         3.1000   -0.1680   -9.4380 hx        1 A0H      0.119200
     40 H12A        4.7050   -0.5490   -8.6210 hx        1 A0H      0.119200
     41 HN13        4.2180   -2.8730   -8.9410 hn        1 A0H      0.449800
     42 H16         3.1160   -3.5260  -12.0780 h1        1 A0H      0.183367
     43 H16A        4.6750   -3.4860  -12.9060 h1        1 A0H      0.183367
     44 H16B        4.5570   -4.3010  -11.3450 h1        1 A0H      0.183367
     45 H18         1.0210   -1.5240   -8.3760 ha        1 A0H      0.141000
     46 H19        -0.1830   -1.6350   -6.2030 ha        1 A0H      0.173000
     47 H20         1.0130   -1.1240   -4.0800 ha        1 A0H      0.160000
     48 HN23        5.3120    2.9800   -3.0590 hn        1 A0H      0.476300
     49 H25         7.5790    1.7680   -0.5130 ha        1 A0H      0.154500
     50 H26         9.9720    1.6030   -0.8740 ha        1 A0H      0.163000
     51 H29        11.6500    3.1680   -4.7460 h1        1 A0H      0.060950
     52 H29A       11.2300    1.4980   -5.3720 h1        1 A0H      0.060950
     53 H30        13.4120    0.6350   -4.9900 h1        1 A0H      0.074200
     54 H30A       13.7090    2.3520   -5.5870 h1        1 A0H      0.074200
     55 H32        14.2640    1.7240   -1.6370 h1        1 A0H      0.074200
     56 H32A       13.7460    0.2590   -2.6240 h1        1 A0H      0.074200
     57 H33        12.0920    2.6650   -1.6010 h1        1 A0H      0.060950
     58 H33A       11.7840    0.8670   -1.4270 h1        1 A0H      0.060950
     59 H34         9.3590    2.2540   -5.1660 ha        1 A0H      0.163000
     60 H35         6.9630    2.4110   -4.7880 ha        1 A0H      0.154500
     61 H132        2.7740   -2.5530   -9.6450 hn        1 A0H      0.449800
     62 H232        5.5260    2.6180   -1.4310 hn        1 A0H      0.476300
@<TRIPOS>BOND
     1    1    2 1   
     2    2    3 2   
     3    2    6 1   
     4    3    4 1   
     5    3   36 1   
     6    4    5 2   
     7    5    6 1   
     8    5   22 1   
     9    6    7 1   
    10    7    8 2   
    11    7   37 1   
    12    8    9 1   
    13    8   21 1   
    14    9   10 ar  
    15    9   20 ar  
    16   10   11 ar  
    17   10   38 1   
    18   11   12 1   
    19   11   18 ar  
    20   12   13 1   
    21   12   39 1   
    22   12   40 1   
    23   13   14 1   
    24   13   41 1   
    25   13   61 1   
    26   14   15 2   
    27   14   16 1   
    28   14   17 2   
    29   16   42 1   
    30   16   43 1   
    31   16   44 1   
    32   18   19 ar  
    33   18   45 1   
    34   19   20 ar  
    35   19   46 1   
    36   20   47 1   
    37   21   22 2   
    38   22   23 1   
    39   23   24 1   
    40   23   48 1   
    41   23   62 1   
    42   24   25 ar  
    43   24   35 ar  
    44   25   26 ar  
    45   25   49 1   
    46   26   27 ar  
    47   26   50 1   
    48   27   28 1   
    49   27   34 ar  
    50   28   29 1   
    51   28   33 1   
    52   29   30 1   
    53   29   51 1   
    54   29   52 1   
    55   30   31 1   
    56   30   53 1   
    57   30   54 1   
    58   31   32 1   
    59   32   33 1   
    60   32   55 1   
    61   32   56 1   
    62   33   57 1   
    63   33   58 1   
    64   34   35 ar  
    65   34   59 1   
    66   35   60 1   
@<TRIPOS>SUBSTRUCTURE
     1 A0H         1 TEMP              0 ****  ****    0 ROOT
