@<TRIPOS>MOLECULE
A0J
   43    46     1     0     0
SMALL
bcc


@<TRIPOS>ATOM
      1 C1          1.2000    0.5040   -0.1500 c3        1 A0J     -0.080100
      2 C2         -0.3090    0.4060   -0.0740 c3        1 A0J     -0.050700
      3 C3         -0.7840    0.2980    1.3600 ca        1 A0J     -0.140300
      4 C4         -0.5670   -0.6850    2.3000 ca        1 A0J     -0.070000
      5 C5         -1.1250   -0.5440    3.5900 ca        1 A0J     -0.017000
      6 C6         -1.8900    0.5900    3.8930 ca        1 A0J     -0.096000
      7 C7         -2.1210    1.5990    2.9530 ca        1 A0J     -0.163000
      8 C8         -1.5670    1.4540    1.6840 ca        1 A0J      0.056600
      9 N9         -1.6470    2.3090    0.5750 n         1 A0J     -0.480100
     10 C10        -0.9320    1.7690   -0.5080 c         1 A0J      0.701500
     11 O11        -0.8410    2.3310   -1.6050 o         1 A0J     -0.607500
     12 C12        -0.9050   -1.5620    4.5800 cc        1 A0J     -0.207300
     13 C13        -0.4300   -2.9180    4.3650 cc        1 A0J      0.308200
     14 N14        -0.3490   -3.5830    5.5420 nd        1 A0J     -0.506800
     15 N15        -0.7430   -2.7280    6.5020 na        1 A0J      0.087400
     16 C16        -1.0960   -1.4820    5.9730 cd        1 A0J     -0.134300
     17 C17        -0.8030   -3.0680    7.9020 c3        1 A0J      0.040600
     18 C18        -0.8780   -0.7340   -0.9190 c3        1 A0J     -0.017100
     19 C19        -0.0560   -1.1170   -2.1000 ca        1 A0J     -0.088300
     20 C20         0.5720   -2.3680   -2.1370 ca        1 A0J     -0.124000
     21 C21         1.3030   -2.7570   -3.2590 ca        1 A0J     -0.132000
     22 C22         1.4120   -1.9010   -4.3540 ca        1 A0J     -0.129000
     23 C23         0.7890   -0.6540   -4.3230 ca        1 A0J     -0.132000
     24 C24         0.0580   -0.2620   -3.2040 ca        1 A0J     -0.124000
     25 H11C        1.5790    1.2830    0.5540 hc        1 A0J      0.053367
     26 H12C        1.6540   -0.4790    0.1220 hc        1 A0J      0.053367
     27 H13C        1.5100    0.7720   -1.1900 hc        1 A0J      0.053367
     28 H181       -1.9060   -0.4450   -1.2740 hc        1 A0J      0.060200
     29 H182       -1.0000   -1.6290   -0.2480 hc        1 A0J      0.060200
     30 H4          0.0390   -1.5700    2.0550 ha        1 A0J      0.141000
     31 H6         -2.3280    0.6930    4.8970 ha        1 A0J      0.131000
     32 H7         -2.7250    2.4770    3.2180 ha        1 A0J      0.140000
     33 H9         -2.1300    3.1690    0.5680 hn        1 A0J      0.339500
     34 H13        -0.1680   -3.3890    3.4170 h4        1 A0J      0.043100
     35 H16        -1.4370   -0.6590    6.6000 h4        1 A0J      0.175000
     36 H171       -1.1060   -2.1570    8.4800 h1        1 A0J      0.058367
     37 H172        0.2020   -3.4210    8.2570 h1        1 A0J      0.058367
     38 H173       -1.5550   -3.8850    8.0680 h1        1 A0J      0.058367
     39 H20         0.4880   -3.0500   -1.2780 ha        1 A0J      0.143500
     40 H24        -0.4260    0.7290   -3.1760 ha        1 A0J      0.143500
     41 H21         1.7920   -3.7420   -3.2780 ha        1 A0J      0.131500
     42 H22         1.9870   -2.2100   -5.2390 ha        1 A0J      0.130000
     43 H23         0.8730    0.0250   -5.1850 ha        1 A0J      0.131500
@<TRIPOS>BOND
     1    1    2 1   
     2    1   25 1   
     3    1   26 1   
     4    1   27 1   
     5    2    3 1   
     6    2   10 1   
     7    2   18 1   
     8    3    4 ar  
     9    3    8 ar  
    10    4    5 ar  
    11    4   30 1   
    12    5    6 ar  
    13    5   12 1   
    14    6    7 ar  
    15    6   31 1   
    16    7    8 ar  
    17    7   32 1   
    18    8    9 1   
    19    9   10 1   
    20    9   33 1   
    21   10   11 2   
    22   12   13 1   
    23   12   16 2   
    24   13   14 2   
    25   13   34 1   
    26   14   15 1   
    27   15   16 1   
    28   15   17 1   
    29   16   35 1   
    30   17   36 1   
    31   17   37 1   
    32   17   38 1   
    33   18   19 1   
    34   18   28 1   
    35   18   29 1   
    36   19   20 ar  
    37   19   24 ar  
    38   20   21 ar  
    39   20   39 1   
    40   21   22 ar  
    41   21   41 1   
    42   22   23 ar  
    43   22   42 1   
    44   23   24 ar  
    45   23   43 1   
    46   24   40 1   
@<TRIPOS>SUBSTRUCTURE
     1 A0J         1 TEMP              0 ****  ****    0 ROOT
