@<TRIPOS>MOLECULE
A0P
   45    46     1     0     0
SMALL
bcc


@<TRIPOS>ATOM
      1 N1          0.5220    0.3210   -0.8510 nb        1 A0P     -0.802000
      2 C2          1.8330    0.3820   -0.4770 ca        1 A0P      0.642900
      3 N3          2.3890    0.4820    0.7490 nb        1 A0P     -0.704000
      4 C4          1.4600    0.5220    1.7540 ca        1 A0P      0.443800
      5 C5          0.0150    0.4820    1.5040 ca        1 A0P     -0.204200
      6 C6         -0.4150    0.3910    0.1460 ca        1 A0P      0.693200
      7 N6         -1.7780    0.4380   -0.1570 nv        1 A0P     -0.927500
      8 N7         -0.6790    0.5320    2.7210 nc        1 A0P     -0.595100
      9 C8          0.2790    0.6000    3.6640 cd        1 A0P      0.451700
     10 N9          1.5930    0.6200    3.1430 na        1 A0P     -0.255000
     11 PA          3.4700   -0.4340    9.2830 p5        1 A0P      1.617800
     12 PB          3.6430   -2.1810   12.0590 p5        1 A0P      1.558700
     13 PG          0.6830   -4.2930   13.8540 p4        1 A0P      1.529300
     14 C1'         2.8280    0.5850    3.9200 c3        1 A0P      0.207800
     15 O1A         2.2930    0.4650    9.1030 o         1 A0P     -0.916500
     16 O1B         4.6520   -3.2190   11.7320 o         1 A0P     -0.876500
     17 O1G         0.4960   -5.1880   12.6940 o         1 A0P     -0.829833
     18 C2'         2.8410    1.6770    5.0460 c3        1 A0P      0.111100
     19 O2'         4.1390    2.2240    5.1130 oh        1 A0P     -0.612800
     20 O2A         4.7760    0.1270    8.8570 o         1 A0P     -0.916500
     21 O2B         3.9410   -1.1080   13.0410 o         1 A0P     -0.876500
     22 O2G        -0.1980   -3.1140   13.9920 o         1 A0P     -0.829833
     23 C3'         2.4330    0.9050    6.3120 c3        1 A0P      0.088100
     24 O3'         1.1010    1.2360    6.6410 oh        1 A0P     -0.667800
     25 O3A         3.4570   -1.3070   10.5870 os        1 A0P     -0.815800
     26 N3B         2.1780   -2.8240   12.2970 n8        1 A0P     -1.097900
     27 O3G         1.4100   -4.7910   15.0400 o         1 A0P     -0.878633
     28 C4'         2.5530   -0.5910    5.9430 c3        1 A0P      0.047100
     29 O4'         2.9800   -0.6720    4.5610 os        1 A0P     -0.421600
     30 C5'         3.6110   -1.3170    6.8110 c3        1 A0P      0.216400
     31 O5'         3.1250   -1.5750    8.0700 os        1 A0P     -0.569200
     32 H2          2.5530    0.3330   -1.3200 h5        1 A0P      0.030100
     33 HN6        -2.0450    0.0480   -1.0310 hn        1 A0P      0.405300
     34 HN6A       -2.3690    0.1910    0.6060 hn        1 A0P      0.405300
     35 H8          0.1220    0.6480    4.7610 h5        1 A0P      0.129800
     36 H1'         3.6950    0.6900    3.2070 h2        1 A0P      0.104700
     37 H2'         2.1560    2.5370    4.8300 h1        1 A0P      0.083700
     38 HO2'        4.6530    1.6920    5.7410 ho        1 A0P      0.439000
     39 H3'         3.1090    1.1300    7.1990 h1        1 A0P      0.148700
     40 HO3'        1.0230    1.0680    7.6060 ho        1 A0P      0.499000
     41 HN3B        1.4210   -2.2360   12.5530 hn        1 A0P      0.410800
     42 H4'         1.5600   -1.1030    6.0230 h1        1 A0P      0.070700
     43 H5'         4.5460   -0.6900    6.8550 h1        1 A0P      0.026200
     44 H5'A        3.8400   -2.2970    6.3050 h1        1 A0P      0.026200
     45 H3B2        1.8750   -3.5770   11.7260 hn        1 A0P      0.410800
@<TRIPOS>BOND
     1    1    2 ar  
     2    1    6 ar  
     3    2    3 ar  
     4    2   32 1   
     5    3    4 ar  
     6    4    5 ar  
     7    4   10 1   
     8    5    6 ar  
     9    5    8 1   
    10    6    7 1   
    11    7   33 1   
    12    7   34 1   
    13    8    9 2   
    14    9   10 1   
    15    9   35 1   
    16   10   14 1   
    17   11   15 1   
    18   11   20 1   
    19   11   25 1   
    20   11   31 1   
    21   12   16 1   
    22   12   21 1   
    23   12   25 1   
    24   12   26 1   
    25   13   17 1   
    26   13   22 1   
    27   13   27 2   
    28   14   18 1   
    29   14   29 1   
    30   14   36 1   
    31   18   19 1   
    32   18   23 1   
    33   18   37 1   
    34   19   38 1   
    35   23   24 1   
    36   23   28 1   
    37   23   39 1   
    38   24   40 1   
    39   26   41 1   
    40   26   45 1   
    41   28   29 1   
    42   28   30 1   
    43   28   42 1   
    44   30   31 1   
    45   30   43 1   
    46   30   44 1   
@<TRIPOS>SUBSTRUCTURE
     1 A0P         1 TEMP              0 ****  ****    0 ROOT
