@<TRIPOS>MOLECULE
A11
   37    38     1     0     0
SMALL
bcc


@<TRIPOS>ATOM
      1 Cl          0.2120    0.2640    0.3460 cl        1 A11     -0.083400
      2 C2          1.8530   -0.0700    0.0720 ca        1 A11      0.081400
      3 C3          2.6250   -0.6670    1.0720 ca        1 A11     -0.286300
      4 C4          3.9750   -0.9220    0.7770 ca        1 A11      0.441200
      5 N5          4.5680   -0.6380   -0.3890 nb        1 A11     -0.721000
      6 C6          3.8090   -0.0330   -1.3650 ca        1 A11      0.638200
      7 C7          2.4270    0.2530   -1.1580 ca        1 A11     -0.289300
      8 N8          4.4620    0.3870   -2.5430 nu        1 A11     -0.820900
      9 C9          3.7390    0.3150   -3.8020 c3        1 A11      0.195500
     10 C10         3.2170   -1.0860   -4.1650 c3        1 A11     -0.128900
     11 C11         2.4510   -1.0420   -5.4870 c3        1 A11      0.073000
     12 N12         3.1820   -0.4420   -6.5850 n         1 A11     -0.404800
     13 C13         3.8050    0.8310   -6.2620 c3        1 A11      0.073000
     14 C14         4.6070    0.8340   -4.9610 c3        1 A11     -0.128900
     15 C15         3.8640   -1.2590   -7.4930 c         1 A11      0.721100
     16 O16         4.7150   -0.8990   -8.3250 o         1 A11     -0.583000
     17 O17         3.4620   -2.5790   -7.5080 os        1 A11     -0.443900
     18 C18         4.0160   -3.3720   -8.5770 c3        1 A11      0.149400
     19 C19         3.4150   -4.7480   -8.4230 c3        1 A11     -0.102100
     20 H3          2.2030   -0.9300    2.0500 ha        1 A11      0.158000
     21 H4          4.6310   -1.3980    1.5310 h4        1 A11      0.027100
     22 H7          1.8240    0.7320   -1.9420 ha        1 A11      0.157000
     23 HN8         5.4070    0.0600   -2.6220 hn        1 A11      0.412800
     24 H9          2.8460    1.0050   -3.7120 h1        1 A11      0.064700
     25 H101        4.0700   -1.8080   -4.2370 hc        1 A11      0.062450
     26 H102        2.5230   -1.4520   -3.3650 hc        1 A11      0.062450
     27 H111        2.1330   -2.0860   -5.7650 h1        1 A11      0.073200
     28 H112        1.5220   -0.4170   -5.3480 h1        1 A11      0.073200
     29 H131        4.4780    1.1420   -7.1110 h1        1 A11      0.073200
     30 H132        2.9660    1.5800   -6.1790 h1        1 A11      0.073200
     31 H141        5.5240    0.2000   -5.0740 hc        1 A11      0.062450
     32 H142        4.9390    1.8850   -4.7550 hc        1 A11      0.062450
     33 H181        3.7430   -2.8990   -9.5560 h1        1 A11      0.055200
     34 H182        5.1320   -3.3840   -8.4720 h1        1 A11      0.055200
     35 H191        3.6780   -5.1830   -7.4300 hc        1 A11      0.048700
     36 H192        3.8140   -5.4080   -9.2300 hc        1 A11      0.048700
     37 H193        2.3030   -4.7030   -8.5040 hc        1 A11      0.048700
@<TRIPOS>BOND
     1    1    2 1   
     2    2    3 ar  
     3    2    7 ar  
     4    3    4 ar  
     5    3   20 1   
     6    4    5 ar  
     7    4   21 1   
     8    5    6 ar  
     9    6    7 ar  
    10    6    8 1   
    11    7   22 1   
    12    8    9 1   
    13    8   23 1   
    14    9   10 1   
    15    9   14 1   
    16    9   24 1   
    17   10   11 1   
    18   10   25 1   
    19   10   26 1   
    20   11   12 1   
    21   11   27 1   
    22   11   28 1   
    23   12   13 1   
    24   12   15 1   
    25   13   14 1   
    26   13   29 1   
    27   13   30 1   
    28   14   31 1   
    29   14   32 1   
    30   15   16 2   
    31   15   17 1   
    32   17   18 1   
    33   18   19 1   
    34   18   33 1   
    35   18   34 1   
    36   19   35 1   
    37   19   36 1   
    38   19   37 1   
@<TRIPOS>SUBSTRUCTURE
     1 A11         1 TEMP              0 ****  ****    0 ROOT
