@<TRIPOS>MOLECULE
A11
   37    38     1     0     0
SMALL
bcc


@<TRIPOS>ATOM
      1 CL          4.6780    1.9180   -0.9230 cl        1 A11     -0.083400
      2 C2          4.0340    0.6700    0.0310 ca        1 A11      0.081400
      3 C3          4.6890    0.2710    1.1990 ca        1 A11     -0.286300
      4 C4          4.0990   -0.7650    1.9450 ca        1 A11      0.441200
      5 N5          2.9600   -1.3870    1.6190 nb        1 A11     -0.721000
      6 C6          2.3280   -1.0030    0.4570 ca        1 A11      0.638200
      7 C7          2.8480    0.0460   -0.3580 ca        1 A11     -0.289300
      8 N8          1.2020   -1.7450    0.0430 nh        1 A11     -0.820900
      9 C9          0.1180   -1.0460   -0.6300 c3        1 A11      0.195500
     10 C10        -0.4960    0.1130    0.1730 c3        1 A11     -0.128900
     11 C11        -1.6000    0.7930   -0.6350 c3        1 A11      0.073000
     12 N12        -2.6180   -0.1090   -1.1380 n         1 A11     -0.404800
     13 C13        -2.0930   -1.2910   -1.8010 c3        1 A11      0.073000
     14 C14        -1.0020   -2.0250   -1.0210 c3        1 A11     -0.128900
     15 C15        -3.8150   -0.2680   -0.4310 c         1 A11      0.721100
     16 O16        -4.6630   -1.1610   -0.5950 o         1 A11     -0.583000
     17 O17        -4.0980    0.7380    0.4700 os        1 A11     -0.443900
     18 C18        -5.4190    0.6820    1.0480 c3        1 A11      0.149400
     19 C19        -5.5220    1.8830    1.9560 c3        1 A11     -0.102100
     20 H3          5.6240    0.7400    1.5280 ha        1 A11      0.158000
     21 H4          4.5720   -1.1160    2.8810 h4        1 A11      0.027100
     22 H7          2.3380    0.3530   -1.2800 ha        1 A11      0.157000
     23 HN8         0.8730   -2.3980    0.7280 hn        1 A11      0.412800
     24 H9          0.5440   -0.6180   -1.5870 h1        1 A11      0.064700
     25 H101       -0.9050   -0.2650    1.1450 hc        1 A11      0.062450
     26 H102        0.2930    0.8750    0.4050 hc        1 A11      0.062450
     27 H111       -1.1390    1.2840   -1.5410 h1        1 A11      0.073200
     28 H112       -2.0780    1.5960   -0.0070 h1        1 A11      0.073200
     29 H131       -2.9390   -2.0050   -2.0130 h1        1 A11      0.073200
     30 H132       -1.6690   -0.9380   -2.7850 h1        1 A11      0.073200
     31 H141       -1.4390   -2.5010   -0.1060 hc        1 A11      0.062450
     32 H142       -0.5930   -2.8410   -1.6710 hc        1 A11      0.062450
     33 H181       -5.5230   -0.2830    1.6090 h1        1 A11      0.055200
     34 H182       -6.1760    0.7110    0.2210 h1        1 A11      0.055200
     35 H191       -5.3870    2.8270    1.3760 hc        1 A11      0.048700
     36 H192       -6.5310    1.8870    2.4340 hc        1 A11      0.048700
     37 H193       -4.7400    1.8430    2.7510 hc        1 A11      0.048700
@<TRIPOS>BOND
     1    1    2 1   
     2    2    3 ar  
     3    2    7 ar  
     4    3    4 ar  
     5    3   20 1   
     6    4    5 ar  
     7    4   21 1   
     8    5    6 ar  
     9    6    7 ar  
    10    6    8 1   
    11    7   22 1   
    12    8    9 1   
    13    8   23 1   
    14    9   10 1   
    15    9   14 1   
    16    9   24 1   
    17   10   11 1   
    18   10   25 1   
    19   10   26 1   
    20   11   12 1   
    21   11   27 1   
    22   11   28 1   
    23   12   13 1   
    24   12   15 1   
    25   13   14 1   
    26   13   29 1   
    27   13   30 1   
    28   14   31 1   
    29   14   32 1   
    30   15   16 2   
    31   15   17 1   
    32   17   18 1   
    33   18   19 1   
    34   18   33 1   
    35   18   34 1   
    36   19   35 1   
    37   19   36 1   
    38   19   37 1   
@<TRIPOS>SUBSTRUCTURE
     1 A11         1 TEMP              0 ****  ****    0 ROOT
