@<TRIPOS>MOLECULE
A11
   37    38     1     0     0
SMALL
bcc


@<TRIPOS>ATOM
      1 CL          0.1940    0.2860    0.3290 cl        1 A11     -0.083400
      2 C2          1.8350   -0.0590    0.0630 ca        1 A11      0.081400
      3 C3          2.5970   -0.6610    1.0680 ca        1 A11     -0.286300
      4 C4          3.9470   -0.9260    0.7790 ca        1 A11      0.441200
      5 N5          4.5480   -0.6460   -0.3830 nb        1 A11     -0.721000
      6 C6          3.7990   -0.0350   -1.3640 ca        1 A11      0.638200
      7 C7          2.4170    0.2610   -1.1640 ca        1 A11     -0.289300
      8 N8          4.4600    0.3810   -2.5380 nh        1 A11     -0.820900
      9 C9          3.7440    0.3130   -3.8010 c3        1 A11      0.195500
     10 C10         3.2150   -1.0840   -4.1670 c3        1 A11     -0.128900
     11 C11         2.4570   -1.0360   -5.4920 c3        1 A11      0.073000
     12 N12         3.1980   -0.4400   -6.5870 n         1 A11     -0.404800
     13 C13         3.8270    0.8290   -6.2600 c3        1 A11      0.073000
     14 C14         4.6220    0.8270   -4.9550 c3        1 A11     -0.128900
     15 C15         3.8790   -1.2620   -7.4910 c         1 A11      0.721100
     16 O16         4.7370   -0.9080   -8.3180 o         1 A11     -0.583000
     17 O17         3.4690   -2.5790   -7.5070 os        1 A11     -0.443900
     18 C18         4.0240   -3.3760   -8.5730 c3        1 A11      0.149400
     19 C19         3.4130   -4.7480   -8.4230 c3        1 A11     -0.102100
     20 H3          2.1680   -0.9220    2.0430 ha        1 A11      0.158000
     21 H4          4.5950   -1.4060    1.5370 h4        1 A11      0.027100
     22 H7          1.8220    0.7430   -1.9500 ha        1 A11      0.157000
     23 HN8         5.4030    0.0470   -2.6110 hn        1 A11      0.412800
     24 H9          2.8550    1.0090   -3.7150 h1        1 A11      0.064700
     25 H101        4.0640   -1.8120   -4.2340 hc        1 A11      0.062450
     26 H102        2.5140   -1.4450   -3.3700 hc        1 A11      0.062450
     27 H111        1.5300   -0.4040   -5.3590 h1        1 A11      0.073200
     28 H112        2.1320   -2.0770   -5.7730 h1        1 A11      0.073200
     29 H131        2.9920    1.5830   -6.1820 h1        1 A11      0.073200
     30 H132        4.5060    1.1350   -7.1060 h1        1 A11      0.073200
     31 H141        5.5350    0.1860   -5.0630 hc        1 A11      0.062450
     32 H142        4.9590    1.8750   -4.7470 hc        1 A11      0.062450
     33 H181        5.1390   -3.3960   -8.4620 h1        1 A11      0.055200
     34 H182        3.7600   -2.9010   -9.5540 h1        1 A11      0.055200
     35 H191        3.6680   -5.1850   -7.4280 hc        1 A11      0.048700
     36 H192        2.3020   -4.6950   -8.5100 hc        1 A11      0.048700
     37 H193        3.8120   -5.4110   -9.2270 hc        1 A11      0.048700
@<TRIPOS>BOND
     1    1    2 1   
     2    2    3 ar  
     3    2    7 ar  
     4    3    4 ar  
     5    3   20 1   
     6    4    5 ar  
     7    4   21 1   
     8    5    6 ar  
     9    6    7 ar  
    10    6    8 1   
    11    7   22 1   
    12    8    9 1   
    13    8   23 1   
    14    9   10 1   
    15    9   14 1   
    16    9   24 1   
    17   10   11 1   
    18   10   25 1   
    19   10   26 1   
    20   11   12 1   
    21   11   27 1   
    22   11   28 1   
    23   12   13 1   
    24   12   15 1   
    25   13   14 1   
    26   13   29 1   
    27   13   30 1   
    28   14   31 1   
    29   14   32 1   
    30   15   16 2   
    31   15   17 1   
    32   17   18 1   
    33   18   19 1   
    34   18   33 1   
    35   18   34 1   
    36   19   35 1   
    37   19   36 1   
    38   19   37 1   
@<TRIPOS>SUBSTRUCTURE
     1 A11         1 TEMP              0 ****  ****    0 ROOT
