@<TRIPOS>MOLECULE
A11
   38    39     1     0     0
SMALL
bcc


@<TRIPOS>ATOM
      1 CL          0.8390    0.6890    1.4710 cl        1 A11      0.008600
      2 C2          2.2900    0.5720    0.6280 ca        1 A11      0.060400
      3 C3          3.3700    1.4030    0.9370 ca        1 A11     -0.188300
      4 C4          4.5620    1.2570    0.1950 ca        1 A11      0.444200
      5 N5          4.7220    0.3660   -0.7930 nb        1 A11     -0.651000
      6 C6          3.6560   -0.4370   -1.0760 ca        1 A11      0.462200
      7 C7          2.4190   -0.3780   -0.4030 ca        1 A11     -0.212300
      8 N8          3.8370   -1.4310   -2.1580 n4        1 A11     -0.751700
      9 C9          3.2230   -0.9740   -3.4660 c3        1 A11      0.131500
     10 C10         2.9250   -2.1790   -4.3640 c3        1 A11     -0.138900
     11 C11         2.2980   -1.6850   -5.6790 c3        1 A11      0.082500
     12 N12         3.0690   -0.6680   -6.3510 n         1 A11     -0.421800
     13 C13         3.4680    0.4420   -5.5130 c3        1 A11      0.082500
     14 C14         4.1290    0.0220   -4.1930 c3        1 A11     -0.138900
     15 C15         3.9280   -1.0140   -7.4080 c         1 A11      0.723100
     16 O16         4.8280   -0.2990   -7.8730 o         1 A11     -0.554000
     17 O17         3.6740   -2.2360   -7.9780 os        1 A11     -0.442900
     18 C18         4.3860   -2.4930   -9.2130 c3        1 A11      0.149400
     19 C19         3.8940   -3.8340   -9.6950 c3        1 A11     -0.106100
     20 H3          3.3070    2.1560    1.7390 ha        1 A11      0.196000
     21 H4          5.4470    1.8940    0.4050 h4        1 A11      0.071100
     22 H7          1.5770   -1.0410   -0.6560 ha        1 A11      0.177000
     23 HN8         3.3880   -2.3060   -1.8620 hn        1 A11      0.463300
     24 H9          2.2480   -0.4630   -3.1980 hx        1 A11      0.107700
     25 H101        3.8650   -2.7490   -4.5860 hc        1 A11      0.078450
     26 H102        2.1960   -2.8750   -3.8740 hc        1 A11      0.078450
     27 H111        2.1480   -2.5710   -6.3600 h1        1 A11      0.093950
     28 H112        1.2860   -1.2400   -5.4500 h1        1 A11      0.093950
     29 H131        2.5380    1.0380   -5.2850 h1        1 A11      0.093950
     30 H132        4.1870    1.1030   -6.0810 h1        1 A11      0.093950
     31 H141        4.2880    0.9420   -3.5710 hc        1 A11      0.078450
     32 H142        5.1320   -0.4350   -4.4000 hc        1 A11      0.078450
     33 H181        5.4850   -2.4950   -8.9910 h1        1 A11      0.064200
     34 H182        4.1540   -1.6690   -9.9370 h1        1 A11      0.064200
     35 H191        2.7920   -3.8120   -9.8720 hc        1 A11      0.056033
     36 H192        4.1150   -4.6310   -8.9450 hc        1 A11      0.056033
     37 H193        4.4130   -4.0820  -10.6530 hc        1 A11      0.056033
     38 H82         4.8410   -1.6080   -2.3080 hn        1 A11      0.463300
@<TRIPOS>BOND
     1    1    2 1   
     2    2    3 ar  
     3    2    7 ar  
     4    3    4 ar  
     5    3   20 1   
     6    4    5 ar  
     7    4   21 1   
     8    5    6 ar  
     9    6    7 ar  
    10    6    8 1   
    11    7   22 1   
    12    8    9 1   
    13    8   23 1   
    14    8   38 1   
    15    9   10 1   
    16    9   14 1   
    17    9   24 1   
    18   10   11 1   
    19   10   25 1   
    20   10   26 1   
    21   11   12 1   
    22   11   27 1   
    23   11   28 1   
    24   12   13 1   
    25   12   15 1   
    26   13   14 1   
    27   13   29 1   
    28   13   30 1   
    29   14   31 1   
    30   14   32 1   
    31   15   16 2   
    32   15   17 1   
    33   17   18 1   
    34   18   19 1   
    35   18   33 1   
    36   18   34 1   
    37   19   35 1   
    38   19   36 1   
    39   19   37 1   
@<TRIPOS>SUBSTRUCTURE
     1 A11         1 TEMP              0 ****  ****    0 ROOT
