@<TRIPOS>MOLECULE
A11
   37    36     1     0     0
SMALL
bcc


@<TRIPOS>ATOM
      1 CL         -4.9840    4.7700    2.2600 cl        1 A11     -0.003000
      2 C2         -3.9220    3.4060    2.6390 c2        1 A11     -0.005000
      3 C3         -4.1180    2.6850    3.7930 c2        1 A11     -0.211000
      4 C4         -3.2440    1.6590    4.1270 c1        1 A11     -0.030000
      5 N5         -2.1850    1.3660    3.3060 n1        1 A11     -0.190000
      6 C6         -1.9900    2.0850    2.1560 c1        1 A11      0.100000
      7 C7         -2.8670    3.1130    1.8210 c1        1 A11     -0.204000
      8 N8         -0.8250    1.8490    1.3490 n3        1 A11     -0.255000
      9 C9         -0.7260    0.6260    0.5420 c3        1 A11     -0.009000
     10 C10         0.1250   -0.3690    1.2750 c3        1 A11     -0.205000
     11 C11         0.4350   -1.6070    0.4310 c3        1 A11     -0.043000
     12 N12         0.9790   -1.2690   -0.8790 n         1 A11     -0.264000
     13 C13         0.1350   -0.2810   -1.6170 c3        1 A11     -0.043000
     14 C14        -0.1750    0.9660   -0.7760 c3        1 A11     -0.205000
     15 C15         1.7860   -2.2550   -1.6160 c2        1 A11      0.375000
     16 O16         1.7870   -3.3950   -1.2730 o         1 A11     -0.394000
     17 O17         2.6990   -1.8160   -2.6260 os        1 A11     -0.281000
     18 C18         3.2510   -2.8520   -3.3870 c3        1 A11      0.000000
     19 C19         4.6780   -2.5100   -3.7320 c3        1 A11     -0.246000
     20 H3         -4.8850    2.8970    4.3870 ha        1 A11      0.159000
     21 H4         -3.3890    1.1290    4.9770 ha        1 A11      0.164000
     22 H7         -2.7230    3.6400    0.9790 ha        1 A11      0.160000
     23 HN8        -0.1530    2.4760    1.3170 hn        1 A11      0.198000
     24 H9         -1.6420    0.2420    0.4200 h1        1 A11      0.104000
     25 H101        0.9550    0.0550    1.5240 hc        1 A11      0.101250
     26 H102       -0.3520   -0.6550    2.1030 hc        1 A11      0.101250
     27 H111       -0.3910   -2.1180    0.3060 h1        1 A11      0.111750
     28 H112        1.0820   -2.1640    0.9110 h1        1 A11      0.111750
     29 H131       -0.7070   -0.7110   -1.8630 h1        1 A11      0.111750
     30 H132        0.6080   -0.0030   -2.4430 h1        1 A11      0.111750
     31 H141       -0.8400    1.5380   -1.2730 hc        1 A11      0.101250
     32 H142        0.6510    1.4780   -0.6510 hc        1 A11      0.101250
     33 H181        2.7460   -2.9620   -4.1920 h1        1 A11      0.104000
     34 H182        3.2280   -3.6920   -2.8700 h1        1 A11      0.104000
     35 H191        5.2310   -2.5440   -2.9170 hc        1 A11      0.089667
     36 H192        4.7130   -1.6110   -4.1100 hc        1 A11      0.089667
     37 H193        5.0270   -3.1660   -4.4000 hc        1 A11      0.089667
@<TRIPOS>BOND
     1    1    2 1   
     2    2    3 1   
     3    2    7 1   
     4    3    4 1   
     5    3   20 1   
     6    4   21 1   
     7    5    6 1   
     8    6    8 1   
     9    7   22 1   
    10    8    9 1   
    11    8   23 1   
    12    9   10 1   
    13    9   14 1   
    14    9   24 1   
    15   10   11 1   
    16   10   25 1   
    17   10   26 1   
    18   11   12 1   
    19   11   27 1   
    20   11   28 1   
    21   12   13 1   
    22   12   15 1   
    23   13   14 1   
    24   13   29 1   
    25   13   30 1   
    26   14   31 1   
    27   14   32 1   
    28   15   16 1   
    29   15   17 1   
    30   17   18 1   
    31   18   19 1   
    32   18   33 1   
    33   18   34 1   
    34   19   35 1   
    35   19   36 1   
    36   19   37 1   
@<TRIPOS>SUBSTRUCTURE
     1 A11         1 TEMP              0 ****  ****    0 ROOT
