@<TRIPOS>MOLECULE
A13
   19    19     1     0     0
SMALL
bcc


@<TRIPOS>ATOM
      1 C1         -0.0530   -0.0520   -0.0300 ca        1 A13      0.502600
      2 C2          1.3720   -0.0380   -0.0330 ca        1 A13     -0.264600
      3 C3          2.0300    0.0270    1.2030 ca        1 A13      0.380600
      4 N4          1.3650    0.0770    2.3850 nb        1 A13     -0.631000
      5 C5          0.0040    0.0590    2.2760 ca        1 A13      0.700900
      6 N6         -0.7520   -0.0030    1.1300 nb        1 A13     -0.661000
      7 N7         -0.7580    0.1120    3.5590 n4        1 A13     -0.814300
      8 C8         -0.7730   -0.1210   -1.3340 c3        1 A13     -0.178400
      9 C9          3.5840    0.0460    1.2740 c3        1 A13      0.610600
     10 F10         4.0760    1.1740    1.8690 f         1 A13     -0.199633
     11 F11         4.0970   -1.0100    1.9730 f         1 A13     -0.199633
     12 F12         4.1660   -0.0080    0.0370 f         1 A13     -0.199633
     13 H2          1.9340   -0.0780   -0.9820 ha        1 A13      0.214000
     14 HN71       -0.1070    0.1580    4.3560 hn        1 A13      0.486133
     15 HN72       -1.3420   -0.7320    3.6380 hn        1 A13      0.486133
     16 H81        -0.4670   -1.0540   -1.8730 hc        1 A13      0.094033
     17 H82        -1.8860   -0.1280   -1.2130 hc        1 A13      0.094033
     18 H83        -0.4870    0.7650   -1.9580 hc        1 A13      0.094033
     19 H73        -1.3610    0.9450    3.5560 hn        1 A13      0.486133
@<TRIPOS>BOND
     1    1    2 ar  
     2    1    6 ar  
     3    1    8 1   
     4    2    3 ar  
     5    2   13 1   
     6    3    4 ar  
     7    3    9 1   
     8    4    5 ar  
     9    5    6 ar  
    10    5    7 1   
    11    7   14 1   
    12    7   15 1   
    13    7   19 1   
    14    8   16 1   
    15    8   17 1   
    16    8   18 1   
    17    9   10 1   
    18    9   11 1   
    19    9   12 1   
@<TRIPOS>SUBSTRUCTURE
     1 A13         1 TEMP              0 ****  ****    0 ROOT
