@<TRIPOS>MOLECULE
A13
   18    18     1     0     0
SMALL
bcc


@<TRIPOS>ATOM
      1 C1         -0.0510   -0.0420    0.0030 ca        1 A13      0.493600
      2 C2          1.3680   -0.0620   -0.0200 ca        1 A13     -0.392600
      3 C3          2.0180    0.0040    1.2180 ca        1 A13      0.411600
      4 N4          1.3780    0.0920    2.4000 nb        1 A13     -0.727000
      5 C5         -0.0120    0.1280    2.3290 ca        1 A13      0.888900
      6 N6         -0.7510    0.0440    1.1490 nb        1 A13     -0.740000
      7 N7         -0.7110    0.3140    3.5160 nv        1 A13     -0.934500
      8 C8         -0.7760   -0.1100   -1.3030 c3        1 A13     -0.160400
      9 C9          3.5630   -0.0330    1.2700 c3        1 A13      0.594600
     10 F10         4.1280    1.0780    1.8390 f         1 A13     -0.226967
     11 F11         4.0720   -1.0940    1.9720 f         1 A13     -0.226967
     12 F12         4.1550   -0.1230    0.0350 f         1 A13     -0.226967
     13 H2          1.9220   -0.1310   -0.9630 ha        1 A13      0.171000
     14 HN71       -0.2210    0.1820    4.3690 hn        1 A13      0.440800
     15 HN72       -1.6880    0.1390    3.5110 hn        1 A13      0.440800
     16 H81        -1.8310   -0.4580   -1.1820 hc        1 A13      0.064033
     17 H82        -0.7890    0.9100   -1.7630 hc        1 A13      0.064033
     18 H83        -0.2420   -0.8100   -1.9920 hc        1 A13      0.064033
@<TRIPOS>BOND
     1    1    2 ar  
     2    1    6 ar  
     3    1    8 1   
     4    2    3 ar  
     5    2   13 1   
     6    3    4 ar  
     7    3    9 1   
     8    4    5 ar  
     9    5    6 ar  
    10    5    7 1   
    11    7   14 1   
    12    7   15 1   
    13    8   16 1   
    14    8   17 1   
    15    8   18 1   
    16    9   10 1   
    17    9   11 1   
    18    9   12 1   
@<TRIPOS>SUBSTRUCTURE
     1 A13         1 TEMP              0 ****  ****    0 ROOT
