@<TRIPOS>MOLECULE
A13
   18    18     1     0     0
SMALL
bcc


@<TRIPOS>ATOM
      1 C1          1.8060   -1.1290   -0.0250 ca        1 A13      0.493600
      2 C2          0.3900   -1.2170   -0.0460 ca        1 A13     -0.392600
      3 C3         -0.3160   -0.0090   -0.0020 ca        1 A13      0.411600
      4 N4          0.2690    1.2020    0.0500 nb        1 A13     -0.727000
      5 C5          1.6610    1.1990    0.0450 ca        1 A13      0.888900
      6 N6          2.4530    0.0500    0.0280 nb        1 A13     -0.740000
      7 N7          2.3070    2.4290    0.0010 nh        1 A13     -0.934500
      8 C8          2.5920   -2.4000   -0.0720 c3        1 A13     -0.160400
      9 C9         -1.8630   -0.0300   -0.0030 c3        1 A13      0.594600
     10 F10        -2.4280    0.5330    1.1110 f         1 A13     -0.226967
     11 F11        -2.4290    0.6250   -1.0640 f         1 A13     -0.226967
     12 F12        -2.3970   -1.2940   -0.0560 f         1 A13     -0.226967
     13 H2         -0.1200   -2.1860   -0.0900 ha        1 A13      0.171000
     14 HN71        1.7740    3.2400    0.2070 hn        1 A13      0.440800
     15 HN72        3.2790    2.4490    0.2020 hn        1 A13      0.440800
     16 H81         2.6750   -2.7350   -1.1370 hc        1 A13      0.064033
     17 H82         3.6230   -2.2750    0.3410 hc        1 A13      0.064033
     18 H83         2.0620   -3.1910    0.5140 hc        1 A13      0.064033
@<TRIPOS>BOND
     1    1    2 ar  
     2    1    6 ar  
     3    1    8 1   
     4    2    3 ar  
     5    2   13 1   
     6    3    4 ar  
     7    3    9 1   
     8    4    5 ar  
     9    5    6 ar  
    10    5    7 1   
    11    7   14 1   
    12    7   15 1   
    13    8   16 1   
    14    8   17 1   
    15    8   18 1   
    16    9   10 1   
    17    9   11 1   
    18    9   12 1   
@<TRIPOS>SUBSTRUCTURE
     1 A13         1 TEMP              0 ****  ****    0 ROOT
