@<TRIPOS>MOLECULE
A13
   18    15     1     0     0
SMALL
bcc


@<TRIPOS>ATOM
      1 C1         -0.8940    0.0030   -0.8740 c1        1 A13      0.423700
      2 C2          0.4700   -0.0020   -0.9260 c1        1 A13     -0.204500
      3 C3          1.1960   -0.0280    0.2290 c1        1 A13      0.015900
      4 N4          0.5680   -0.0480    1.4140 n1        1 A13     -0.526800
      5 C5         -0.7940   -0.0440    1.4650 c1        1 A13      0.551600
      6 N6         -1.5190   -0.0180    0.3120 n1        1 A13     -0.539800
      7 N7         -1.4560   -0.0760    2.7190 n3        1 A13     -0.797400
      8 C8         -1.6990    0.0840   -2.1530 c3        1 A13     -0.093000
      9 C9          2.7070   -0.0050    0.1740 c3        1 A13      0.662000
     10 F10         3.1090    0.9450   -0.6800 f         1 A13     -0.226967
     11 F11         3.1950    0.2550    1.3930 f         1 A13     -0.226967
     12 F12         3.1560   -1.1970   -0.2410 f         1 A13     -0.226967
     13 H2          0.9260    0.0140   -1.7890 ha        1 A13      0.113500
     14 HN71       -2.3150    0.2280    2.7900 hn        1 A13      0.440800
     15 HN72       -1.0290   -0.4150    3.4530 hn        1 A13      0.440800
     16 H81        -1.4860    0.9180   -2.6210 hc        1 A13      0.064033
     17 H82        -2.6550    0.0650   -1.9380 hc        1 A13      0.064033
     18 H83        -1.4780   -0.6790   -2.7270 hc        1 A13      0.064033
@<TRIPOS>BOND
     1    1    6 3   
     2    1    8 1   
     3    2    3 3   
     4    2   13 1   
     5    3    9 1   
     6    4    5 3   
     7    5    7 1   
     8    7   14 1   
     9    7   15 1   
    10    8   16 1   
    11    8   17 1   
    12    8   18 1   
    13    9   10 1   
    14    9   11 1   
    15    9   12 1   
@<TRIPOS>SUBSTRUCTURE
     1 A13         1 TEMP              0 ****  ****    0 ROOT
