@<TRIPOS>MOLECULE
A13
   18    18     1     0     0
SMALL
bcc


@<TRIPOS>ATOM
      1 C1         -0.0520   -0.0650    0.0050 ca        1 A13      0.493600
      2 C2          1.3670   -0.0510   -0.0210 ca        1 A13     -0.392600
      3 C3          2.0180    0.0340    1.2150 ca        1 A13      0.411600
      4 N4          1.3790    0.0930    2.3990 nb        1 A13     -0.727000
      5 C5         -0.0110    0.0510    2.3350 ca        1 A13      0.888900
      6 N6         -0.7510   -0.0080    1.1540 nb        1 A13     -0.740000
      7 N7         -0.7090    0.0150    3.5370 nh        1 A13     -0.934500
      8 C8         -0.7780   -0.1540   -1.2980 c3        1 A13     -0.160400
      9 C9          3.5630    0.0720    1.2610 c3        1 A13      0.594600
     10 F10         4.0760    1.2100    1.8270 f         1 A13     -0.226967
     11 F11         4.1270   -0.9620    1.9620 f         1 A13     -0.226967
     12 F12         4.1530    0.0090    0.0230 f         1 A13     -0.226967
     13 H2          1.9190   -0.1000   -0.9660 ha        1 A13      0.171000
     14 HN71       -1.6850    0.1900    3.5110 hn        1 A13      0.440800
     15 HN72       -0.2170    0.2490    4.3660 hn        1 A13      0.440800
     16 H81        -1.8430    0.1730   -1.2140 hc        1 A13      0.063700
     17 H82        -0.7590   -1.2160   -1.6500 hc        1 A13      0.063700
     18 H83        -0.2640    0.4860   -2.0570 hc        1 A13      0.063700
@<TRIPOS>BOND
     1    1    2 ar  
     2    1    6 ar  
     3    1    8 1   
     4    2    3 ar  
     5    2   13 1   
     6    3    4 ar  
     7    3    9 1   
     8    4    5 ar  
     9    5    6 ar  
    10    5    7 1   
    11    7   14 1   
    12    7   15 1   
    13    8   16 1   
    14    8   17 1   
    15    8   18 1   
    16    9   10 1   
    17    9   11 1   
    18    9   12 1   
@<TRIPOS>SUBSTRUCTURE
     1 A13         1 TEMP              0 ****  ****    0 ROOT
