@<TRIPOS>MOLECULE
A14
   44    44     1     0     0
SMALL
bcc


@<TRIPOS>ATOM
      1 C1          0.6450   -4.9700   -4.3390 c1        1 A14      0.773000
      2 C2         -0.1520   -4.6170   -3.0860 c2        1 A14      0.137200
      3 C3          0.5210   -3.3830   -2.3530 c3        1 A14     -0.141700
      4 C4         -0.6060   -2.1440   -2.1780 c3        1 A14     -0.072400
      5 C7          0.0600   -0.8570   -1.0700 c3        1 A14     -0.142400
      6 C10        -0.8170   -0.8650    0.3980 c         1 A14      0.663100
      7 N11        -0.7650    0.5120    1.4620 n         1 A14     -0.531900
      8 C12        -0.7850    0.5140    1.4860 cy        1 A14      0.025700
      9 C13        -1.6010    1.5840    1.2740 c         1 A14      0.621100
     10 N14        -0.1680   -5.7020   -2.2300 nh        1 A14     -0.478100
     11 O15        -1.6160   -1.7400    0.6040 o         1 A14     -0.657100
     12 C16        -0.3270    1.1350    2.2730 cy        1 A14     -0.032600
     13 S17         1.1080    1.6930    1.9010 ss        1 A14     -0.333200
     14 O18        -2.5130    1.8160    0.5150 o         1 A14     -0.518100
     15 O19         0.4530   -4.3210   -5.4230 o         1 A14     -0.820500
     16 O20         1.5070   -5.8870   -4.2990 o         1 A14     -0.820500
     17 C30        -0.5760    3.2320    1.7610 c3        1 A14     -0.177700
     18 C31        -0.7850    3.5350    0.3350 c         1 A14      0.927600
     19 C32         0.9970    2.9150    2.0110 c3        1 A14      0.085100
     20 C33         1.8980    3.6560    0.9150 c3        1 A14     -0.082100
     21 C37         1.4040    3.3760    3.4420 c3        1 A14     -0.082100
     22 O42        -1.7680    3.0380   -0.2740 o         1 A14     -0.825300
     23 O43         0.0160    4.4400   -0.2930 o         1 A14     -0.825300
     24 C15        -1.1910    2.0670    2.0610 cy        1 A14     -0.152700
     25 H2         -1.0790   -4.3850   -3.3430 h4        1 A14     -0.047200
     26 H3C1        1.2560   -3.0730   -2.8690 hc        1 A14      0.043700
     27 H3C2        0.8330   -3.6570   -1.4810 hc        1 A14      0.043700
     28 H141       -0.9180   -5.6540   -1.6870 hn        1 A14      0.172700
     29 H142       -0.1920   -6.4800   -2.7210 hn        1 A14      0.172700
     30 H4C1       -0.7960   -1.7550   -3.0530 hc        1 A14      0.051200
     31 H4C2       -1.4370   -2.5060   -1.7940 hc        1 A14      0.051200
     32 H7C1        1.0080   -1.0390   -0.8880 hc        1 A14      0.060700
     33 H7C2       -0.0270    0.0150   -1.4970 hc        1 A14      0.060700
     34 H11        -0.0820    1.1220    1.3950 hn        1 A14      0.362500
     35 H12        -1.0390   -0.3800    1.5510 h1        1 A14      0.085700
     36 H16        -0.3910    0.7460    3.1630 h1        1 A14      0.063700
     37 H15        -1.8610    2.1620    2.8580 hc        1 A14      0.052700
     38 H30        -0.9380    4.0500    2.1820 hc        1 A14      0.054700
     39 H331        1.9460    3.0800    0.0730 hc        1 A14      0.038867
     40 H332        2.8710    3.8010    1.3000 hc        1 A14      0.038867
     41 H333        1.4890    4.5510    0.6900 hc        1 A14      0.038867
     42 H371        1.0240    4.2260    3.6180 hc        1 A14      0.038867
     43 H372        1.0690    2.7160    4.1100 hc        1 A14      0.038867
     44 H373        2.3250    3.4340    3.4990 hc        1 A14      0.038867
@<TRIPOS>BOND
     1    1   15 2   
     2    1   16 2   
     3    2    3 1   
     4    2   10 2   
     5    2   25 1   
     6    3    4 1   
     7    3   26 1   
     8    3   27 1   
     9    4    5 1   
    10    4   30 1   
    11    4   31 1   
    12    5    6 1   
    13    5   32 1   
    14    5   33 1   
    15    6    7 1   
    16    6   11 2   
    17    7    8 1   
    18    7   34 1   
    19    8    9 1   
    20    8   12 1   
    21    8   35 1   
    22    9   14 2   
    23    9   24 1   
    24   10   28 1   
    25   10   29 1   
    26   12   13 1   
    27   12   24 1   
    28   12   36 1   
    29   13   19 1   
    30   17   18 1   
    31   17   19 1   
    32   17   24 1   
    33   17   38 1   
    34   18   22 1   
    35   18   23 1   
    36   19   20 1   
    37   19   21 1   
    38   20   39 1   
    39   20   40 1   
    40   20   41 1   
    41   21   42 1   
    42   21   43 1   
    43   21   44 1   
    44   24   37 1   
@<TRIPOS>SUBSTRUCTURE
     1 A14         1 TEMP              0 ****  ****    0 ROOT
