@<TRIPOS>MOLECULE
A14
   44    45     1     0     0
SMALL
bcc


@<TRIPOS>ATOM
      1 C1          3.4980  -10.7400   -5.4170 c         1 A14      0.886600
      2 C2          2.6250  -10.4600   -4.1500 c3        1 A14      0.024500
      3 C3          1.8690   -9.1410   -4.3200 c3        1 A14     -0.061400
      4 C4          2.6720   -7.9010   -3.9840 c3        1 A14     -0.074400
      5 C7          1.9930   -6.6710   -4.5560 c3        1 A14     -0.147400
      6 C10         2.5780   -5.3800   -4.0170 c         1 A14      0.659100
      7 N11         2.1330   -4.9390   -2.7770 n         1 A14     -0.530900
      8 C12         2.4200   -3.6320   -2.3020 cy        1 A14     -0.012300
      9 C13         2.7070   -3.4470   -0.7850 c         1 A14      0.566100
     10 N14         3.3330  -10.5850   -2.8840 n3        1 A14     -0.892800
     11 O15         3.4360   -4.7350   -4.6560 o         1 A14     -0.631100
     12 C16         1.2300   -2.6160   -2.1330 cy        1 A14     -0.024600
     13 S17        -0.4020   -3.2590   -2.1800 ss        1 A14     -0.404200
     14 O18         3.5140   -3.9620   -0.0340 o         1 A14     -0.503100
     15 O19         4.7080  -11.0710   -5.2490 o         1 A14     -0.848800
     16 O20         2.9350  -10.6660   -6.5450 o         1 A14     -0.848800
     17 C30         0.5050   -2.6840    0.3180 c3        1 A14     -0.181700
     18 C31         0.3470   -1.5730    1.4020 c         1 A14      0.925600
     19 C32        -0.8100   -2.8880   -0.4350 c3        1 A14      0.114100
     20 C33        -1.5780   -4.0650    0.1170 c3        1 A14     -0.085100
     21 C37        -1.6730   -1.6460   -0.4300 c3        1 A14     -0.085100
     22 O42         0.8990   -0.4540    1.2110 o         1 A14     -0.834300
     23 O43        -0.3340   -1.8690    2.4230 o         1 A14     -0.834300
     24 C15         1.6270   -2.3790   -0.6510 cy        1 A14     -0.150700
     25 H2          1.8440  -11.2800   -4.1470 h1        1 A14      0.035700
     26 H3C1        0.9460   -9.1550   -3.6810 hc        1 A14      0.037200
     27 H3C2        1.5430   -9.0980   -5.3960 hc        1 A14      0.037200
     28 H141        3.9860  -11.3460   -2.9830 hn        1 A14      0.331800
     29 H142        3.8860   -9.7600   -2.7360 hn        1 A14      0.331800
     30 H4C1        3.7050   -7.9920   -4.4120 hc        1 A14      0.054700
     31 H4C2        2.7700   -7.7930   -2.8720 hc        1 A14      0.054700
     32 H7C1        0.8910   -6.7110   -4.3450 hc        1 A14      0.062200
     33 H7C2        2.1260   -6.6590   -5.6710 hc        1 A14      0.062200
     34 H11         1.3370   -5.3850   -2.3760 hn        1 A14      0.321500
     35 H12         3.2500   -3.1800   -2.9140 h1        1 A14      0.103700
     36 H16         1.3310   -1.7370   -2.7980 h1        1 A14      0.079700
     37 H15         2.0430   -1.3580   -0.4460 hc        1 A14      0.133700
     38 H30         0.7550   -3.6270    0.8790 hc        1 A14      0.065700
     39 H331       -1.0010   -5.0120   -0.0110 hc        1 A14      0.043533
     40 H332       -1.7560   -3.8960    1.2100 hc        1 A14      0.043533
     41 H333       -2.5620   -4.1730   -0.4000 hc        1 A14      0.043533
     42 H371       -2.5430   -1.7700   -1.1190 hc        1 A14      0.043533
     43 H372       -2.0480   -1.4590    0.6090 hc        1 A14      0.043533
     44 H373       -1.0730   -0.7580   -0.7450 hc        1 A14      0.043533
@<TRIPOS>BOND
     1    1    2 1   
     2    1   15 1   
     3    1   16 1   
     4    2    3 1   
     5    2   10 1   
     6    2   25 1   
     7    3    4 1   
     8    3   26 1   
     9    3   27 1   
    10    4    5 1   
    11    4   30 1   
    12    4   31 1   
    13    5    6 1   
    14    5   32 1   
    15    5   33 1   
    16    6    7 1   
    17    6   11 2   
    18    7    8 1   
    19    7   34 1   
    20    8    9 1   
    21    8   12 1   
    22    8   35 1   
    23    9   14 2   
    24    9   24 1   
    25   10   28 1   
    26   10   29 1   
    27   12   13 1   
    28   12   24 1   
    29   12   36 1   
    30   13   19 1   
    31   17   18 1   
    32   17   19 1   
    33   17   24 1   
    34   17   38 1   
    35   18   22 1   
    36   18   23 1   
    37   19   20 1   
    38   19   21 1   
    39   20   39 1   
    40   20   40 1   
    41   20   41 1   
    42   21   42 1   
    43   21   43 1   
    44   21   44 1   
    45   24   37 1   
@<TRIPOS>SUBSTRUCTURE
     1 A14         1 TEMP              0 ****  ****    0 ROOT
