@<TRIPOS>MOLECULE
A14
   46    47     1     0     0
SMALL
bcc


@<TRIPOS>ATOM
      1 C1          1.8460    1.4280    0.5070 c         1 A14      0.928600
      2 C2          3.2050    1.5330    1.3410 c3        1 A14     -0.058500
      3 C3          3.0700    0.8610    2.6980 c3        1 A14     -0.075400
      4 C4          1.8260    1.2950    3.4490 c3        1 A14     -0.093400
      5 C7          1.6870    0.4670    4.7180 c3        1 A14     -0.148400
      6 C10         0.6830    1.0670    5.6590 c         1 A14      0.556100
      7 N11         1.2190    1.5140    7.0110 n4        1 A14     -0.681800
      8 C12         1.3390    2.9780    7.1840 cy        1 A14     -0.044500
      9 C13         1.6510    3.8360    5.9110 c         1 A14      0.580100
     10 N14         3.6550    2.9490    1.4240 n4        1 A14     -0.819600
     11 O15        -0.5210    1.1880    5.5090 o         1 A14     -0.405100
     12 C16         2.7300    3.4380    7.7550 cy        1 A14     -0.025600
     13 S17         3.9120    2.1800    8.0600 ss        1 A14     -0.384200
     14 O18         0.9310    4.1290    4.9840 o         1 A14     -0.423100
     15 O19         1.2400    0.3420    0.6090 o         1 A14     -0.772800
     16 O20         1.5490    2.4480   -0.1630 o         1 A14     -0.772800
     17 C30         4.0930    3.3100    5.6500 c3        1 A14     -0.218700
     18 C31         4.8650    4.1780    4.6060 c         1 A14      0.941600
     19 C32         5.0270    2.6430    6.6460 c3        1 A14      0.138100
     20 C33         5.6180    1.3710    6.0950 c3        1 A14     -0.093100
     21 C37         6.0940    3.5710    7.1680 c3        1 A14     -0.093100
     22 O42         5.1640    3.5780    3.5320 o         1 A14     -0.811300
     23 O43         5.1010    5.3740    4.8770 o         1 A14     -0.811300
     24 C15         3.0570    4.1300    6.3970 cy        1 A14     -0.121700
     25 H2          3.9760    0.9730    0.7390 hx        1 A14      0.087700
     26 H3C1        2.9980   -0.2420    2.4900 hc        1 A14      0.068700
     27 H3C2        3.9840    1.0490    3.3250 hc        1 A14      0.068700
     28 H141        3.1670    3.4730    0.6770 hn        1 A14      0.458800
     29 H142        4.6690    3.0270    1.3250 hn        1 A14      0.458800
     30 H4C1        1.8790    2.3870    3.7000 hc        1 A14      0.087200
     31 H4C2        0.9210    1.1380    2.7940 hc        1 A14      0.087200
     32 H7C1        1.3010   -0.5570    4.4460 hc        1 A14      0.098700
     33 H7C2        2.6940    0.3380    5.2000 hc        1 A14      0.098700
     34 H11         2.1850    1.1150    7.1640 hn        1 A14      0.461300
     35 H12         0.4600    3.3710    7.7570 hx        1 A14      0.126700
     36 H16         2.6120    4.1230    8.6190 h1        1 A14      0.122700
     37 H15         3.3430    5.2110    6.4390 hc        1 A14      0.162700
     38 H30         3.5770    2.4990    5.0600 hc        1 A14      0.041700
     39 H331        6.1040    1.6020    5.1110 hc        1 A14      0.060533
     40 H332        6.3850    0.9540    6.7910 hc        1 A14      0.060533
     41 H333        4.8290    0.5990    5.9240 hc        1 A14      0.060533
     42 H371        6.7900    3.8380    6.3300 hc        1 A14      0.060533
     43 H372        5.6390    4.5210    7.5420 hc        1 A14      0.060533
     44 H373        6.6730    3.0870    7.9890 hc        1 A14      0.060533
     45 H112        0.5970    1.1540    7.7410 hn        1 A14      0.461300
     46 H143        3.4280    3.3550    2.3410 hn        1 A14      0.458800
@<TRIPOS>BOND
     1    1    2 1   
     2    1   15 1   
     3    1   16 1   
     4    2    3 1   
     5    2   10 1   
     6    2   25 1   
     7    3    4 1   
     8    3   26 1   
     9    3   27 1   
    10    4    5 1   
    11    4   30 1   
    12    4   31 1   
    13    5    6 1   
    14    5   32 1   
    15    5   33 1   
    16    6    7 1   
    17    6   11 2   
    18    7    8 1   
    19    7   34 1   
    20    7   45 1   
    21    8    9 1   
    22    8   12 1   
    23    8   35 1   
    24    9   14 2   
    25    9   24 1   
    26   10   28 1   
    27   10   29 1   
    28   10   46 1   
    29   12   13 1   
    30   12   24 1   
    31   12   36 1   
    32   13   19 1   
    33   17   18 1   
    34   17   19 1   
    35   17   24 1   
    36   17   38 1   
    37   18   22 1   
    38   18   23 1   
    39   19   20 1   
    40   19   21 1   
    41   20   39 1   
    42   20   40 1   
    43   20   41 1   
    44   21   42 1   
    45   21   43 1   
    46   21   44 1   
    47   24   37 1   
@<TRIPOS>SUBSTRUCTURE
     1 A14         1 TEMP              0 ****  ****    0 ROOT
