@<TRIPOS>MOLECULE
A14
   46    47     1     0     0
SMALL
bcc


@<TRIPOS>ATOM
      1 C1          1.6480    1.3010    0.6030 c         1 A14      0.928600
      2 C2          3.0380    1.3570    1.3900 c3        1 A14     -0.058500
      3 C3          2.9040    0.7660    2.7840 c3        1 A14     -0.075400
      4 C4          1.7160    1.3220    3.5470 c3        1 A14     -0.093400
      5 C7          1.5660    0.5720    4.8620 c3        1 A14     -0.148400
      6 C10         0.6350    1.2860    5.7990 c         1 A14      0.556100
      7 N11         1.2440    1.7650    7.1090 ny        1 A14     -0.681800
      8 C12         1.4660    3.2250    7.2000 cy        1 A14     -0.044500
      9 C13         1.7920    3.9930    5.8730 c         1 A14      0.580100
     10 N14         3.5830    2.7420    1.3830 nz        1 A14     -0.819600
     11 O15        -0.5630    1.4800    5.6780 o         1 A14     -0.405100
     12 C16         2.9030    3.6180    7.7040 cy        1 A14     -0.025600
     13 S17         4.0080    2.3000    8.0410 ss        1 A14     -0.384200
     14 O18         1.0620    4.2860    4.9540 o         1 A14     -0.423100
     15 O19         0.9750    0.2660    0.7810 o         1 A14     -0.772800
     16 O20         1.3960    2.3040   -0.1110 o         1 A14     -0.772800
     17 C30         4.1840    3.2890    5.5690 c3        1 A14     -0.218700
     18 C31         4.9760    4.0480    4.4580 c         1 A14      0.941600
     19 C32         5.1040    2.6130    6.5710 c3        1 A14      0.138100
     20 C33         5.5910    1.2770    6.0730 c3        1 A14     -0.093100
     21 C37         6.2470    3.4920    7.0110 c3        1 A14     -0.093100
     22 O42         5.1990    3.3740    3.4090 o         1 A14     -0.811300
     23 O43         5.2990    5.2370    4.6570 o         1 A14     -0.811300
     24 C15         3.2290    4.2150    6.3010 cy        1 A14     -0.121700
     25 H2          3.7500    0.7160    0.7950 hx        1 A14      0.087700
     26 H3C1        3.8490    0.9240    3.3730 hc        1 A14      0.068700
     27 H3C2        2.7520   -0.3390    2.6380 hc        1 A14      0.068700
     28 H141        4.5960    2.7460    1.2500 hn        1 A14      0.458800
     29 H142        3.1060    3.2580    0.6240 hn        1 A14      0.458800
     30 H4C1        0.7820    1.1930    2.9280 hc        1 A14      0.087200
     31 H4C2        1.8500    2.4190    3.7380 hc        1 A14      0.087200
     32 H7C1        2.5770    0.4000    5.3210 hc        1 A14      0.098700
     33 H7C2        1.1040   -0.4360    4.6570 hc        1 A14      0.098700
     34 H11         0.6240    1.4850    7.8750 hn        1 A14      0.461300
     35 H12         0.6350    3.7050    7.7760 hx        1 A14      0.126700
     36 H16         2.8590    4.3530    8.5330 h1        1 A14      0.122700
     37 H15         3.5880    5.2750    6.2770 hc        1 A14      0.162700
     38 H30         3.5960    2.4860    5.0390 hc        1 A14      0.041700
     39 H331        6.0590    1.4240    5.0630 hc        1 A14      0.060533
     40 H332        4.7480    0.5530    5.9660 hc        1 A14      0.060533
     41 H333        6.3520    0.8460    6.7670 hc        1 A14      0.060533
     42 H371        6.8200    3.0130    7.8400 hc        1 A14      0.060533
     43 H372        5.8680    4.4890    7.3470 hc        1 A14      0.060533
     44 H373        6.9310    3.6690    6.1400 hc        1 A14      0.060533
     45 H112        2.1870    1.3100    7.2540 hn        1 A14      0.461300
     46 H143        3.4130    3.2080    2.2830 hn        1 A14      0.458800
@<TRIPOS>BOND
     1    1    2 1   
     2    1   15 1   
     3    1   16 1   
     4    2    3 1   
     5    2   10 1   
     6    2   25 1   
     7    3    4 1   
     8    3   26 1   
     9    3   27 1   
    10    4    5 1   
    11    4   30 1   
    12    4   31 1   
    13    5    6 1   
    14    5   32 1   
    15    5   33 1   
    16    6    7 1   
    17    6   11 2   
    18    7    8 1   
    19    7   34 1   
    20    7   45 1   
    21    8    9 1   
    22    8   12 1   
    23    8   35 1   
    24    9   14 2   
    25    9   24 1   
    26   10   28 1   
    27   10   29 1   
    28   10   46 1   
    29   12   13 1   
    30   12   24 1   
    31   12   36 1   
    32   13   19 1   
    33   17   18 1   
    34   17   19 1   
    35   17   24 1   
    36   17   38 1   
    37   18   22 1   
    38   18   23 1   
    39   19   20 1   
    40   19   21 1   
    41   20   39 1   
    42   20   40 1   
    43   20   41 1   
    44   21   42 1   
    45   21   43 1   
    46   21   44 1   
    47   24   37 1   
@<TRIPOS>SUBSTRUCTURE
     1 A14         1 TEMP              0 ****  ****    0 ROOT
