@<TRIPOS>MOLECULE
A15
   44    48     1     0     0
SMALL
bcc


@<TRIPOS>ATOM
      1 C1          0.0070    0.1790   -0.0750 c         1 A15      0.740200
      2 C2          1.4640    0.0290   -0.0680 ca        1 A15     -0.160600
      3 C3          2.1710   -0.0110    1.1160 ca        1 A15     -0.040000
      4 C4          3.5850   -0.0480    1.0910 ca        1 A15     -0.147000
      5 C5          4.2620   -0.0170   -0.1040 ca        1 A15     -0.079000
      6 C6          3.5570    0.0220   -1.3380 ca        1 A15     -0.050000
      7 C7          4.2280    0.0790   -2.5890 ca        1 A15     -0.099000
      8 C8          3.5080    0.1120   -3.7580 ca        1 A15     -0.132000
      9 C9          2.0940    0.0560   -3.7370 ca        1 A15     -0.094000
     10 C10         1.4100   -0.0190   -2.5420 ca        1 A15     -0.110300
     11 C11         2.1400    0.0070   -1.3190 ca        1 A15      0.007000
     12 C12        -0.0920   -0.1810   -2.4930 c3        1 A15      0.334700
     13 C13        -0.4940   -1.6430   -2.5920 ca        1 A15     -0.134300
     14 C14         0.3140   -2.5840   -3.2300 ca        1 A15     -0.060500
     15 C15        -0.0920   -3.9190   -3.3190 ca        1 A15     -0.078600
     16 C16        -1.3180   -4.3190   -2.7600 ca        1 A15      0.146600
     17 C17        -2.1330   -3.3690   -2.1150 ca        1 A15     -0.156000
     18 C18        -1.7200   -2.0470   -2.0380 ca        1 A15     -0.072000
     19 C19        -0.7520    0.6350   -3.5890 ca        1 A15     -0.134300
     20 C20        -1.1090    1.9640   -3.3500 ca        1 A15     -0.060500
     21 C21        -1.7020    2.7260   -4.3590 ca        1 A15     -0.078600
     22 C22        -1.9450    2.1530   -5.6200 ca        1 A15      0.146600
     23 C23        -1.5900    0.8120   -5.8580 ca        1 A15     -0.156000
     24 C24        -1.0020    0.0660   -4.8460 ca        1 A15     -0.072000
     25 O1         -0.6660    0.3340   -1.2660 os        1 A15     -0.421900
     26 O2         -0.7450    0.2810    0.8970 o         1 A15     -0.574500
     27 O3         -1.8020   -5.6010   -2.7940 oh        1 A15     -0.487100
     28 O4         -2.5170    2.8170   -6.6750 oh        1 A15     -0.487100
     29 Cl1         0.9180   -5.0410   -4.1070 cl        1 A15     -0.091900
     30 Cl2        -2.1260    4.3430   -4.0400 cl        1 A15     -0.091900
     31 H3          1.6350    0.0010    2.0800 ha        1 A15      0.161000
     32 H4          4.1310   -0.0890    2.0460 ha        1 A15      0.144000
     33 H5          5.3630   -0.0210   -0.1280 ha        1 A15      0.140000
     34 H7          5.3280    0.1000   -2.6000 ha        1 A15      0.139000
     35 H8          4.0200    0.1750   -4.7310 ha        1 A15      0.141000
     36 H9          1.5470    0.0670   -4.6940 ha        1 A15      0.148000
     37 H14         1.2810   -2.2850   -3.6670 ha        1 A15      0.161000
     38 H17        -3.0900   -3.6940   -1.6800 ha        1 A15      0.159500
     39 H18        -2.3550   -1.3020   -1.5290 ha        1 A15      0.157000
     40 H20        -0.9310    2.4090   -2.3560 ha        1 A15      0.161000
     41 H23        -1.7900    0.3740   -6.8460 ha        1 A15      0.159500
     42 H24        -0.7360   -0.9870   -5.0340 ha        1 A15      0.157000
     43 HO3        -1.1540   -6.1630   -3.2470 ho        1 A15      0.431500
     44 HO4        -2.7410    3.7170   -6.3870 ho        1 A15      0.431500
@<TRIPOS>BOND
     1    1    2 1   
     2    1   25 1   
     3    1   26 2   
     4    2    3 ar  
     5    2   11 ar  
     6    3    4 ar  
     7    3   31 1   
     8    4    5 ar  
     9    4   32 1   
    10    5    6 ar  
    11    5   33 1   
    12    6    7 ar  
    13    6   11 ar  
    14    7    8 ar  
    15    7   34 1   
    16    8    9 ar  
    17    8   35 1   
    18    9   10 ar  
    19    9   36 1   
    20   10   11 ar  
    21   10   12 1   
    22   12   13 1   
    23   12   19 1   
    24   12   25 1   
    25   13   14 ar  
    26   13   18 ar  
    27   14   15 ar  
    28   14   37 1   
    29   15   16 ar  
    30   15   29 1   
    31   16   17 ar  
    32   16   27 1   
    33   17   18 ar  
    34   17   38 1   
    35   18   39 1   
    36   19   20 ar  
    37   19   24 ar  
    38   20   21 ar  
    39   20   40 1   
    40   21   22 ar  
    41   21   30 1   
    42   22   23 ar  
    43   22   28 1   
    44   23   24 ar  
    45   23   41 1   
    46   24   42 1   
    47   27   43 1   
    48   28   44 1   
@<TRIPOS>SUBSTRUCTURE
     1 A15         1 TEMP              0 ****  ****    0 ROOT
