@<TRIPOS>MOLECULE
A15
   44    48     1     0     0
SMALL
bcc


@<TRIPOS>ATOM
      1 C1         -1.8110    1.9800   -0.5410 c         1 A15      0.740200
      2 C2         -2.5660    0.9560   -1.2660 ca        1 A15     -0.160600
      3 C3         -3.6370    1.2920   -2.0660 ca        1 A15     -0.040000
      4 C4         -4.4140    0.2750   -2.6680 ca        1 A15     -0.147000
      5 C5         -4.1260   -1.0490   -2.4410 ca        1 A15     -0.079000
      6 C6         -3.0250   -1.4230   -1.6210 ca        1 A15     -0.050000
      7 C7         -2.7150   -2.7820   -1.3470 ca        1 A15     -0.099000
      8 C8         -1.6400   -3.0990   -0.5530 ca        1 A15     -0.132000
      9 C9         -0.8080   -2.0830   -0.0260 ca        1 A15     -0.094000
     10 C10        -1.0670   -0.7540   -0.2870 ca        1 A15     -0.110300
     11 C11        -2.2130   -0.4070   -1.0590 ca        1 A15      0.007000
     12 C12        -0.1390    0.3440    0.1780 c3        1 A15      0.334700
     13 C13         0.9910    0.5710   -0.8110 ca        1 A15     -0.134300
     14 C14         1.4390   -0.4440   -1.6570 ca        1 A15     -0.060500
     15 C15         2.4930   -0.2090   -2.5460 ca        1 A15     -0.078600
     16 C16         3.1020    1.0570   -2.5930 ca        1 A15      0.146600
     17 C17         2.6490    2.0810   -1.7400 ca        1 A15     -0.156000
     18 C18         1.6060    1.8320   -0.8610 ca        1 A15     -0.072000
     19 C19         0.4090    0.0300    1.5580 ca        1 A15     -0.134300
     20 C20        -0.2910    0.4410    2.6960 ca        1 A15     -0.060500
     21 C21         0.1990    0.1410    3.9700 ca        1 A15     -0.078600
     22 C22         1.4020   -0.5740    4.1080 ca        1 A15      0.146600
     23 C23         2.1080   -0.9820    2.9610 ca        1 A15     -0.156000
     24 C24         1.6110   -0.6770    1.7020 ca        1 A15     -0.072000
     25 O1         -0.8200    1.6130    0.3420 os        1 A15     -0.421900
     26 O2         -2.0030    3.1980   -0.5400 o         1 A15     -0.574500
     27 O3          4.1380    1.3860   -3.4290 oh        1 A15     -0.487100
     28 O4          1.9620   -0.9200    5.3110 oh        1 A15     -0.487100
     29 CL1         3.0170   -1.4710   -3.5620 cl        1 A15     -0.091900
     30 CL2        -0.6740    0.6530    5.3380 cl        1 A15     -0.091900
     31 H3         -3.8970    2.3520   -2.2240 ha        1 A15      0.161000
     32 H4         -5.2600    0.5630   -3.3110 ha        1 A15      0.144000
     33 H5         -4.7420   -1.8450   -2.8870 ha        1 A15      0.140000
     34 H7         -3.3530   -3.5690   -1.7780 ha        1 A15      0.139000
     35 H8         -1.4040   -4.1490   -0.3220 ha        1 A15      0.141000
     36 H9          0.0580   -2.3720    0.5930 ha        1 A15      0.148000
     37 H14         0.9660   -1.4400   -1.6350 ha        1 A15      0.161000
     38 H17         3.1320    3.0680   -1.7880 ha        1 A15      0.159500
     39 H18         1.2450    2.6360   -0.1950 ha        1 A15      0.157000
     40 H20        -1.2270    1.0140    2.5870 ha        1 A15      0.161000
     41 H23         3.0500   -1.5350    3.0840 ha        1 A15      0.159500
     42 H24         2.1740   -0.9890    0.8070 ha        1 A15      0.157000
     43 HO3         4.3530    0.6120   -3.9730 ho        1 A15      0.431500
     44 HO4         1.4060   -0.5660    6.0230 ho        1 A15      0.431500
@<TRIPOS>BOND
     1    1    2 1   
     2    1   25 1   
     3    1   26 2   
     4    2    3 ar  
     5    2   11 ar  
     6    3    4 ar  
     7    3   31 1   
     8    4    5 ar  
     9    4   32 1   
    10    5    6 ar  
    11    5   33 1   
    12    6    7 ar  
    13    6   11 ar  
    14    7    8 ar  
    15    7   34 1   
    16    8    9 ar  
    17    8   35 1   
    18    9   10 ar  
    19    9   36 1   
    20   10   11 ar  
    21   10   12 1   
    22   12   13 1   
    23   12   19 1   
    24   12   25 1   
    25   13   14 ar  
    26   13   18 ar  
    27   14   15 ar  
    28   14   37 1   
    29   15   16 ar  
    30   15   29 1   
    31   16   17 ar  
    32   16   27 1   
    33   17   18 ar  
    34   17   38 1   
    35   18   39 1   
    36   19   20 ar  
    37   19   24 ar  
    38   20   21 ar  
    39   20   40 1   
    40   21   22 ar  
    41   21   30 1   
    42   22   23 ar  
    43   22   28 1   
    44   23   24 ar  
    45   23   41 1   
    46   24   42 1   
    47   27   43 1   
    48   28   44 1   
@<TRIPOS>SUBSTRUCTURE
     1 A15         1 TEMP              0 ****  ****    0 ROOT
