@<TRIPOS>MOLECULE
A15
   44    39     1     0     0
SMALL
bcc


@<TRIPOS>ATOM
      1 C1         -0.2400    0.7320    2.4260 c1        1 A15      0.354000
      2 C2          1.3000    0.8290    2.4410 c1        1 A15     -0.140000
      3 C3          1.9870    0.9510    3.6720 c1        1 A15     -0.040000
      4 C4          3.3960    0.9660    3.6940 c1        1 A15     -0.112500
      5 C5          4.1230    0.8600    2.4880 c1        1 A15     -0.112500
      6 C6          3.4360    0.7380    1.2540 c1        1 A15     -0.050000
      7 C7          4.1620    0.6760    0.0440 c2        1 A15     -0.100000
      8 C8          3.4830    0.5420   -1.1750 c1        1 A15     -0.133000
      9 C9          2.0800    0.4700   -1.1920 c1        1 A15     -0.094000
     10 C10         1.3520    0.5310    0.0210 c1        1 A15     -0.101000
     11 C11         2.0290    0.7190    1.2310 c1        1 A15      0.007000
     12 C12        -0.1930    0.3550    0.0150 c3        1 A15      0.241000
     13 C13        -1.7220    0.5540    0.0750 c2        1 A15     -0.127500
     14 C14        -2.5330   -0.4390    0.6190 c2        1 A15     -0.048500
     15 C15        -3.9090   -0.2480    0.6990 c1        1 A15     -0.154500
     16 C16        -4.4750    0.9350    0.2340 c1        1 A15      0.101500
     17 C17        -3.6650    1.9280   -0.3100 c1        1 A15     -0.159000
     18 C18        -2.2880    1.7370   -0.3890 c1        1 A15     -0.083500
     19 C19        -0.2810   -0.6800   -1.1180 c2        1 A15     -0.127500
     20 C20        -0.0870   -2.0300   -0.8430 c2        1 A15     -0.048500
     21 C21        -0.1050   -2.9610   -1.8770 c1        1 A15     -0.154500
     22 C22        -0.3170   -2.5420   -3.1860 c1        1 A15      0.101500
     23 C23        -0.5120   -1.1920   -3.4620 c1        1 A15     -0.159000
     24 C24        -0.4940   -0.2610   -2.4280 c1        1 A15     -0.083500
     25 O1         -0.9190    0.4830    1.2130 os        1 A15     -0.260000
     26 O2         -0.8730    0.9290    3.4490 o         1 A15     -0.298000
     27 O3         -5.8790    1.1090    0.2710 oh        1 A15     -0.243000
     28 O4         -0.3700   -3.4920   -4.2330 oh        1 A15     -0.243000
     29 CL1        -4.9280   -1.5010    1.3650 cl        1 A15     -0.009000
     30 CL2         0.0710   -4.6620   -1.5230 cl        1 A15     -0.009000
     31 H3          1.4820    1.0250    4.5110 ha        1 A15      0.161000
     32 H4          3.8740    1.0470    4.5500 ha        1 A15      0.142000
     33 H5          5.1050    0.8700    2.5050 ha        1 A15      0.142000
     34 H7          5.1440    0.7270    0.0570 ha        1 A15      0.139000
     35 H8          3.9900    0.4780   -2.0160 ha        1 A15      0.141000
     36 H9          1.6040    0.3760   -2.0450 ha        1 A15      0.148000
     37 H14        -2.1340   -1.2740    0.9470 ha        1 A15      0.172000
     38 H17        -4.0650    2.7630   -0.6380 ha        1 A15      0.157500
     39 H18        -1.7170    2.4370   -0.7730 ha        1 A15      0.146000
     40 H20         0.0630   -2.3260    0.0810 ha        1 A15      0.172000
     41 H23        -0.6620   -0.8960   -4.3870 ha        1 A15      0.157500
     42 H24        -0.6310    0.6920   -2.6220 ha        1 A15      0.146000
     43 HO3        -6.1030    1.5690    1.0010 ho        1 A15      0.231500
     44 HO4         0.4200   -3.5250   -4.6460 ho        1 A15      0.231500
@<TRIPOS>BOND
     1    1   25 1   
     2    1   26 1   
     3    2    3 1   
     4    2   11 1   
     5    3   31 1   
     6    4    5 1   
     7    4   32 1   
     8    5   33 1   
     9    6    7 1   
    10    6   11 1   
    11    7    8 1   
    12    7   34 1   
    13    8   35 1   
    14    9   10 1   
    15    9   36 1   
    16   10   12 1   
    17   12   13 1   
    18   12   19 1   
    19   12   25 1   
    20   13   14 1   
    21   13   18 1   
    22   14   15 1   
    23   14   37 1   
    24   15   29 1   
    25   16   17 1   
    26   16   27 1   
    27   17   38 1   
    28   18   39 1   
    29   19   20 1   
    30   19   24 1   
    31   20   21 1   
    32   20   40 1   
    33   21   30 1   
    34   22   23 1   
    35   22   28 1   
    36   23   41 1   
    37   24   42 1   
    38   27   43 1   
    39   28   44 1   
@<TRIPOS>SUBSTRUCTURE
     1 A15         1 TEMP              0 ****  ****    0 ROOT
