@<TRIPOS>MOLECULE
A15
   44    48     1     0     0
SMALL
bcc


@<TRIPOS>ATOM
      1 C1          0.0090    0.1830   -0.0750 c         1 A15      0.740200
      2 C2          1.4660    0.0320   -0.0690 ca        1 A15     -0.160600
      3 C3          2.1740   -0.0080    1.1140 ca        1 A15     -0.040000
      4 C4          3.5880   -0.0460    1.0890 ca        1 A15     -0.147000
      5 C5          4.2640   -0.0170   -0.1070 ca        1 A15     -0.079000
      6 C6          3.5580    0.0210   -1.3410 ca        1 A15     -0.050000
      7 C7          4.2280    0.0760   -2.5920 ca        1 A15     -0.099000
      8 C8          3.5070    0.1080   -3.7610 ca        1 A15     -0.132000
      9 C9          2.0940    0.0530   -3.7390 ca        1 A15     -0.094000
     10 C10         1.4110   -0.0190   -2.5430 ca        1 A15     -0.110300
     11 C11         2.1420    0.0070   -1.3210 ca        1 A15      0.007000
     12 C12        -0.0910   -0.1800   -2.4930 c3        1 A15      0.334700
     13 C13        -0.4950   -1.6420   -2.5900 ca        1 A15     -0.134300
     14 C14         0.3110   -2.5850   -3.2270 ca        1 A15     -0.060500
     15 C15        -0.0960   -3.9190   -3.3140 ca        1 A15     -0.078600
     16 C16        -1.3220   -4.3170   -2.7540 ca        1 A15      0.146600
     17 C17        -2.1350   -3.3660   -2.1100 ca        1 A15     -0.156000
     18 C18        -1.7210   -2.0450   -2.0350 ca        1 A15     -0.072000
     19 C19        -0.7520    0.6340   -3.5900 ca        1 A15     -0.134300
     20 C20        -1.1070    1.9640   -3.3520 ca        1 A15     -0.060500
     21 C21        -1.7010    2.7260   -4.3620 ca        1 A15     -0.078600
     22 C22        -1.9440    2.1510   -5.6220 ca        1 A15      0.146600
     23 C23        -1.5910    0.8100   -5.8580 ca        1 A15     -0.156000
     24 C24        -1.0030    0.0650   -4.8460 ca        1 A15     -0.072000
     25 O1         -0.6640    0.3370   -1.2660 os        1 A15     -0.421900
     26 O2         -0.7410    0.2860    0.8970 o         1 A15     -0.574500
     27 O3         -1.8070   -5.5990   -2.7860 oh        1 A15     -0.487100
     28 O4         -2.5170    2.8140   -6.6770 oh        1 A15     -0.487100
     29 CL1         0.9130   -5.0430   -4.1010 cl        1 A15     -0.091900
     30 CL2        -2.1230    4.3440   -4.0450 cl        1 A15     -0.091900
     31 H3          1.6390    0.0060    2.0780 ha        1 A15      0.161000
     32 H4          4.1350   -0.0860    2.0430 ha        1 A15      0.144000
     33 H5          5.3650   -0.0230   -0.1310 ha        1 A15      0.140000
     34 H7          5.3290    0.0960   -2.6040 ha        1 A15      0.139000
     35 H8          4.0190    0.1690   -4.7340 ha        1 A15      0.141000
     36 H9          1.5460    0.0630   -4.6950 ha        1 A15      0.148000
     37 H14         1.2790   -2.2880   -3.6660 ha        1 A15      0.161000
     38 H17        -3.0920   -3.6890   -1.6740 ha        1 A15      0.159500
     39 H18        -2.3550   -1.2980   -1.5260 ha        1 A15      0.157000
     40 H20        -0.9290    2.4110   -2.3590 ha        1 A15      0.161000
     41 H23        -1.7930    0.3710   -6.8460 ha        1 A15      0.159500
     42 H24        -0.7390   -0.9890   -5.0330 ha        1 A15      0.157000
     43 HO3        -1.1590   -6.1630   -3.2390 ho        1 A15      0.431500
     44 HO4        -2.7400    3.7150   -6.3900 ho        1 A15      0.431500
@<TRIPOS>BOND
     1    1    2 1   
     2    1   25 1   
     3    1   26 2   
     4    2    3 ar  
     5    2   11 ar  
     6    3    4 ar  
     7    3   31 1   
     8    4    5 ar  
     9    4   32 1   
    10    5    6 ar  
    11    5   33 1   
    12    6    7 ar  
    13    6   11 ar  
    14    7    8 ar  
    15    7   34 1   
    16    8    9 ar  
    17    8   35 1   
    18    9   10 ar  
    19    9   36 1   
    20   10   11 ar  
    21   10   12 1   
    22   12   13 1   
    23   12   19 1   
    24   12   25 1   
    25   13   14 ar  
    26   13   18 ar  
    27   14   15 ar  
    28   14   37 1   
    29   15   16 ar  
    30   15   29 1   
    31   16   17 ar  
    32   16   27 1   
    33   17   18 ar  
    34   17   38 1   
    35   18   39 1   
    36   19   20 ar  
    37   19   24 ar  
    38   20   21 ar  
    39   20   40 1   
    40   21   22 ar  
    41   21   30 1   
    42   22   23 ar  
    43   22   28 1   
    44   23   24 ar  
    45   23   41 1   
    46   24   42 1   
    47   27   43 1   
    48   28   44 1   
@<TRIPOS>SUBSTRUCTURE
     1 A15         1 TEMP              0 ****  ****    0 ROOT
