@<TRIPOS>MOLECULE
A17
   53    57     1     0     0
SMALL
bcc


@<TRIPOS>ATOM
      1 C1          1.8260    1.5680    0.8280 ca        1 A17     -0.132300
      2 C2          2.4870    0.4040    0.3540 ca        1 A17     -0.121300
      3 C3          1.7700   -0.5080   -0.4580 ca        1 A17     -0.104000
      4 C4          0.4550   -0.2670   -0.7760 ca        1 A17     -0.108000
      5 C10         2.6010    2.4590    1.6420 ca        1 A17      0.356200
      6 C12        -2.5130    0.0410   -0.4220 ca        1 A17     -0.063000
      7 C13        -3.8690    0.1760   -0.7260 ca        1 A17     -0.147600
      8 C16        -2.0930    2.2960   -1.2160 ca        1 A17     -0.035300
      9 O19        -4.3810   -2.1600   -0.6650 o         1 A17     -0.599100
     10 C15        -3.4550    2.4100   -1.5320 ca        1 A17     -0.142000
     11 C5         -0.2100    0.8990   -0.3040 cp        1 A17     -0.020000
     12 C6          0.4730    1.8010    0.4890 ca        1 A17     -0.102000
     13 N7          3.8830    2.2170    1.9400 nb        1 A17     -0.321000
     14 N8          4.4950    1.1590    1.5110 nb        1 A17     -0.316000
     15 C9          3.8710    0.2410    0.7400 cp        1 A17      0.435800
     16 C11        -1.6190    1.0980   -0.6530 cp        1 A17     -0.057000
     17 C14        -4.3400    1.3660   -1.2890 ca        1 A17     -0.095000
     18 C18        -4.7630   -0.9900   -0.4670 c         1 A17      0.678700
     19 C20        -6.9640   -1.7330    0.3290 cx        1 A17      0.053700
     20 C21        -8.4570   -1.5070    0.1900 cx        1 A17     -0.153400
     21 C22        -7.8510   -1.6460    1.5560 cx        1 A17     -0.153400
     22 C23         4.6100   -0.9560    0.2990 cp        1 A17     -0.155500
     23 C24         4.1950   -2.2120    0.7610 ca        1 A17     -0.109000
     24 C25         4.8740   -3.3630    0.3720 ca        1 A17     -0.140000
     25 C26         5.9730   -3.2660   -0.4830 ca        1 A17     -0.114000
     26 C27         6.3890   -2.0200   -0.9430 ca        1 A17     -0.137000
     27 C28         5.7210   -0.8510   -0.5550 ca        1 A17     -0.034300
     28 C29         6.1990    0.4630   -1.0440 c3        1 A17     -0.059800
     29 N30        -6.0320   -0.7120    0.0100 n         1 A17     -0.540900
     30 H3          2.2850   -1.4100   -0.8270 ha        1 A17      0.155000
     31 H4         -0.1060   -0.9760   -1.4060 ha        1 A17      0.150000
     32 H6         -0.0250    2.7070    0.8700 ha        1 A17      0.145000
     33 H29         6.7790    0.9810   -0.2370 hc        1 A17      0.052033
     34 H20        -6.5640   -2.7370    0.0510 h1        1 A17      0.122700
     35 H21        -8.8390   -0.5200   -0.1230 hc        1 A17      0.074200
     36 H24         3.3320   -2.2840    1.4400 ha        1 A17      0.138000
     37 H22        -8.0240   -2.5700    2.1360 hc        1 A17      0.074200
     38 H10         2.1530    3.3800    2.0500 h4        1 A17      0.032100
     39 H12        -2.1460   -0.9100   -0.0020 ha        1 A17      0.159000
     40 H14        -5.4010    1.4790   -1.5610 ha        1 A17      0.138000
     41 H15        -3.8250    3.3430   -1.9850 ha        1 A17      0.139000
     42 H17        -1.1960    4.1470   -0.6290 hc        1 A17      0.052367
     43 H17A       -0.1480    3.1030   -1.6790 hc        1 A17      0.052367
     44 H17B       -1.5470    4.0040   -2.4010 hc        1 A17      0.052367
     45 H21A       -9.0680   -2.3310   -0.2190 hc        1 A17      0.074200
     46 H22A       -7.8050   -0.7560    2.2080 hc        1 A17      0.074200
     47 H25         4.5460   -4.3460    0.7410 ha        1 A17      0.135000
     48 H26         6.5110   -4.1740   -0.7920 ha        1 A17      0.133000
     49 H27         7.2580   -1.9470   -1.6150 ha        1 A17      0.135000
     50 H29A        6.8640    0.3440   -1.9340 hc        1 A17      0.052033
     51 H29B        5.3390    1.1190   -1.3300 hc        1 A17      0.052033
     52 HN30       -6.2790    0.2250    0.2200 hn        1 A17      0.311500
     53 C17        -1.1980    3.4420   -1.4990 c3        1 A17     -0.065800
@<TRIPOS>BOND
     1    1    2 ar  
     2    1    5 ar  
     3    1   12 ar  
     4    2    3 ar  
     5    2   15 ar  
     6    3    4 ar  
     7    3   30 1   
     8    4   11 ar  
     9    4   31 1   
    10    5   13 ar  
    11    5   38 1   
    12    6    7 ar  
    13    6   16 ar  
    14    6   39 1   
    15    7   17 ar  
    16    7   18 1   
    17    8   10 ar  
    18    8   16 ar  
    19    8   53 1   
    20    9   18 2   
    21   10   17 ar  
    22   10   41 1   
    23   11   12 ar  
    24   11   16 1   
    25   12   32 1   
    26   13   14 ar  
    27   14   15 ar  
    28   15   22 1   
    29   17   40 1   
    30   18   29 1   
    31   19   20 1   
    32   19   21 1   
    33   19   29 1   
    34   19   34 1   
    35   20   21 1   
    36   20   35 1   
    37   20   45 1   
    38   21   37 1   
    39   21   46 1   
    40   22   23 ar  
    41   22   27 ar  
    42   23   24 ar  
    43   23   36 1   
    44   24   25 ar  
    45   24   47 1   
    46   25   26 ar  
    47   25   48 1   
    48   26   27 ar  
    49   26   49 1   
    50   27   28 1   
    51   28   33 1   
    52   28   50 1   
    53   28   51 1   
    54   29   52 1   
    55   42   53 1   
    56   43   53 1   
    57   44   53 1   
@<TRIPOS>SUBSTRUCTURE
     1 A17         1 TEMP              0 ****  ****    0 ROOT
