@<TRIPOS>MOLECULE
A17
   54    54     1     0     0
SMALL
bcc


@<TRIPOS>ATOM
      1 C1         -1.0050   -0.5280   -0.2340 c2        1 A17     -0.184000
      2 C2          2.2360    0.1150    0.4720 c1        1 A17     -0.144000
      3 C3          1.5340    0.2250    1.4380 c1        1 A17     -0.122000
      4 C4          0.6730    0.2720    2.5760 c3        1 A17     -0.029000
      5 C10         0.0880   -0.9820   -0.8040 c1        1 A17     -0.016000
      6 C12        -1.5480    0.7470    4.6350 c2        1 A17      0.122000
      7 C13        -2.3080    0.6050    5.7730 c2        1 A17     -0.177000
      8 C16        -2.4690   -1.0610    3.1190 c2        1 A17      0.045000
      9 O19        -0.9980    2.3050    6.7790 os        1 A17     -0.144000
     10 C15        -3.4260   -1.4360    6.6260 c1        1 A17      0.260000
     11 C5         -0.8090    0.3660    2.2160 c3        1 A17     -0.061000
     12 C6         -1.3230   -0.6180    1.1710 c2        1 A17      0.064000
     13 N7          1.0440   -1.4940   -1.4430 n2        1 A17     -0.010000
     14 N8          2.2410   -0.9510   -1.6650 n2        1 A17     -0.055000
     15 C9          2.8690   -0.2060   -0.7670 c2        1 A17      0.134000
     16 C11        -1.6590    0.0160    3.4380 c2        1 A17     -0.232000
     17 C14        -3.4120   -0.3340    5.8950 c2        1 A17     -0.487000
     18 C20        -0.7440    3.2530    7.7950 c2        1 A17     -0.158000
     19 C21         1.3370    2.0520    8.5190 c3        1 A17     -0.219000
     20 C22         0.3680    3.1590    8.5360 c2        1 A17     -0.065000
     21 C23         4.2260    0.3230   -0.9850 c2        1 A17     -0.104000
     22 C24         4.4030    1.6720   -0.4510 c2        1 A17     -0.127000
     23 C25         5.4360    2.0700    0.2920 c2        1 A17     -0.206000
     24 C26         7.6340   -0.3760   -2.1800 c1        1 A17      0.255000
     25 C27         6.5020    0.2300   -1.8770 c2        1 A17     -0.479000
     26 C28         5.2020   -0.3650   -1.6350 c2        1 A17      0.085000
     27 C29         5.0310   -1.7470   -2.1530 c3        1 A17     -0.204000
     28 N30        -2.7890    1.4280    8.0420 n3        1 A17     -0.312000
     29 H3          0.8480   -0.6580    3.1910 hc        1 A17      0.113500
     30 H4          0.9370    1.1570    3.2210 hc        1 A17      0.113500
     31 H6         -1.0450    1.4070    1.8610 hc        1 A17      0.145000
     32 H29         4.4620   -2.3850   -1.4320 hc        1 A17      0.104333
     33 H20        -1.4540    4.0920    7.7780 h4        1 A17      0.175000
     34 H21         1.0160    1.2180    7.8480 hc        1 A17      0.111667
     35 H24         3.5850    2.3720   -0.7000 ha        1 A17      0.129000
     36 H22         2.3300    2.4300    8.1610 hc        1 A17      0.111667
     37 H10        -1.7750   -0.0310   -0.8570 ha        1 A17      0.184000
     38 H12        -0.7580    1.5310    4.6360 ha        1 A17      0.158000
     39 H14        -4.3030   -0.0820    5.2750 ha        1 A17      0.206000
     40 H15        -3.1720   -1.5730    3.7830 ha        1 A17      0.161000
     41 H17        -5.4530   -2.1540    6.0160 ha        1 A17      0.013000
     42 H17A       -5.3510   -2.6820    6.4340 ha        1 A17      0.013000
     43 H17B       -2.8180   -2.2410    1.2410 ha        1 A17      0.181000
     44 H21A        1.4780    1.6480    9.5550 hc        1 A17      0.111667
     45 H22A        0.6030    3.9960    9.2240 ha        1 A17      0.168000
     46 H25         5.5190    3.1000    0.6640 ha        1 A17      0.121000
     47 H26         6.2590    1.4010    0.5810 ha        1 A17      0.121000
     48 H27         6.5500    1.3440   -1.8100 ha        1 A17      0.208000
     49 H29A        6.0210   -2.2360   -2.3390 hc        1 A17      0.104333
     50 H29B        4.4680   -1.7240   -3.1220 hc        1 A17      0.104333
     51 HN30       -2.5830    2.0230    8.8160 hn        1 A17      0.278000
     52 C17        -2.2690   -1.4370    1.7350 c2        1 A17     -0.193000
     53 H302       -3.5630    0.7990    8.1140 hn        1 A17      0.278000
     54 C18        -2.0570    1.4580    6.9210 c2        1 A17      0.346000
@<TRIPOS>BOND
     1    1    5 1   
     2    1   12 1   
     3    1   37 1   
     4    2    3 1   
     5    2   15 1   
     6    3    4 1   
     7    4   11 1   
     8    4   29 1   
     9    4   30 1   
    10    5   13 1   
    11    6    7 1   
    12    6   16 1   
    13    6   38 1   
    14    7   17 1   
    15    7   54 1   
    16    8   16 1   
    17    8   40 1   
    18    8   52 1   
    19    9   18 1   
    20    9   54 1   
    21   10   17 1   
    22   11   12 1   
    23   11   16 1   
    24   11   31 1   
    25   12   52 1   
    26   13   14 1   
    27   14   15 1   
    28   15   21 1   
    29   17   39 1   
    30   18   20 1   
    31   18   33 1   
    32   19   20 1   
    33   19   34 1   
    34   19   36 1   
    35   19   44 1   
    36   20   45 1   
    37   21   22 1   
    38   21   26 1   
    39   22   23 1   
    40   22   35 1   
    41   23   46 1   
    42   23   47 1   
    43   24   25 1   
    44   25   26 1   
    45   25   48 1   
    46   26   27 1   
    47   27   32 1   
    48   27   49 1   
    49   27   50 1   
    50   28   51 1   
    51   28   53 1   
    52   28   54 1   
    53   41   42 1   
    54   43   52 1   
@<TRIPOS>SUBSTRUCTURE
     1 A17         1 TEMP              0 ****  ****    0 ROOT
