@<TRIPOS>MOLECULE
A17
   54    53     1     0     0
SMALL
bcc


@<TRIPOS>ATOM
      1 C1         -0.9180    0.1290   -0.0290 c2        1 A17     -0.145000
      2 C2          2.3640    0.1800    0.2610 c1        1 A17     -0.122000
      3 C3          1.8030    0.1330    1.3190 c1        1 A17     -0.134000
      4 C4          1.0850    0.0970    2.5550 c3        1 A17     -0.033000
      5 C10        -0.0460   -0.1010   -0.9830 c1        1 A17     -0.043000
      6 C12        -1.0220    0.3570    4.7410 c2        1 A17      0.116000
      7 C13        -1.9090    0.4300    5.7860 c2        1 A17     -0.098000
      8 C16        -2.6350   -0.5790    2.9380 c3        1 A17     -0.239000
      9 O19        -0.1490    1.2980    7.1170 os        1 A17     -0.192000
     10 C15        -4.3960   -0.3330    5.6730 c1        1 A17     -0.107000
     11 C5         -0.3590   -0.2060    2.4150 c2        1 A17      0.035000
     12 C6         -1.0280   -0.7580    1.1620 c3        1 A17     -0.139000
     13 N7          0.7110   -0.3610   -1.9580 n2        1 A17     -0.006000
     14 N8          1.9830    0.0040   -2.1050 n2        1 A17     -0.024000
     15 C9          2.8050    0.2260   -1.0930 c2        1 A17      0.108000
     16 C11        -1.2860   -0.1120    3.4280 c2        1 A17     -0.215000
     17 C14        -3.2520    0.0230    5.7250 c1        1 A17     -0.203000
     18 C20        -0.1230    3.1050    8.7020 c1        1 A17     -0.310000
     19 C21         0.4490    1.8510    8.3190 c3        1 A17      0.091000
     20 C22        -0.5180    4.1820    9.0480 c1        1 A17     -0.052000
     21 C23         4.2230    0.5590   -1.3410 c2        1 A17     -0.028000
     22 C24         4.5530    1.6980   -1.9870 c2        1 A17     -0.144000
     23 C25         5.9550    2.1230   -2.2220 c3        1 A17     -0.246000
     24 C26         6.8120    1.3480   -3.1020 c1        1 A17     -0.023000
     25 C27         6.5190   -0.1380   -1.1580 c1        1 A17      0.199000
     26 C28         5.2360   -0.3910   -0.8940 c2        1 A17     -0.347000
     27 C29         4.8290   -1.6470   -0.2150 c3        1 A17     -0.148000
     28 N30        -2.2710    1.1030    8.1310 n3        1 A17     -0.301000
     29 H3          1.5460   -0.6870    3.2320 hc        1 A17      0.132500
     30 H4          1.2110    1.0930    3.0760 hc        1 A17      0.132500
     31 H6         -0.5830   -1.7760    0.9340 hc        1 A17      0.180000
     32 H29         4.3020   -1.4100    0.7430 hc        1 A17      0.091667
     33 H20         0.3860    1.0860    9.1430 h1        1 A17      0.152000
     34 H21        -1.0370    0.7550   10.8060 ha        1 A17      0.001250
     35 H24         3.7680    2.3740   -2.3650 ha        1 A17      0.148000
     36 H22         1.5230    1.9720    7.9820 h1        1 A17      0.152000
     37 H10        -1.6220    0.9750   -0.0980 ha        1 A17      0.174000
     38 H12         0.0200    0.7020    4.9230 ha        1 A17      0.151000
     39 H14        -5.4120   -0.6510    5.6170 ha        1 A17      0.254000
     40 H15        -3.0220   -1.4530    3.5330 hc        1 A17      0.164000
     41 H17        -3.4100    0.2330    3.0070 hc        1 A17      0.164000
     42 H17A       -4.6300   -2.6390    4.5440 ha        1 A17      0.001250
     43 H17B       -4.6440   -3.2040    4.1700 ha        1 A17      0.001250
     44 H21A       -1.0190    0.5880   11.4630 ha        1 A17      0.001250
     45 H22A       -0.8750    5.1380    9.3570 ha        1 A17      0.253000
     46 H25         5.9660    3.1720   -2.6530 hc        1 A17      0.168500
     47 H26         6.5080    2.2120   -1.2300 hc        1 A17      0.168500
     48 H27         6.4170    0.4210   -3.5430 ha        1 A17      0.061000
     49 H29A        4.1370   -2.2290   -0.8740 hc        1 A17      0.091667
     50 H29B        5.7170   -2.2860    0.0170 hc        1 A17      0.091667
     51 HN30       -1.9540    1.4880    8.9980 hn        1 A17      0.282500
     52 C17        -2.4670   -0.9780    1.5220 c1        1 A17      0.092000
     53 H302       -3.2340    0.8410    8.0530 hn        1 A17      0.282500
     54 C18        -1.4620    0.9650    7.0760 c2        1 A17      0.359000
@<TRIPOS>BOND
     1    1    5 1   
     2    1   12 1   
     3    1   37 1   
     4    2    3 1   
     5    2   15 1   
     6    3    4 1   
     7    4   11 1   
     8    4   29 1   
     9    4   30 1   
    10    5   13 1   
    11    6    7 1   
    12    6   16 1   
    13    6   38 1   
    14    7   17 1   
    15    7   54 1   
    16    8   16 1   
    17    8   40 1   
    18    8   41 1   
    19    8   52 1   
    20    9   19 1   
    21    9   54 1   
    22   10   17 1   
    23   10   39 1   
    24   11   12 1   
    25   11   16 1   
    26   12   31 1   
    27   12   52 1   
    28   13   14 1   
    29   14   15 1   
    30   15   21 1   
    31   18   19 1   
    32   18   20 1   
    33   19   33 1   
    34   19   36 1   
    35   20   45 1   
    36   21   22 1   
    37   21   26 1   
    38   22   23 1   
    39   22   35 1   
    40   23   24 1   
    41   23   46 1   
    42   23   47 1   
    43   24   48 1   
    44   25   26 1   
    45   26   27 1   
    46   27   32 1   
    47   27   49 1   
    48   27   50 1   
    49   28   51 1   
    50   28   53 1   
    51   28   54 1   
    52   34   44 1   
    53   42   43 1   
@<TRIPOS>SUBSTRUCTURE
     1 A17         1 TEMP              0 ****  ****    0 ROOT
