@<TRIPOS>MOLECULE
A17
   53    45     1     0     0
SMALL
bcc


@<TRIPOS>ATOM
      1 C1         -0.3600    0.9720   -2.6140 c1        1 A17     -0.067000
      2 C2          0.9950    1.0100   -2.4940 c1        1 A17     -0.056000
      3 C3          1.5940    0.9620   -1.2080 c2        1 A17     -0.107000
      4 C4          0.8000    0.8780   -0.0760 c1        1 A17     -0.109000
      5 C10        -0.9500    1.0620   -3.8790 c1        1 A17     -0.105000
      6 C12        -1.7920   -0.7200    1.1920 c1        1 A17     -0.065000
      7 C13        -2.1480   -1.1790    2.4580 c1        1 A17     -0.129000
      8 C16        -0.6910    1.1790    2.1890 c1        1 A17     -0.029000
      9 O19        -3.5180   -2.9290    1.5960 o         1 A17     -0.358000
     10 C15        -1.0470    0.7200    3.4550 c1        1 A17     -0.143000
     11 C5         -0.5840    0.8390   -0.1990 c1        1 A17     -0.022000
     12 C6         -1.1710    0.8860   -1.4570 c2        1 A17     -0.098000
     13 N7         -0.1670    1.1870   -4.9910 n1        1 A17     -0.055000
     14 N8          1.2140    1.2260   -4.8680 n1        1 A17     -0.055000
     15 C9          1.7940    1.1380   -3.6360 c1        1 A17     -0.003000
     16 C11        -1.0640    0.4590    1.0570 c1        1 A17     -0.058000
     17 C14        -1.7740   -0.4570    3.5900 c1        1 A17     -0.095000
     18 C17        -0.6710    2.6730    2.4760 c3        1 A17     -0.190000
     19 C18        -3.0830   -2.3750    2.5960 c2        1 A17      0.348000
     20 C20        -4.4810   -3.8600    4.0220 cx        1 A17     -0.043000
     21 C21        -3.9030   -5.2260    4.3460 cx        1 A17     -0.210500
     22 C22        -4.4190   -4.9320    2.9490 cx        1 A17     -0.210500
     23 C23         3.1760    1.1280   -3.3920 c1        1 A17     -0.047000
     24 C24         3.8100   -0.0650   -3.0640 c1        1 A17     -0.125750
     25 C25         5.1480   -0.0580   -2.6690 c1        1 A17     -0.125750
     26 C26         5.8490    1.1430   -2.6030 c1        1 A17     -0.125750
     27 C27         5.2170    2.3360   -2.9300 c1        1 A17     -0.125750
     28 C28         3.8790    2.3330   -3.3260 c1        1 A17     -0.027000
     29 C29         3.2490    3.6140   -3.8890 c3        1 A17     -0.185000
     30 N30        -3.5250   -2.7910    3.8950 n         1 A17     -0.351000
     31 H3          2.5680    0.9890   -1.1210 ha        1 A17      0.153000
     32 H4          1.2160    0.8450    0.8160 ha        1 A17      0.143000
     33 H6         -2.1480    0.8580   -1.5440 ha        1 A17      0.152000
     34 H29         3.1410    3.5250   -4.8660 hc        1 A17      0.091333
     35 H20        -5.3710   -3.6770    4.3900 h1        1 A17      0.119000
     36 H21        -2.9240   -5.2640    4.4400 hc        1 A17      0.120000
     37 H24         3.3160   -0.9130   -3.1100 ha        1 A17      0.135000
     38 H22        -5.2730   -5.3470    2.7150 hc        1 A17      0.120000
     39 H10        -1.9320    1.0350   -3.9680 ha        1 A17      0.173000
     40 H12        -2.0580   -1.2340    0.3850 ha        1 A17      0.158000
     41 H14        -2.0250   -0.7800    4.4840 ha        1 A17      0.139000
     42 H15        -0.7830    1.2300    4.2560 ha        1 A17      0.139000
     43 H17        -0.1640    3.1360    1.7700 hc        1 A17      0.091667
     44 H17A       -1.5900    3.0150    2.4960 hc        1 A17      0.091667
     45 H17B       -0.2430    2.8340    3.3440 hc        1 A17      0.091667
     46 H21A       -4.4690   -5.8080    4.8960 hc        1 A17      0.120000
     47 H22A       -3.7330   -4.8040    2.2590 hc        1 A17      0.120000
     48 H25         5.5960   -0.9020   -2.4370 ha        1 A17      0.135000
     49 H26         6.7910    1.1470   -2.3250 ha        1 A17      0.135000
     50 H27         5.7140    3.1840   -2.8830 ha        1 A17      0.135000
     51 H29A        3.8340    4.3830   -3.6920 hc        1 A17      0.091333
     52 H29B        2.3760    3.7560   -3.4770 hc        1 A17      0.091333
     53 HN30       -3.2170   -2.3620    4.6430 hn        1 A17      0.227000
@<TRIPOS>BOND
     1    1    5 1   
     2    1   12 1   
     3    2    3 1   
     4    2   15 1   
     5    3    4 1   
     6    3   31 1   
     7    4   32 1   
     8    5   39 1   
     9    6   16 1   
    10    6   40 1   
    11    7   17 1   
    12    7   19 1   
    13    8   10 1   
    14    8   18 1   
    15    9   19 1   
    16   10   42 1   
    17   11   12 1   
    18   12   33 1   
    19   13   14 1   
    20   17   41 1   
    21   18   43 1   
    22   18   44 1   
    23   18   45 1   
    24   19   30 1   
    25   20   21 1   
    26   20   22 1   
    27   20   30 1   
    28   20   35 1   
    29   21   22 1   
    30   21   36 1   
    31   21   46 1   
    32   22   38 1   
    33   22   47 1   
    34   23   28 1   
    35   24   25 1   
    36   24   37 1   
    37   25   48 1   
    38   26   27 1   
    39   26   49 1   
    40   27   50 1   
    41   28   29 1   
    42   29   34 1   
    43   29   51 1   
    44   29   52 1   
    45   30   53 1   
@<TRIPOS>SUBSTRUCTURE
     1 A17         1 TEMP              0 ****  ****    0 ROOT
