@<TRIPOS>MOLECULE
A18
   24    25     1     0     0
SMALL
bcc


@<TRIPOS>ATOM
      1 OAN        -4.8690    0.6600    0.0580 o         1 A18     -0.805300
      2 CAE        -3.6980    1.0820    0.2550 c         1 A18      0.828100
      3 OAO        -3.3730    2.2780    0.4630 o         1 A18     -0.805300
      4 CAA        -2.5940    0.0400    0.2060 cc        1 A18      0.257200
      5 OAM        -1.3950    0.3400    0.8470 os        1 A18     -0.342800
      6 CAB        -2.4990   -1.2060   -0.4000 cd        1 A18     -0.310300
      7 CAC        -1.1740   -1.7050   -0.1350 cd        1 A18     -0.248300
      8 CAD        -0.5310   -0.7420    0.6230 cc        1 A18      0.166000
      9 CAL         0.8040   -0.6660    1.2340 c3        1 A18     -0.056400
     10 CAK         1.7770    0.1670    0.4650 ca        1 A18     -0.053300
     11 CAF         1.3330    1.3180   -0.2030 ca        1 A18     -0.100000
     12 CAG         2.2240    2.1230   -0.9080 ca        1 A18     -0.130000
     13 CAH         3.5790    1.7940   -0.9580 ca        1 A18     -0.139000
     14 CAI         4.0420    0.6600   -0.2970 ca        1 A18     -0.139000
     15 CAJ         3.1430   -0.1450    0.4130 ca        1 A18      0.010400
     16 CLAP        3.7770   -1.5150    1.2170 cl        1 A18     -0.126400
     17 HAB        -3.2800   -1.7090   -0.9610 ha        1 A18      0.155000
     18 HAC        -0.7690   -2.6540   -0.4690 ha        1 A18      0.133000
     19 HAL1        0.7130   -0.2220    2.2660 hc        1 A18      0.065200
     20 HAL2        1.1920   -1.7150    1.3440 hc        1 A18      0.065200
     21 HAF         0.2590    1.5800   -0.1620 ha        1 A18      0.187000
     22 HAG         1.8530    3.0200   -1.4270 ha        1 A18      0.135000
     23 HAH         4.2820    2.4260   -1.5170 ha        1 A18      0.123000
     24 HAI         5.1090    0.3980   -0.3310 ha        1 A18      0.131000
@<TRIPOS>BOND
     1    1    2 1   
     2    2    3 1   
     3    2    4 1   
     4    4    5 1   
     5    4    6 2   
     6    5    8 1   
     7    6    7 1   
     8    6   17 1   
     9    7    8 2   
    10    7   18 1   
    11    8    9 1   
    12    9   10 1   
    13    9   19 1   
    14    9   20 1   
    15   10   11 ar  
    16   10   15 ar  
    17   11   12 ar  
    18   11   21 1   
    19   12   13 ar  
    20   12   22 1   
    21   13   14 ar  
    22   13   23 1   
    23   14   15 ar  
    24   14   24 1   
    25   15   16 1   
@<TRIPOS>SUBSTRUCTURE
     1 A18         1 TEMP              0 ****  ****    0 ROOT
