@<TRIPOS>MOLECULE
A18
   24    25     1     0     0
SMALL
bcc


@<TRIPOS>ATOM
      1 OAN         0.9980   -0.7550    0.9000 o         1 A18     -0.805300
      2 CAE         2.0850   -0.2990    0.4570 c         1 A18      0.828100
      3 OAO         3.0700    0.0600    1.1520 o         1 A18     -0.805300
      4 CAA         2.1850   -0.1540   -1.0510 cc        1 A18      0.257200
      5 OAM         3.4590   -0.1030   -1.6110 os        1 A18     -0.342800
      6 CAB         1.2310   -0.0210   -2.0510 cd        1 A18     -0.310300
      7 CAC         1.9410    0.1310   -3.2950 cd        1 A18     -0.248300
      8 CAD         3.2900    0.0790   -2.9920 cc        1 A18      0.166000
      9 CAL         4.5100    0.1360   -3.8100 c3        1 A18     -0.056400
     10 CAK         5.1860    1.4680   -3.8000 ca        1 A18     -0.053300
     11 CAF         5.1880    2.2390   -2.6270 ca        1 A18     -0.100000
     12 CAG         5.8290    3.4740   -2.5850 ca        1 A18     -0.130000
     13 CAH         6.4850    3.9630   -3.7150 ca        1 A18     -0.139000
     14 CAI         6.5020    3.2110   -4.8860 ca        1 A18     -0.139000
     15 CAJ         5.8580    1.9690   -4.9240 ca        1 A18      0.010400
     16 ClAP        5.9280    1.0880   -6.3880 cl        1 A18     -0.126400
     17 HAB         0.1540   -0.0360   -1.9180 ha        1 A18      0.155000
     18 HAC         1.4940    0.2620   -4.2750 ha        1 A18      0.133000
     19 HAL1        4.2330   -0.1510   -4.8610 hc        1 A18      0.065200
     20 HAL2        5.2480   -0.6260   -3.4280 hc        1 A18      0.065200
     21 HAF         4.6700    1.8500   -1.7300 ha        1 A18      0.187000
     22 HAG         5.8160    4.0620   -1.6560 ha        1 A18      0.135000
     23 HAH         6.9900    4.9390   -3.6840 ha        1 A18      0.123000
     24 HAI         7.0200    3.5910   -5.7790 ha        1 A18      0.131000
@<TRIPOS>BOND
     1    1    2 1   
     2    2    3 1   
     3    2    4 1   
     4    4    5 1   
     5    4    6 2   
     6    5    8 1   
     7    6    7 1   
     8    6   17 1   
     9    7    8 2   
    10    7   18 1   
    11    8    9 1   
    12    9   10 1   
    13    9   19 1   
    14    9   20 1   
    15   10   11 ar  
    16   10   15 ar  
    17   11   12 ar  
    18   11   21 1   
    19   12   13 ar  
    20   12   22 1   
    21   13   14 ar  
    22   13   23 1   
    23   14   15 ar  
    24   14   24 1   
    25   15   16 1   
@<TRIPOS>SUBSTRUCTURE
     1 A18         1 TEMP              0 ****  ****    0 ROOT
