@<TRIPOS>MOLECULE
A18
   24    19     1     0     0
SMALL
bcc


@<TRIPOS>ATOM
      1 OAN        -2.9230    1.4840    4.2630 o         1 A18     -0.540000
      2 CAE        -2.7850    0.5870    3.3910 c1        1 A18      0.387000
      3 OAO        -3.2980   -0.5490    3.5700 o         1 A18     -0.540000
      4 CAA        -2.0240    0.8800    2.1180 c1        1 A18     -0.075000
      5 OAM        -0.6810    0.6880    1.9210 os        1 A18     -0.084000
      6 CAB        -2.5480    1.4370    0.9700 c1        1 A18     -0.214000
      7 CAC        -1.5300    1.5870    0.0710 c1        1 A18     -0.214000
      8 CAD        -0.3700    1.1230    0.6590 c1        1 A18     -0.075000
      9 CAL         1.0150    1.1690    0.0500 c2        1 A18     -0.048000
     10 CAK         1.2480   -0.0810   -0.7690 c2        1 A18     -0.046000
     11 CAF         1.2110   -0.0190   -2.1530 c2        1 A18     -0.100000
     12 CAG         1.5030   -1.1450   -2.9060 c1        1 A18     -0.130000
     13 CAH         1.8330   -2.3340   -2.2750 c1        1 A18     -0.139000
     14 CAI         1.8710   -2.3970   -0.8910 c1        1 A18     -0.139000
     15 CAJ         1.5780   -1.2710   -0.1380 c1        1 A18     -0.068000
     16 CLAP        1.6410   -1.3450    1.6030 cl        1 A18     -0.048000
     17 HAB        -3.4770    1.7050    0.8350 DU        1 A18      0.144000
     18 HAC        -1.6090    1.9570   -0.8290 DU        1 A18      0.144000
     19 HAL1        1.0920    1.9560   -0.5260 ha        1 A18      0.104500
     20 HAL2        1.6820    1.2210    0.7630 ha        1 A18      0.104500
     21 HAF         0.9520    0.8110   -2.5970 ha        1 A18      0.187000
     22 HAG         1.4770   -1.1010   -3.8800 ha        1 A18      0.135000
     23 HAH         2.0390   -3.1280   -2.8050 ha        1 A18      0.127000
     24 HAI         2.1030   -3.2350   -0.4460 ha        1 A18      0.127000
@<TRIPOS>BOND
     1    1    2 1   
     2    2    3 1   
     3    4    5 1   
     4    4    6 1   
     5    5    8 1   
     6    6    7 1   
     7    7    8 1   
     8    9   10 1   
     9    9   19 1   
    10    9   20 1   
    11   10   11 1   
    12   10   15 1   
    13   11   12 1   
    14   11   21 1   
    15   12   22 1   
    16   13   14 1   
    17   13   23 1   
    18   14   24 1   
    19   15   16 1   
@<TRIPOS>SUBSTRUCTURE
     1 A18         1 TEMP              0 ****  ****    0 ROOT
