@<TRIPOS>MOLECULE
A18
   24    25     1     0     0
SMALL
bcc


@<TRIPOS>ATOM
      1 OAN         0.9300   -0.7170    0.8640 o         1 A18     -0.805300
      2 CAE         2.0210   -0.2510    0.4390 c         1 A18      0.828100
      3 OAO         2.9780    0.1460    1.1510 o         1 A18     -0.805300
      4 CAA         2.1610   -0.1430   -1.0690 cc        1 A18      0.257200
      5 OAM         3.4490   -0.0820   -1.5950 os        1 A18     -0.342800
      6 CAB         1.2330   -0.0550   -2.0980 cd        1 A18     -0.310300
      7 CAC         1.9760    0.0790   -3.3260 cd        1 A18     -0.248300
      8 CAD         3.3160    0.0600   -2.9840 cc        1 A18      0.166000
      9 CAL         4.5580    0.1190   -3.7690 c3        1 A18     -0.056400
     10 CAK         5.2080    1.4630   -3.7750 ca        1 A18     -0.053300
     11 CAF         5.1630    2.2650   -2.6240 ca        1 A18     -0.100000
     12 CAG         5.7800    3.5120   -2.5970 ca        1 A18     -0.130000
     13 CAH         6.4590    3.9830   -3.7210 ca        1 A18     -0.139000
     14 CAI         6.5240    3.2020   -4.8700 ca        1 A18     -0.139000
     15 CAJ         5.9030    1.9470   -4.8930 ca        1 A18      0.010400
     16 CLAP        6.0320    1.0300   -6.3300 cl        1 A18     -0.126400
     17 HAB         0.1540   -0.0870   -1.9950 ha        1 A18      0.155000
     18 HAC         1.5540    0.1760   -4.3210 ha        1 A18      0.133000
     19 HAL1        4.3160   -0.2010   -4.8190 hc        1 A18      0.065200
     20 HAL2        5.2980   -0.6190   -3.3460 hc        1 A18      0.065200
     21 HAF         4.6260    1.8900   -1.7320 ha        1 A18      0.187000
     22 HAG         5.7300    4.1240   -1.6840 ha        1 A18      0.135000
     23 HAH         6.9450    4.9690   -3.7010 ha        1 A18      0.123000
     24 HAI         7.0600    3.5680   -5.7580 ha        1 A18      0.131000
@<TRIPOS>BOND
     1    1    2 1   
     2    2    3 1   
     3    2    4 1   
     4    4    5 1   
     5    4    6 2   
     6    5    8 1   
     7    6    7 1   
     8    6   17 1   
     9    7    8 2   
    10    7   18 1   
    11    8    9 1   
    12    9   10 1   
    13    9   19 1   
    14    9   20 1   
    15   10   11 ar  
    16   10   15 ar  
    17   11   12 ar  
    18   11   21 1   
    19   12   13 ar  
    20   12   22 1   
    21   13   14 ar  
    22   13   23 1   
    23   14   15 ar  
    24   14   24 1   
    25   15   16 1   
@<TRIPOS>SUBSTRUCTURE
     1 A18         1 TEMP              0 ****  ****    0 ROOT
