@<TRIPOS>MOLECULE
A19
   29    30     1     0     0
SMALL
bcc


@<TRIPOS>ATOM
      1 CL1        18.2580   28.0030   23.2550 cl        1 A19     -0.117400
      2 C2         17.2940   28.3660   21.8960 ca        1 A19      0.066400
      3 C3         16.2510   29.2920   22.0210 ca        1 A19     -0.160500
      4 C4         15.4670   29.5780   20.9100 ca        1 A19     -0.011000
      5 C5         15.6960   28.9560   19.6750 ca        1 A19     -0.366500
      6 C6         16.7510   28.0440   19.5690 ca        1 A19     -0.011000
      7 C7         17.5510   27.7440   20.6750 ca        1 A19     -0.160500
      8 S8         14.6500   29.3090   18.3800 sy        1 A19      1.494200
      9 O9         13.7000   28.2640   18.2760 o         1 A19     -0.667800
     10 O10        14.0740   30.5810   18.6360 o         1 A19     -0.667800
     11 N11        15.5870   29.3050   17.0740 nh        1 A19     -0.767500
     12 C12        16.5470   30.2590   16.6950 ca        1 A19      0.184600
     13 C13        16.2610   31.6400   16.8220 ca        1 A19     -0.191000
     14 C14        17.1880   32.5920   16.4210 ca        1 A19     -0.100000
     15 C15        18.4110   32.1940   15.8770 ca        1 A19     -0.058900
     16 C16        18.7030   30.8380   15.7450 ca        1 A19     -0.059000
     17 C17        17.7940   29.8580   16.1560 ca        1 A19     -0.162600
     18 BR18       19.6540   33.4920   15.3280 br        1 A19     -0.140100
     19 C19        18.2220   28.4040   15.9900 c         1 A19      0.916200
     20 O20        19.2440   28.1730   15.2930 o         1 A19     -0.826300
     21 O21        17.5530   27.4880   16.5620 o         1 A19     -0.826300
     22 H3         16.0560   29.7880   22.9820 ha        1 A19      0.148000
     23 H4         14.6510   30.3190   20.9950 ha        1 A19      0.185000
     24 H6         16.9920   27.5570   18.5950 ha        1 A19      0.185000
     25 H7         18.3790   27.0280   20.5690 ha        1 A19      0.148000
     26 H11        15.7650   28.4180   16.6110 hn        1 A19      0.504800
     27 H13        15.2990   31.9740   17.2470 ha        1 A19      0.157000
     28 H14        16.9450   33.6590   16.5350 ha        1 A19      0.129000
     29 H16        19.6600   30.4900   15.3120 ha        1 A19      0.176000
@<TRIPOS>BOND
     1    1    2 1   
     2    2    3 ar  
     3    2    7 ar  
     4    3    4 ar  
     5    3   22 1   
     6    4    5 ar  
     7    4   23 1   
     8    5    6 ar  
     9    5    8 1   
    10    6    7 ar  
    11    6   24 1   
    12    7   25 1   
    13    8    9 2   
    14    8   10 2   
    15    8   11 1   
    16   11   12 1   
    17   11   26 1   
    18   12   13 ar  
    19   12   17 ar  
    20   13   14 ar  
    21   13   27 1   
    22   14   15 ar  
    23   14   28 1   
    24   15   16 ar  
    25   15   18 1   
    26   16   17 ar  
    27   16   29 1   
    28   17   19 1   
    29   19   20 1   
    30   19   21 1   
@<TRIPOS>SUBSTRUCTURE
     1 A19         1 TEMP              0 ****  ****    0 ROOT
