@<TRIPOS>MOLECULE
A19
   30    31     1     0     0
SMALL
bcc


@<TRIPOS>ATOM
      1 CL1         0.0140    1.0980    0.5800 cl        1 A19     -0.065400
      2 C2          1.6670    0.7660    0.4190 ca        1 A19      0.084400
      3 C3          2.4530    0.5780    1.5620 ca        1 A19     -0.152000
      4 C4          3.8090    0.3010    1.4200 ca        1 A19      0.000000
      5 C5          4.4010    0.2070    0.1530 ca        1 A19     -0.408500
      6 C6          3.5970    0.4070   -0.9770 ca        1 A19      0.000000
      7 C7          2.2400    0.6840   -0.8560 ca        1 A19     -0.152000
      8 S8          6.0420   -0.0940   -0.0100 sy        1 A19      1.520200
      9 O9          6.5080    0.4930   -1.2010 o         1 A19     -0.639800
     10 O10         6.6960    0.2520    1.1840 o         1 A19     -0.639800
     11 N11         6.0930   -1.7250   -0.2550 nh        1 A19     -0.767500
     12 C12         5.9960   -2.7670    0.6690 ca        1 A19      0.232600
     13 C13         6.1970   -2.5510    2.0550 ca        1 A19     -0.199000
     14 C14         6.0710   -3.5950    2.9610 ca        1 A19     -0.044000
     15 C15         5.7380   -4.8850    2.5310 ca        1 A19     -0.068900
     16 C16         5.5460   -5.1210    1.1710 ca        1 A19     -0.024000
     17 C17         5.6880   -4.0860    0.2440 ca        1 A19     -0.231600
     18 BR18        5.5560   -6.2740    3.7660 br        1 A19     -0.065100
     19 C19         5.4810   -4.3950   -1.1840 c         1 A19      0.638700
     20 O20         4.4670   -4.8340   -1.7210 o         1 A19     -0.465000
     21 O21         6.5100   -4.1620   -2.0600 oh        1 A19     -0.589100
     22 H3          2.0050    0.6490    2.5660 ha        1 A19      0.160500
     23 H4          4.4360    0.1650    2.3200 ha        1 A19      0.159000
     24 H6          4.0540    0.3600   -1.9830 ha        1 A19      0.159000
     25 H7          1.6230    0.8380   -1.7560 ha        1 A19      0.160500
     26 H11         7.3300   -3.9950   -1.5730 ho        1 A19      0.434000
     27 H13         6.4750   -1.5520    2.4350 ha        1 A19      0.180000
     28 H14         6.2390   -3.3930    4.0320 ha        1 A19      0.157000
     29 H16         5.2740   -6.1270    0.8050 ha        1 A19      0.166000
     30 H112        6.1250   -2.0380   -1.2060 hn        1 A19      0.459800
@<TRIPOS>BOND
     1    1    2 1   
     2    2    3 ar  
     3    2    7 ar  
     4    3    4 ar  
     5    3   22 1   
     6    4    5 ar  
     7    4   23 1   
     8    5    6 ar  
     9    5    8 1   
    10    6    7 ar  
    11    6   24 1   
    12    7   25 1   
    13    8    9 2   
    14    8   10 2   
    15    8   11 1   
    16   11   12 1   
    17   11   30 1   
    18   12   13 ar  
    19   12   17 ar  
    20   13   14 ar  
    21   13   27 1   
    22   14   15 ar  
    23   14   28 1   
    24   15   16 ar  
    25   15   18 1   
    26   16   17 ar  
    27   16   29 1   
    28   17   19 1   
    29   19   20 2   
    30   19   21 1   
    31   21   26 1   
@<TRIPOS>SUBSTRUCTURE
     1 A19         1 TEMP              0 ****  ****    0 ROOT
