@<TRIPOS>MOLECULE
A19
   29    25     1     0     0
SMALL
bcc


@<TRIPOS>ATOM
      1 CL1        -4.9880   -2.4340   -3.4730 cl        1 A19     -0.039000
      2 C2         -3.8130   -1.5200   -2.5650 c2        1 A19     -0.012000
      3 C3         -2.5870   -2.0860   -2.2520 c2        1 A19     -0.152000
      4 C4         -1.6340   -1.3430   -1.5730 c1        1 A19     -0.002000
      5 C5         -1.9060   -0.0340   -1.2070 c1        1 A19     -0.811000
      6 C6         -3.1330    0.5310   -1.5210 c1        1 A19     -0.020000
      7 C7         -4.0850   -0.2110   -2.2000 c1        1 A19     -0.169000
      8 S8         -0.6610    0.9390   -0.4030 s4        1 A19      2.049800
      9 O9         -1.2200    2.1330    0.1670 o         1 A19     -0.555400
     10 O10         0.2640    1.4910   -1.3540 o         1 A19     -0.555400
     11 N11         0.1160    0.0430    0.7330 n2        1 A19     -0.817000
     12 C12         1.3410    0.5020    1.2830 c2        1 A19      0.103000
     13 C13         1.4030    1.7440    1.8960 c2        1 A19     -0.191000
     14 C14         2.5870    2.1730    2.4740 c1        1 A19     -0.100000
     15 C15         3.7100    1.3610    2.4390 c1        1 A19     -0.199000
     16 C16         3.6480    0.1190    1.8260 c1        1 A19     -0.059000
     17 C17         2.4630   -0.3100    1.2480 c1        1 A19     -0.142000
     18 BR18        5.3280    1.9300    3.2840 br        1 A19      0.000000
     19 C19         2.4040   -1.6550    0.5530 c2        1 A19      0.365000
     20 O20         2.3350   -2.7130    1.2330 o         1 A19     -0.561000
     21 O21         2.4410   -1.7170   -0.7050 o         1 A19     -0.561000
     22 H3         -2.4000   -3.0130   -2.4970 ha        1 A19      0.156000
     23 H4         -0.7690   -1.7410   -1.3540 ha        1 A19      0.216000
     24 H6         -3.3310    1.4480   -1.2480 ha        1 A19      0.154000
     25 H7         -4.9430    0.1930   -2.4350 ha        1 A19      0.140000
     26 H11        -0.2500   -0.7390    1.0250 hn        1 A19      0.300000
     27 H13         0.6130    2.3160    1.9200 ha        1 A19      0.157000
     28 H14         2.6310    3.0480    2.9060 ha        1 A19      0.129000
     29 H16         4.4380   -0.4530    1.8010 ha        1 A19      0.176000
@<TRIPOS>BOND
     1    1    2 1   
     2    2    3 1   
     3    2    7 1   
     4    3    4 1   
     5    3   22 1   
     6    4   23 1   
     7    5    6 1   
     8    5    8 1   
     9    6   24 1   
    10    7   25 1   
    11    8    9 1   
    12    8   10 1   
    13   11   12 1   
    14   11   26 1   
    15   12   13 1   
    16   12   17 1   
    17   13   14 1   
    18   13   27 1   
    19   14   28 1   
    20   15   16 1   
    21   15   18 1   
    22   16   29 1   
    23   17   19 1   
    24   19   20 1   
    25   19   21 1   
@<TRIPOS>SUBSTRUCTURE
     1 A19         1 TEMP              0 ****  ****    0 ROOT
