@<TRIPOS>MOLECULE
A19
   29    30     1     0     0
SMALL
bcc


@<TRIPOS>ATOM
      1 Cl1         0.1100    1.0490    0.2660 cl        1 A19     -0.117400
      2 C2          1.7750    0.6850    0.2490 ca        1 A19      0.066400
      3 C3          2.6230    1.3020    1.1780 ca        1 A19     -0.160500
      4 C4          3.9800    1.0030    1.1550 ca        1 A19     -0.011000
      5 C5          4.5130    0.1050    0.2200 ca        1 A19     -0.366500
      6 C6          3.6470   -0.5100   -0.6900 ca        1 A19     -0.011000
      7 C7          2.2800   -0.2230   -0.6810 ca        1 A19     -0.160500
      8 S8          6.1950   -0.1570    0.2120 sy        1 A19      1.494200
      9 O9          6.7640    0.6300   -0.8200 o         1 A19     -0.667800
     10 O10         6.6790    0.1640    1.5070 o         1 A19     -0.667800
     11 N11         6.3740   -1.7120   -0.1500 nu        1 A19     -0.767500
     12 C12         6.1000   -2.8260    0.6630 ca        1 A19      0.184600
     13 C13         6.4780   -2.8170    2.0270 ca        1 A19     -0.191000
     14 C14         6.2420   -3.9230    2.8320 ca        1 A19     -0.100000
     15 C15         5.6370   -5.0630    2.2970 ca        1 A19     -0.058900
     16 C16         5.2620   -5.0850    0.9550 ca        1 A19     -0.059000
     17 C17         5.4730   -3.9780    0.1270 ca        1 A19     -0.162600
     18 Br18        5.3330   -6.5580    3.3940 br        1 A19     -0.140100
     19 C19         5.0040   -4.0970   -1.3190 c         1 A19      0.916200
     20 O20         4.6770   -5.2400   -1.7340 o         1 A19     -0.826300
     21 O21         4.9460   -3.0550   -2.0440 o         1 A19     -0.826300
     22 H3          2.2220    2.0090    1.9170 ha        1 A19      0.148000
     23 H4          4.6540    1.4740    1.8930 ha        1 A19      0.185000
     24 H6          4.0250   -1.2600   -1.4230 ha        1 A19      0.185000
     25 H7          1.6150   -0.7220   -1.4020 ha        1 A19      0.148000
     26 H11         6.3870   -1.9810   -1.1290 hn        1 A19      0.504800
     27 H13         6.9600   -1.9270    2.4670 ha        1 A19      0.157000
     28 H14         6.5400   -3.8900    3.8900 ha        1 A19      0.129000
     29 H16         4.7880   -5.9740    0.5000 ha        1 A19      0.176000
@<TRIPOS>BOND
     1    1    2 1   
     2    2    3 ar  
     3    2    7 ar  
     4    3    4 ar  
     5    3   22 1   
     6    4    5 ar  
     7    4   23 1   
     8    5    6 ar  
     9    5    8 1   
    10    6    7 ar  
    11    6   24 1   
    12    7   25 1   
    13    8    9 2   
    14    8   10 2   
    15    8   11 1   
    16   11   12 1   
    17   11   26 1   
    18   12   13 ar  
    19   12   17 ar  
    20   13   14 ar  
    21   13   27 1   
    22   14   15 ar  
    23   14   28 1   
    24   15   16 ar  
    25   15   18 1   
    26   16   17 ar  
    27   16   29 1   
    28   17   19 1   
    29   19   20 1   
    30   19   21 1   
@<TRIPOS>SUBSTRUCTURE
     1 A19         1 TEMP              0 ****  ****    0 ROOT
