@<TRIPOS>MOLECULE
A1A
   83    85     1     0     0
SMALL
bcc


@<TRIPOS>ATOM
      1 C23        -0.1480    1.3860    1.5370 c2        1 A1A     -0.026000
      2 C24         1.2210    0.7700    1.6370 c3        1 A1A     -0.154000
      3 C25         2.0580    1.5280    2.6260 c2        1 A1A     -0.116000
      4 C26         1.5480    2.3350    3.5850 c2        1 A1A     -0.177000
      5 C27         0.0980    2.2720    3.7950 c2        1 A1A     -0.042000
      6 C28        -0.5560    1.9290    2.6850 c1        1 A1A     -0.287000
      7 C33        -2.1760    0.7020   -4.4910 ca        1 A1A      0.100000
      8 C34        -2.0080    1.0400   -5.8580 ca        1 A1A     -0.219000
      9 C35        -1.6370    0.0790   -6.7850 ca        1 A1A     -0.095500
     10 C36        -1.4280   -1.2460   -6.3930 ca        1 A1A     -0.218000
     11 C37        -1.6110   -1.5970   -5.0580 ca        1 A1A     -0.095500
     12 C38        -1.9790   -0.6430   -4.1140 ca        1 A1A     -0.219000
     13 C32        -2.4940    1.7440   -3.5850 c2        1 A1A     -0.591000
     14 C7         -6.6220   -4.5120   -3.2580 c3        1 A1A     -0.053000
     15 C4         -2.1570    2.7890   -1.4540 c3        1 A1A     -0.081000
     16 O3         -6.9040   -1.9460   -2.9640 o         1 A1A     -0.391000
     17 N1         -5.7590   -1.9300   -0.8970 n         1 A1A     -0.323000
     18 C22        -0.8290    1.4000    0.2290 c3        1 A1A     -0.180000
     19 O6         -2.9700    2.4570    0.7570 oh        1 A1A     -0.324000
     20 O8         -6.0210   -3.8570   -2.1380 os        1 A1A     -0.273000
     21 C10        -1.0460    3.8710    0.4800 c2        1 A1A      0.183000
     22 O11        -0.2820    4.5010   -0.2480 o         1 A1A     -0.286000
     23 N12         2.0020    2.6610   -6.4950 n2        1 A1A     -0.204000
     24 C51         2.1870    1.6230   -5.7760 c2        1 A1A     -0.037000
     25 C52         2.6950    1.6700   -4.3460 c3        1 A1A     -0.086000
     26 C57         2.4790    0.2840   -3.8120 c2        1 A1A     -0.007000
     27 C53         2.1820    2.7400   -3.4610 c2        1 A1A     -0.030000
     28 C54         1.8980    2.4710   -2.1620 c2        1 A1A     -0.230000
     29 C55         1.9540    1.1530   -1.6130 c1        1 A1A     -0.117000
     30 C59         1.9880    0.1490   -6.1580 c3        1 A1A      0.001000
     31 O60         2.6730   -0.1750   -7.3460 oh        1 A1A     -0.304000
     32 C30        -6.2530   -2.4990   -2.0620 c2        1 A1A      0.380000
     33 C56         2.2360    0.0680   -2.4970 c2        1 A1A     -0.201000
     34 C58         2.4410   -0.6810   -4.9410 c3        1 A1A     -0.177000
     35 C41        -5.6040   -0.4940   -0.8320 c3        1 A1A      0.021000
     36 C42        -6.0640    0.0740    0.5330 c3        1 A1A     -0.100000
     37 C43        -6.2470    1.5750    0.4410 c3        1 A1A     -0.221000
     38 C1         -1.7630    2.5970    0.0230 c3        1 A1A      0.013000
     39 C44        -5.1150   -0.2760    1.6570 c3        1 A1A     -0.221000
     40 C45        -4.1310   -0.0880   -1.0880 c2        1 A1A      0.271000
     41 O46        -3.1760   -0.7800   -0.6820 o         1 A1A     -0.375000
     42 N47        -3.9160    1.1270   -1.7470 n         1 A1A     -0.370000
     43 H24         1.6930    0.8490    0.6030 hc        1 A1A      0.154000
     44 H25         1.2070   -0.3160    1.9180 hc        1 A1A      0.154000
     45 H26         3.1430    1.3690    2.5300 ha        1 A1A      0.135000
     46 H27         2.1680    2.9270    4.2680 ha        1 A1A      0.138000
     47 H28        -0.3240    2.3890    4.7970 ha        1 A1A      0.151000
     48 H34        -1.2460    3.1580   -2.0110 hx        1 A1A      0.150000
     49 H35        -2.1760    2.0790   -6.1740 ha        1 A1A      0.119500
     50 H36        -1.5140    0.3590   -7.8420 ha        1 A1A      0.118000
     51 H37        -1.1380   -2.0030   -7.1340 ha        1 A1A      0.123000
     52 H38        -1.4680   -2.6420   -4.7430 ha        1 A1A      0.118000
     53 H321       -2.1280   -0.9680   -3.0740 ha        1 A1A      0.119500
     54 H322       -2.7750    2.7390   -3.9390 hx        1 A1A      0.158000
     55 H7C1       -6.2260   -4.0810   -4.2090 h1        1 A1A      0.094333
     56 H7C2       -7.7320   -4.3970   -3.2170 h1        1 A1A      0.094333
     57 H7C3       -6.3110   -5.5770   -3.1260 h1        1 A1A      0.094333
     58 H4C1       -1.9670    0.7640   -1.9010 hn        1 A1A      0.246000
     59 H4C2       -2.9760    3.5560   -1.5170 hx        1 A1A      0.150000
     60 H1         -5.1090   -2.4710   -0.3660 hn        1 A1A      0.248000
     61 H221       -1.4330    0.4480    0.1530 hc        1 A1A      0.143500
     62 H222       -0.0510    1.3980   -0.5910 hc        1 A1A      0.143500
     63 H6         -2.7260    2.1810    1.6540 ho        1 A1A      0.234000
     64 H12        -1.2710    4.1640    1.5280 h4        1 A1A      0.124000
     65 H51         1.6850    2.4850   -7.4280 hn        1 A1A      0.165000
     66 H53         3.8210    1.8340   -4.4010 hc        1 A1A      0.163000
     67 H54         2.1020    3.7480   -3.9010 ha        1 A1A      0.158000
     68 H55         1.5670    3.2780   -1.4840 ha        1 A1A      0.162000
     69 H59         0.8990   -0.0500   -6.3950 h1        1 A1A      0.169000
     70 H60         3.6190   -0.0710   -7.1820 ho        1 A1A      0.199000
     71 H56         2.1540   -0.9530   -2.0930 ha        1 A1A      0.149000
     72 H581        1.7200   -1.5140   -4.7420 hc        1 A1A      0.121500
     73 H582        3.4500   -1.1360   -5.1220 hc        1 A1A      0.121500
     74 H41        -6.2680   -0.0430   -1.6340 h1        1 A1A      0.143000
     75 H42        -7.0710   -0.3860    0.7570 hc        1 A1A      0.109000
     76 H431       -6.7930    1.9380    1.3450 hc        1 A1A      0.085167
     77 H432       -5.2590    2.0980    0.3990 hc        1 A1A      0.085167
     78 H433       -6.8410    1.8500   -0.4630 hc        1 A1A      0.085167
     79 H441       -4.1130    0.1920    1.4860 hc        1 A1A      0.085167
     80 H442       -5.5210    0.1040    2.6260 hc        1 A1A      0.085167
     81 H443       -4.9800   -1.3810    1.7390 hc        1 A1A      0.085167
     82 H47        -4.6340    1.4470   -2.3740 hn        1 A1A      0.246000
     83 N24        -2.6060    1.5360   -2.1760 n4        1 A1A      0.237000
@<TRIPOS>BOND
     1    1    2 1   
     2    1    6 1   
     3    1   18 1   
     4    2    3 1   
     5    2   43 1   
     6    2   44 1   
     7    3    4 1   
     8    3   45 1   
     9    4    5 1   
    10    4   46 1   
    11    5    6 1   
    12    5   47 1   
    13    7    8 1   
    14    7   12 1   
    15    7   13 1   
    16    8    9 1   
    17    8   49 1   
    18    9   10 1   
    19    9   50 1   
    20   10   11 1   
    21   10   51 1   
    22   11   12 1   
    23   11   52 1   
    24   12   53 1   
    25   13   54 1   
    26   13   83 1   
    27   14   20 1   
    28   14   55 1   
    29   14   56 1   
    30   14   57 1   
    31   15   38 1   
    32   15   48 1   
    33   15   59 1   
    34   15   83 1   
    35   16   32 1   
    36   17   32 1   
    37   17   35 1   
    38   17   60 1   
    39   18   38 1   
    40   18   61 1   
    41   18   62 1   
    42   19   38 1   
    43   19   63 1   
    44   20   32 1   
    45   21   22 1   
    46   21   38 1   
    47   21   64 1   
    48   23   24 1   
    49   23   65 1   
    50   24   25 1   
    51   24   30 1   
    52   25   26 1   
    53   25   27 1   
    54   25   66 1   
    55   26   33 1   
    56   26   34 1   
    57   27   28 1   
    58   27   67 1   
    59   28   29 1   
    60   28   68 1   
    61   29   33 1   
    62   30   31 1   
    63   30   34 1   
    64   30   69 1   
    65   31   70 1   
    66   33   71 1   
    67   34   72 1   
    68   34   73 1   
    69   35   36 1   
    70   35   40 1   
    71   35   74 1   
    72   36   37 1   
    73   36   39 1   
    74   36   75 1   
    75   37   76 1   
    76   37   77 1   
    77   37   78 1   
    78   39   79 1   
    79   39   80 1   
    80   39   81 1   
    81   40   41 1   
    82   40   42 1   
    83   42   82 1   
    84   42   83 1   
    85   58   83 1   
@<TRIPOS>SUBSTRUCTURE
     1 A1A         1 TEMP              0 ****  ****    0 ROOT
