@<TRIPOS>MOLECULE
A1A
   83    77     1     0     0
SMALL
bcc


@<TRIPOS>ATOM
      1 C23         4.0890   -0.8860    0.5690 c1        1 A1A     -0.097000
      2 C24         5.4690   -1.1480    0.5270 c1        1 A1A     -0.124600
      3 C25         6.1590   -1.4190    1.6960 c1        1 A1A     -0.124600
      4 C26         5.4940   -1.4330    2.9040 c1        1 A1A     -0.124600
      5 C27         4.1300   -1.1740    2.9500 c1        1 A1A     -0.124600
      6 C28         3.4290   -0.9000    1.7690 c1        1 A1A     -0.142000
      7 C33         0.2860   -2.7980   -3.1880 c1        1 A1A     -0.087000
      8 C34         0.8390   -2.8980   -4.4860 c1        1 A1A     -0.128000
      9 C35         1.3330   -4.1050   -4.9380 c1        1 A1A     -0.124600
     10 C36         1.2870   -5.2320   -4.1170 c1        1 A1A     -0.124600
     11 C37         0.7380   -5.1400   -2.8260 c1        1 A1A     -0.124600
     12 C38         0.2400   -3.9230   -2.3660 c1        1 A1A     -0.124600
     13 C32        -0.5050   -1.4810   -2.7700 c3        1 A1A     -0.042000
     14 C7         -7.1250   -4.1430   -0.3250 c3        1 A1A     -0.052000
     15 C4          1.0950    0.0090   -1.7850 c3        1 A1A     -0.093000
     16 O3         -5.6350   -2.2530   -1.3650 o         1 A1A     -0.394000
     17 N1         -3.9170   -2.2950    0.2620 n         1 A1A     -0.305000
     18 C22         3.2480   -0.7730   -0.8130 c3        1 A1A     -0.148000
     19 O6          1.3400   -0.2980    0.5530 oh        1 A1A     -0.349000
     20 O8         -5.8360   -3.8920    0.2340 os        1 A1A     -0.275000
     21 C10         2.4700    1.5740   -0.4260 c1        1 A1A      0.266000
     22 O11         3.4570    1.9620   -0.9730 o         1 A1A     -0.386000
     23 N12         1.6510    2.5080    0.3470 n2        1 A1A     -0.341000
     24 C51         2.0350    3.8720    0.4450 c3        1 A1A      0.032000
     25 C52         0.8980    4.6910    1.0580 c2        1 A1A     -0.108000
     26 C57         1.3440    5.1950    2.3190 c2        1 A1A     -0.063000
     27 C53        -0.4360    4.8810    0.6600 c1        1 A1A     -0.100000
     28 C54        -1.3200    5.5570    1.4900 c1        1 A1A     -0.124600
     29 C55        -0.8820    6.0540    2.7340 c1        1 A1A     -0.124600
     30 C59         3.2300    3.9940    1.3380 c3        1 A1A      0.017000
     31 O60         3.6610    2.6910    1.7630 oh        1 A1A     -0.324000
     32 C30        -5.1810   -2.7840   -0.3290 c2        1 A1A      0.378000
     33 C56         0.4630    5.8660    3.1400 c1        1 A1A     -0.122000
     34 C58         2.8420    4.7910    2.4950 c3        1 A1A     -0.126000
     35 C41        -3.3620   -1.0830   -0.1680 c3        1 A1A     -0.005000
     36 C42        -3.9950    0.0830    0.6180 c3        1 A1A     -0.103000
     37 C43        -4.4920   -0.4260    1.9800 c3        1 A1A     -0.216500
     38 C1          2.0200    0.1190   -0.5960 c3        1 A1A      0.081000
     39 C44        -5.1480    0.6320   -0.1550 c3        1 A1A     -0.216500
     40 C45        -1.8740   -1.1070    0.0760 c2        1 A1A      0.257000
     41 N24         0.0500   -0.9550   -1.4970 n3        1 A1A     -0.146000
     42 O46        -1.4190   -1.7870    0.9760 o         1 A1A     -0.342000
     43 N47        -0.9950   -0.3180   -0.7440 n         1 A1A     -0.273000
     44 H24         5.9520   -1.1390   -0.3450 ha        1 A1A      0.137300
     45 H25         7.1590   -1.6090    1.6630 ha        1 A1A      0.137300
     46 H26         5.9780   -1.6220    3.7200 ha        1 A1A      0.137300
     47 H27         3.6460   -1.1850    3.8290 ha        1 A1A      0.137300
     48 H28         2.4930   -0.7230    1.8000 ha        1 A1A      0.133000
     49 H34         0.8730   -2.1310   -5.0500 ha        1 A1A      0.128000
     50 H35         1.7260   -4.1730   -5.8640 ha        1 A1A      0.137300
     51 H36         1.6290   -6.0670   -4.4320 ha        1 A1A      0.137300
     52 H37         0.7070   -5.9140   -2.2630 ha        1 A1A      0.137300
     53 H38        -0.1560   -3.8550   -1.4360 ha        1 A1A      0.137300
     54 H321       -0.4090   -0.7990   -3.4800 h1        1 A1A      0.099000
     55 H322       -1.4680   -1.6970   -2.6480 h1        1 A1A      0.099000
     56 H7C1       -7.5130   -4.9390    0.0930 h1        1 A1A      0.092333
     57 H7C2       -7.7210   -3.3520   -0.1570 h1        1 A1A      0.092333
     58 H7C3       -7.0380   -4.2890   -1.2970 h1        1 A1A      0.092333
     59 H4C1        1.5900   -0.2780   -2.5480 h1        1 A1A      0.112500
     60 H4C2        0.6780    0.9120   -1.9730 h1        1 A1A      0.112500
     61 H1         -3.5280   -2.7530    0.9360 hn        1 A1A      0.243000
     62 H221        2.9570   -1.6700   -1.0920 hc        1 A1A      0.129500
     63 H222        3.8100   -0.3860   -1.5040 hc        1 A1A      0.129500
     64 H6          1.1450    0.3740    1.0240 ho        1 A1A      0.229000
     65 H12         0.9690    2.2080    0.8200 hn        1 A1A      0.241000
     66 H51         2.2590    4.2400   -0.4890 h1        1 A1A      0.123000
     67 H53        -0.7410    4.5400   -0.2000 ha        1 A1A      0.139000
     68 H54        -2.2860    5.6950    1.2010 ha        1 A1A      0.137300
     69 H55        -1.4910    6.5170    3.3030 ha        1 A1A      0.137300
     70 H59         3.9260    4.4210    0.8780 h1        1 A1A      0.087000
     71 H60         4.5290    2.7200    1.9760 ho        1 A1A      0.217000
     72 H56         0.7650    6.2130    4.0010 ha        1 A1A      0.138000
     73 H581        2.9530    4.2550    3.3320 hc        1 A1A      0.112000
     74 H582        3.3790    5.5680    2.5400 hc        1 A1A      0.112000
     75 H41        -3.5350   -0.9650   -1.1160 h1        1 A1A      0.147000
     76 H42        -3.2870    0.8290    0.7640 hc        1 A1A      0.093000
     77 H431       -3.7390   -0.8700    2.4680 hc        1 A1A      0.083333
     78 H432       -4.8240    0.3300    2.5090 hc        1 A1A      0.083333
     79 H433       -5.2340   -1.0860    1.8400 hc        1 A1A      0.083333
     80 H441       -4.9200    0.6310   -1.1480 hc        1 A1A      0.083333
     81 H442       -5.9480    0.0670    0.0000 hc        1 A1A      0.083333
     82 H443       -5.3290    1.5360    0.1340 hc        1 A1A      0.083333
     83 H47        -1.1360    0.6190   -0.8250 hn        1 A1A      0.225000
@<TRIPOS>BOND
     1    1    6 1   
     2    1   18 1   
     3    2    3 1   
     4    2   44 1   
     5    3   45 1   
     6    4    5 1   
     7    4   46 1   
     8    5   47 1   
     9    6   48 1   
    10    7    8 1   
    11    7   13 1   
    12    8   49 1   
    13    9   10 1   
    14    9   50 1   
    15   10   51 1   
    16   11   12 1   
    17   11   52 1   
    18   12   53 1   
    19   13   41 1   
    20   13   54 1   
    21   13   55 1   
    22   14   20 1   
    23   14   56 1   
    24   14   57 1   
    25   14   58 1   
    26   15   38 1   
    27   15   41 1   
    28   15   59 1   
    29   15   60 1   
    30   16   32 1   
    31   17   32 1   
    32   17   35 1   
    33   17   61 1   
    34   18   38 1   
    35   18   62 1   
    36   18   63 1   
    37   19   38 1   
    38   19   64 1   
    39   20   32 1   
    40   21   22 1   
    41   21   38 1   
    42   23   24 1   
    43   23   65 1   
    44   24   25 1   
    45   24   30 1   
    46   24   66 1   
    47   25   26 1   
    48   25   27 1   
    49   26   33 1   
    50   26   34 1   
    51   27   67 1   
    52   28   29 1   
    53   28   68 1   
    54   29   69 1   
    55   30   31 1   
    56   30   34 1   
    57   30   70 1   
    58   31   71 1   
    59   33   72 1   
    60   34   73 1   
    61   34   74 1   
    62   35   36 1   
    63   35   40 1   
    64   35   75 1   
    65   36   37 1   
    66   36   39 1   
    67   36   76 1   
    68   37   77 1   
    69   37   78 1   
    70   37   79 1   
    71   39   80 1   
    72   39   81 1   
    73   39   82 1   
    74   40   42 1   
    75   40   43 1   
    76   41   43 1   
    77   43   83 1   
@<TRIPOS>SUBSTRUCTURE
     1 A1A         1 TEMP              0 ****  ****    0 ROOT
