@<TRIPOS>MOLECULE
A1A
   83    86     1     0     0
SMALL
bcc


@<TRIPOS>ATOM
      1 C23         2.6260    0.2290   -0.3810 ca        1 A1A     -0.092300
      2 C24         2.9070   -0.8190   -1.2640 ca        1 A1A     -0.123500
      3 C25         4.2070   -1.0210   -1.7250 ca        1 A1A     -0.130000
      4 C26         5.2390   -0.1830   -1.3020 ca        1 A1A     -0.126000
      5 C27         4.9660    0.8580   -0.4140 ca        1 A1A     -0.130000
      6 C28         3.6670    1.0630    0.0470 ca        1 A1A     -0.123500
      7 C33        -3.3600    0.3910    1.1340 ca        1 A1A     -0.103300
      8 C34        -4.4750    0.5400    0.3000 ca        1 A1A     -0.117000
      9 C35        -5.1690   -0.5830   -0.1490 ca        1 A1A     -0.133000
     10 C36        -4.7510   -1.8590    0.2270 ca        1 A1A     -0.127000
     11 C37        -3.6390   -2.0110    1.0540 ca        1 A1A     -0.133000
     12 C38        -2.9440   -0.8910    1.5110 ca        1 A1A     -0.117000
     13 C32        -2.6720    1.6130    1.6640 c3        1 A1A      0.198100
     14 C7          1.5770   -3.6860    3.9020 c3        1 A1A      0.138700
     15 C4         -0.9520    1.7280   -0.0200 c3        1 A1A      0.141800
     16 O3         -0.3950   -2.0440    3.5160 o         1 A1A     -0.597000
     17 N1          0.9190   -0.1550    4.0490 n         1 A1A     -0.525900
     18 C22         1.2460    0.4300    0.1390 c3        1 A1A     -0.055100
     19 O6          1.1330    2.8530   -0.0400 oh        1 A1A     -0.604800
     20 O8          1.7490   -2.2950    4.1840 os        1 A1A     -0.439900
     21 C10         0.5650    1.6040   -2.0110 c         1 A1A      0.628100
     22 O11         1.1220    2.5400   -2.6200 o         1 A1A     -0.605100
     23 N12         0.0470    0.5040   -2.6610 n         1 A1A     -0.521900
     24 C51        -0.1340    0.4930   -4.0890 c3        1 A1A      0.147000
     25 C52         0.3140   -0.7940   -4.7430 ca        1 A1A     -0.103300
     26 C57        -0.6610   -1.2840   -5.6370 ca        1 A1A     -0.079300
     27 C53         1.5210   -1.4550   -4.5800 ca        1 A1A     -0.100000
     28 C54         1.7570   -2.6170   -5.3260 ca        1 A1A     -0.135000
     29 C55         0.7970   -3.0990   -6.2130 ca        1 A1A     -0.123000
     30 C59        -1.6140    0.6810   -4.6030 c3        1 A1A      0.116100
     31 O60        -2.5170    0.5940   -3.5140 oh        1 A1A     -0.601800
     32 C30         0.6550   -1.5000    3.9020 c         1 A1A      0.736100
     33 C56        -0.4240   -2.4340   -6.3750 ca        1 A1A     -0.120000
     34 C58        -1.8780   -0.4270   -5.6440 c3        1 A1A     -0.072100
     35 C41        -0.1710    0.7930    4.1020 c3        1 A1A      0.050700
     36 C42        -0.5970    1.1860    5.5390 c3        1 A1A     -0.082700
     37 C43        -1.6500    2.2710    5.4830 c3        1 A1A     -0.101600
     38 C1          0.5270    1.6410   -0.4630 c3        1 A1A      0.100800
     39 C44         0.5630    1.6110    6.4120 c3        1 A1A     -0.101600
     40 C45         0.2440    2.0520    3.3100 c         1 A1A      0.653100
     41 O46         1.2080    2.7530    3.6660 o         1 A1A     -0.589100
     42 N47        -0.5440    2.5070    2.2300 n         1 A1A     -0.409300
     43 H24         2.0970   -1.4850   -1.5990 ha        1 A1A      0.139000
     44 H25         4.4180   -1.8450   -2.4230 ha        1 A1A      0.131500
     45 H26         6.2640   -0.3430   -1.6660 ha        1 A1A      0.131000
     46 H27         5.7780    1.5190   -0.0760 ha        1 A1A      0.131500
     47 H28         3.4530    1.8800    0.7540 ha        1 A1A      0.139000
     48 H34        -4.8080    1.5440   -0.0000 ha        1 A1A      0.147500
     49 H35        -6.0470   -0.4590   -0.7990 ha        1 A1A      0.133000
     50 H36        -5.2990   -2.7440   -0.1290 ha        1 A1A      0.130000
     51 H37        -3.3060   -3.0160    1.3540 ha        1 A1A      0.133000
     52 H38        -2.0670   -1.0250    2.1680 ha        1 A1A      0.147500
     53 H321       -2.8510    1.6480    2.7790 h1        1 A1A      0.053200
     54 H322       -3.1420    2.5370    1.2170 h1        1 A1A      0.053200
     55 H7C1        2.5640   -4.1280    4.1880 h1        1 A1A      0.052700
     56 H7C2        0.7450   -4.1000    4.5200 h1        1 A1A      0.052700
     57 H7C3        1.3600   -3.8320    2.8170 h1        1 A1A      0.052700
     58 H4C1       -1.5210    0.8750   -0.4870 h1        1 A1A      0.070700
     59 H4C2       -1.3590    2.7010   -0.4260 h1        1 A1A      0.070700
     60 H1          1.7760    0.1140    4.4810 hn        1 A1A      0.335500
     61 H221        1.3050    0.5800    1.2530 hc        1 A1A      0.074700
     62 H222        0.6210   -0.4830   -0.0470 hc        1 A1A      0.074700
     63 H6          1.9280    2.9950   -0.5760 ho        1 A1A      0.440000
     64 H12        -0.5320   -0.1220   -2.1470 hn        1 A1A      0.321500
     65 H51         0.4760    1.3450   -4.5240 h1        1 A1A      0.104700
     66 H53         2.2810   -1.0770   -3.8780 ha        1 A1A      0.149000
     67 H54         2.7120   -3.1510   -5.2090 ha        1 A1A      0.132000
     68 H55         0.9970   -4.0130   -6.7930 ha        1 A1A      0.132000
     69 H59        -1.7050    1.6970   -5.0750 h1        1 A1A      0.047700
     70 H60        -3.4040    0.6640   -3.8850 ho        1 A1A      0.409000
     71 H56        -1.1790   -2.8200   -7.0740 ha        1 A1A      0.134000
     72 H581       -2.7860   -1.0210   -5.3690 hc        1 A1A      0.062700
     73 H582       -2.0460    0.0190   -6.6560 hc        1 A1A      0.062700
     74 H41        -1.0740    0.3020    3.6200 h1        1 A1A      0.109700
     75 H42        -1.0630    0.2660    5.9970 hc        1 A1A      0.056700
     76 H431       -1.2280    3.2090    5.0470 hc        1 A1A      0.044867
     77 H432       -2.5190    1.9450    4.8620 hc        1 A1A      0.044867
     78 H433       -2.0180    2.4960    6.5140 hc        1 A1A      0.044867
     79 H441        0.1790    2.0340    7.3720 hc        1 A1A      0.044867
     80 H442        1.2180    0.7410    6.6590 hc        1 A1A      0.044867
     81 H443        1.1790    2.3920    5.9020 hc        1 A1A      0.044867
     82 H47        -0.1000    3.2630    1.7220 hn        1 A1A      0.318500
     83 N24        -1.1990    1.5870    1.4310 n3        1 A1A     -0.492600
@<TRIPOS>BOND
     1    1    2 ar  
     2    1    6 ar  
     3    1   18 1   
     4    2    3 ar  
     5    2   43 1   
     6    3    4 ar  
     7    3   44 1   
     8    4    5 ar  
     9    4   45 1   
    10    5    6 ar  
    11    5   46 1   
    12    6   47 1   
    13    7    8 ar  
    14    7   12 ar  
    15    7   13 1   
    16    8    9 ar  
    17    8   48 1   
    18    9   10 ar  
    19    9   49 1   
    20   10   11 ar  
    21   10   50 1   
    22   11   12 ar  
    23   11   51 1   
    24   12   52 1   
    25   13   53 1   
    26   13   54 1   
    27   13   83 1   
    28   14   20 1   
    29   14   55 1   
    30   14   56 1   
    31   14   57 1   
    32   15   38 1   
    33   15   58 1   
    34   15   59 1   
    35   15   83 1   
    36   16   32 2   
    37   17   32 1   
    38   17   35 1   
    39   17   60 1   
    40   18   38 1   
    41   18   61 1   
    42   18   62 1   
    43   19   38 1   
    44   19   63 1   
    45   20   32 1   
    46   21   22 2   
    47   21   23 1   
    48   21   38 1   
    49   23   24 1   
    50   23   64 1   
    51   24   25 1   
    52   24   30 1   
    53   24   65 1   
    54   25   26 ar  
    55   25   27 ar  
    56   26   33 ar  
    57   26   34 1   
    58   27   28 ar  
    59   27   66 1   
    60   28   29 ar  
    61   28   67 1   
    62   29   33 ar  
    63   29   68 1   
    64   30   31 1   
    65   30   34 1   
    66   30   69 1   
    67   31   70 1   
    68   33   71 1   
    69   34   72 1   
    70   34   73 1   
    71   35   36 1   
    72   35   40 1   
    73   35   74 1   
    74   36   37 1   
    75   36   39 1   
    76   36   75 1   
    77   37   76 1   
    78   37   77 1   
    79   37   78 1   
    80   39   79 1   
    81   39   80 1   
    82   39   81 1   
    83   40   41 2   
    84   40   42 1   
    85   42   82 1   
    86   42   83 1   
@<TRIPOS>SUBSTRUCTURE
     1 A1A         1 TEMP              0 ****  ****    0 ROOT
