@<TRIPOS>MOLECULE
A1E
   81    79     1     0     0
SMALL
bcc


@<TRIPOS>ATOM
      1 C1        -10.4590    1.4450   -0.0270 c3        1 A1E     -0.149000
      2 C2         -8.9870    1.4120    0.0060 c3        1 A1E     -0.195000
      3 C3         -8.3780    1.3430    1.2890 c3        1 A1E      0.042000
      4 C4         -9.1150    2.1550    2.4820 c2        1 A1E     -0.189000
      5 C5        -10.4480    2.7440    2.2020 c1        1 A1E      0.072000
      6 C6        -11.1100    2.4380    0.7860 c2        1 A1E     -0.137000
      7 C7         -8.5190    2.3740    3.6810 c2        1 A1E     -0.018000
      8 C8         -9.1570    3.1460    4.6370 c1        1 A1E     -0.248000
      9 C9        -10.4560    3.7180    4.3600 c1        1 A1E      0.324000
     10 N10       -11.0630    3.4940    3.1360 n3        1 A1E     -0.285000
     11 O11       -10.9790    4.4430    5.1650 o         1 A1E     -0.373000
     12 N12        -7.0230    1.8640    1.1690 n3        1 A1E     -0.306000
     13 C13        -6.1300    0.8020    0.8670 c3        1 A1E     -0.071000
     14 C14        -4.6550    1.3160    0.9410 c3        1 A1E     -0.161000
     15 C15        -3.7290    0.2130    0.5290 c3        1 A1E     -0.158000
     16 C16        -2.2760    0.7310    0.5190 c3        1 A1E     -0.158000
     17 C17        -1.3100   -0.4240    0.0670 c3        1 A1E     -0.158000
     18 C18         0.1260    0.0730    0.1070 c3        1 A1E     -0.158000
     19 C19         1.0950   -1.0840   -0.3280 c3        1 A1E     -0.157000
     20 C20         2.6030   -0.6100   -0.1620 c3        1 A1E     -0.158000
     21 C21         3.5060   -1.5950   -0.8350 c3        1 A1E     -0.163000
     22 C22         4.9620   -1.0700   -0.8020 c3        1 A1E     -0.071000
     23 N23         5.8780   -2.1640   -1.0160 n3        1 A1E     -0.269000
     24 C24         7.3240   -1.9010   -1.1410 c2        1 A1E      0.040000
     25 C25         8.0810   -2.1750    0.0250 c2        1 A1E     -0.104000
     26 C26         9.4820   -1.9430    0.0360 c1        1 A1E      0.012000
     27 N27        10.1290   -1.4330   -1.1280 n1        1 A1E     -0.149000
     28 C28         9.4070   -1.1680   -2.2520 c1        1 A1E      0.022000
     29 C29         7.9510   -1.4080   -2.2680 c1        1 A1E     -0.094000
     30 C30         7.4430   -2.7210    1.1620 c1        1 A1E     -0.121000
     31 C31         8.1790   -3.0300    2.2860 c1        1 A1E     -0.127000
     32 C32         9.5940   -2.7990    2.3050 c1        1 A1E     -0.127000
     33 C33        10.2310   -2.2570    1.1780 c1        1 A1E     -0.098000
     34 C34        10.1340   -0.9090   -3.6510 c3        1 A1E     -0.117000
     35 C35         9.3450   -1.0170   -4.8020 c3        1 A1E     -0.158000
     36 C36         7.9670   -0.5990   -4.6940 c3        1 A1E     -0.159000
     37 C37         7.1940   -1.1750   -3.6220 c3        1 A1E     -0.110000
     38 H11       -10.7790    0.5910    0.2390 hc        1 A1E      0.090500
     39 H12A      -10.7420    1.6040   -0.9850 hc        1 A1E      0.090500
     40 H21        -8.6990    0.6120   -0.5000 hc        1 A1E      0.086500
     41 H22        -8.6640    2.2250   -0.4290 hc        1 A1E      0.086500
     42 H3         -8.3210    0.3830    1.5590 h1        1 A1E      0.102000
     43 H61       -12.0480    2.1180    0.9530 ha        1 A1E      0.100500
     44 H62       -11.1180    3.3390    0.2410 ha        1 A1E      0.100500
     45 H7         -7.6340    1.9820    3.8710 ha        1 A1E      0.158000
     46 H8         -8.7270    3.3040    5.5050 ha        1 A1E      0.162000
     47 H10       -11.9020    3.8620    2.9590 hn        1 A1E      0.242000
     48 H12        -6.9910    2.5230    0.4630 hn        1 A1E      0.158000
     49 H131       -6.2610    0.0380    1.5470 h1        1 A1E      0.067500
     50 H132       -6.3250    0.4490   -0.0920 h1        1 A1E      0.067500
     51 H141       -4.4440    1.5960    1.8800 hc        1 A1E      0.087000
     52 H142       -4.5360    2.1310    0.2980 hc        1 A1E      0.087000
     53 H151       -3.8060   -0.5300    1.1640 hc        1 A1E      0.079500
     54 H152       -3.9750   -0.1020   -0.3820 hc        1 A1E      0.079500
     55 H161       -2.2040    1.4630   -0.0870 hc        1 A1E      0.081000
     56 H162       -2.0360    1.0180    1.3920 hc        1 A1E      0.081000
     57 H171       -1.5340   -0.6960   -0.8370 hc        1 A1E      0.079500
     58 H172       -1.4110   -1.2040    0.6840 hc        1 A1E      0.079500
     59 H181        0.3510    0.3650    1.0380 hc        1 A1E      0.080000
     60 H182        0.2250    0.8230   -0.5010 hc        1 A1E      0.080000
     61 H191        0.9180   -1.3280   -1.3200 hc        1 A1E      0.080500
     62 H192        0.9370   -1.8720    0.2340 hc        1 A1E      0.080500
     63 H201        2.7120    0.2380   -0.5590 hc        1 A1E      0.081500
     64 H202        2.8330   -0.5570    0.8160 hc        1 A1E      0.081500
     65 H211        3.2310   -1.7080   -1.7400 hc        1 A1E      0.087000
     66 H212        3.4530   -2.4790   -0.3550 hc        1 A1E      0.087000
     67 H221        5.0750   -0.4390   -1.4680 h1        1 A1E      0.077000
     68 H222        5.1530   -0.6340    0.1260 h1        1 A1E      0.077000
     69 H23         5.5850   -2.9710   -1.0370 hn        1 A1E      0.169000
     70 H30         6.5130   -2.8710    1.1530 ha        1 A1E      0.126000
     71 H31         7.7250   -3.4160    3.0860 ha        1 A1E      0.134000
     72 H32        10.1030   -3.0130    3.0850 ha        1 A1E      0.134000
     73 H33        11.2410   -2.0920    1.1910 ha        1 A1E      0.150000
     74 H341       10.5130   -0.0160   -3.6310 hc        1 A1E      0.104000
     75 H342       10.8550   -1.5370   -3.7290 hc        1 A1E      0.104000
     76 H351        9.3540   -1.9270   -5.0790 hc        1 A1E      0.086000
     77 H352        9.7580   -0.4900   -5.4900 hc        1 A1E      0.086000
     78 H361        7.9560    0.4130   -4.5800 hc        1 A1E      0.082000
     79 H362        7.5340   -0.8080   -5.5150 hc        1 A1E      0.082000
     80 H371        6.8560   -2.0220   -3.9230 hc        1 A1E      0.098500
     81 H372        6.4350   -0.5910   -3.4460 hc        1 A1E      0.098500
@<TRIPOS>BOND
     1    1    2 1   
     2    1    6 1   
     3    1   38 1   
     4    1   39 1   
     5    2    3 1   
     6    2   40 1   
     7    2   41 1   
     8    3    4 1   
     9    3   12 1   
    10    3   42 1   
    11    4    5 1   
    12    4    7 1   
    13    5   10 1   
    14    6   43 1   
    15    6   44 1   
    16    7    8 1   
    17    7   45 1   
    18    8   46 1   
    19    9   10 1   
    20    9   11 1   
    21   10   47 1   
    22   12   13 1   
    23   12   48 1   
    24   13   14 1   
    25   13   49 1   
    26   13   50 1   
    27   14   15 1   
    28   14   51 1   
    29   14   52 1   
    30   15   16 1   
    31   15   53 1   
    32   15   54 1   
    33   16   17 1   
    34   16   55 1   
    35   16   56 1   
    36   17   18 1   
    37   17   57 1   
    38   17   58 1   
    39   18   19 1   
    40   18   59 1   
    41   18   60 1   
    42   19   20 1   
    43   19   61 1   
    44   19   62 1   
    45   20   21 1   
    46   20   63 1   
    47   20   64 1   
    48   21   22 1   
    49   21   65 1   
    50   21   66 1   
    51   22   23 1   
    52   22   67 1   
    53   22   68 1   
    54   23   24 1   
    55   23   69 1   
    56   24   25 1   
    57   24   29 1   
    58   25   26 1   
    59   25   30 1   
    60   26   33 1   
    61   27   28 1   
    62   28   34 1   
    63   29   37 1   
    64   30   70 1   
    65   31   32 1   
    66   31   71 1   
    67   32   72 1   
    68   33   73 1   
    69   34   35 1   
    70   34   74 1   
    71   34   75 1   
    72   35   36 1   
    73   35   76 1   
    74   35   77 1   
    75   36   37 1   
    76   36   78 1   
    77   36   79 1   
    78   37   80 1   
    79   37   81 1   
@<TRIPOS>SUBSTRUCTURE
     1 A1E         1 TEMP              0 ****  ****    0 ROOT
