@<TRIPOS>MOLECULE
A1E
   82    86     1     0     0
SMALL
bcc


@<TRIPOS>ATOM
      1 C1          0.0380    0.1200   -0.2210 c3        1 A1E     -0.074400
      2 C2          1.4390   -0.3430    0.1070 c3        1 A1E     -0.100400
      3 C3          1.7910   -0.0580    1.5730 c3        1 A1E      0.231700
      4 C4          1.1260    1.1410    2.1530 cc        1 A1E     -0.330200
      5 C5          0.2650    1.9550    1.4210 cd        1 A1E      0.163400
      6 C6         -0.0950    1.6110    0.0020 c3        1 A1E     -0.078200
      7 C7          1.3200    1.4190    3.5500 cc        1 A1E     -0.066000
      8 C8          0.7660    2.5110    4.1240 cd        1 A1E     -0.215200
      9 C9         -0.0610    3.4330    3.3410 c         1 A1E      0.684700
     10 N10        -0.2900    3.0700    1.9850 ns        1 A1E     -0.429100
     11 O11        -0.5760    4.4800    3.7540 o         1 A1E     -0.560500
     12 N12         3.3020    0.0980    1.7290 ny        1 A1E     -0.775000
     13 C13         4.0350   -1.1860    1.5480 c3        1 A1E      0.097800
     14 C14         5.5440   -1.0240    1.6790 c3        1 A1E     -0.108400
     15 C15         6.2130   -2.3710    1.4860 c3        1 A1E     -0.078400
     16 C16         7.7170   -2.2430    1.6090 c3        1 A1E     -0.079400
     17 C17         8.3920   -3.5850    1.4150 c3        1 A1E     -0.079400
     18 C18         9.8960   -3.4600    1.5340 c3        1 A1E     -0.079400
     19 C19        10.5720   -4.8000    1.3340 c3        1 A1E     -0.079400
     20 C20        12.0770   -4.6740    1.4470 c3        1 A1E     -0.079400
     21 C21        12.7510   -6.0120    1.2360 c3        1 A1E     -0.084400
     22 C22        14.2670   -5.8540    1.3480 c3        1 A1E      0.166800
     23 N23        14.9750   -7.1000    1.1010 nu        1 A1E     -0.712600
     24 C24        16.3950   -6.9930    1.2020 ca        1 A1E      0.114600
     25 C25        17.0670   -7.1970    2.4610 ca        1 A1E     -0.168300
     26 C26        18.4940   -7.1710    2.4690 ca        1 A1E      0.406600
     27 N27        19.2300   -6.9380    1.3300 nb        1 A1E     -0.670000
     28 C28        18.5920   -6.7310    0.1820 ca        1 A1E      0.444600
     29 C29        17.1560   -6.7500    0.0580 ca        1 A1E     -0.163600
     30 C30        16.3790   -7.4210    3.6830 ca        1 A1E     -0.125000
     31 C31        17.0680   -7.6270    4.8530 ca        1 A1E     -0.125000
     32 C32        18.4820   -7.6180    4.8620 ca        1 A1E     -0.127000
     33 C33        19.1840   -7.3940    3.7060 ca        1 A1E     -0.160300
     34 C34        19.4440   -6.4470   -1.0290 c3        1 A1E     -0.133700
     35 C35        18.7360   -6.7770   -2.3220 c3        1 A1E     -0.080400
     36 C36        17.3940   -6.0850   -2.3700 c3        1 A1E     -0.080400
     37 C37        16.4900   -6.5770   -1.2610 c3        1 A1E     -0.023100
     38 H11        -0.1870   -0.1190   -1.2940 hc        1 A1E      0.080700
     39 H12A       -0.7090   -0.4310    0.4110 hc        1 A1E      0.080700
     40 H21         2.1550    0.1720   -0.5910 hc        1 A1E      0.067200
     41 H22         1.5220   -1.4470   -0.0800 hc        1 A1E      0.067200
     42 H3          1.5190   -0.9640    2.2000 hx        1 A1E      0.103700
     43 H61        -1.1480    1.9260   -0.2360 hc        1 A1E      0.088700
     44 H62         0.5860    2.1750   -0.6930 hc        1 A1E      0.088700
     45 H7          1.9030    0.7090    4.1590 ha        1 A1E      0.131000
     46 H8          0.8790    2.7630    5.1900 ha        1 A1E      0.187000
     47 H10        -0.9150    3.6380    1.4470 hn        1 A1E      0.351500
     48 H12         3.6380    0.7830    1.0440 hn        1 A1E      0.446300
     49 H131        3.6590   -1.9140    2.3240 hx        1 A1E      0.102700
     50 H132        3.7770   -1.5890    0.5270 hx        1 A1E      0.102700
     51 H141        5.9300   -0.3030    0.9100 hc        1 A1E      0.065700
     52 H142        5.8090   -0.6180    2.6920 hc        1 A1E      0.065700
     53 H151        5.8340   -3.0960    2.2540 hc        1 A1E      0.054200
     54 H152        5.9520   -2.7830    0.4760 hc        1 A1E      0.054200
     55 H161        7.9810   -1.8320    2.6190 hc        1 A1E      0.048700
     56 H162        8.0990   -1.5160    0.8440 hc        1 A1E      0.048700
     57 H171        8.1270   -3.9980    0.4060 hc        1 A1E      0.045700
     58 H172        8.0130   -4.3120    2.1810 hc        1 A1E      0.045700
     59 H181       10.1620   -3.0510    2.5440 hc        1 A1E      0.043700
     60 H182       10.2750   -2.7300    0.7710 hc        1 A1E      0.043700
     61 H191       10.1970   -5.5290    2.1000 hc        1 A1E      0.043200
     62 H192       10.3040   -5.2110    0.3250 hc        1 A1E      0.043200
     63 H201       12.3460   -4.2690    2.4590 hc        1 A1E      0.043200
     64 H202       12.4510   -3.9390    0.6860 hc        1 A1E      0.043200
     65 H211       12.3820   -6.7450    2.0010 hc        1 A1E      0.048700
     66 H212       12.4820   -6.4180    0.2260 hc        1 A1E      0.048700
     67 H221       14.6160   -5.1040    0.5840 h1        1 A1E      0.037700
     68 H222       14.5080   -5.4300    2.3680 h1        1 A1E      0.037700
     69 H23        14.6380   -7.8250    1.7110 hn        1 A1E      0.373800
     70 H30        15.2790   -7.4230    3.7040 ha        1 A1E      0.122000
     71 H31        16.5290   -7.8010    5.7960 ha        1 A1E      0.133000
     72 H32        19.0120   -7.7910    5.8110 ha        1 A1E      0.138000
     73 H33        20.2860   -7.3830    3.7080 ha        1 A1E      0.153000
     74 H341       20.4060   -7.0240   -0.9740 hc        1 A1E      0.066700
     75 H342       19.7090   -5.3540   -1.0110 hc        1 A1E      0.066700
     76 H351       19.3700   -6.4460   -3.1850 hc        1 A1E      0.049200
     77 H352       18.5960   -7.8860   -2.4120 hc        1 A1E      0.049200
     78 H361       16.9000   -6.2750   -3.3590 hc        1 A1E      0.042200
     79 H362       17.5420   -4.9770   -2.2790 hc        1 A1E      0.042200
     80 H371       15.6300   -5.8590   -1.1640 hc        1 A1E      0.057200
     81 H372       16.0510   -7.5720   -1.5540 hc        1 A1E      0.057200
     82 H122        3.4980    0.4740    2.6640 hn        1 A1E      0.446300
@<TRIPOS>BOND
     1    1    2 1   
     2    1    6 1   
     3    1   38 1   
     4    1   39 1   
     5    2    3 1   
     6    2   40 1   
     7    2   41 1   
     8    3    4 1   
     9    3   12 1   
    10    3   42 1   
    11    4    5 2   
    12    4    7 1   
    13    5    6 1   
    14    5   10 1   
    15    6   43 1   
    16    6   44 1   
    17    7    8 2   
    18    7   45 1   
    19    8    9 1   
    20    8   46 1   
    21    9   10 1   
    22    9   11 2   
    23   10   47 1   
    24   12   13 1   
    25   12   48 1   
    26   12   82 1   
    27   13   14 1   
    28   13   49 1   
    29   13   50 1   
    30   14   15 1   
    31   14   51 1   
    32   14   52 1   
    33   15   16 1   
    34   15   53 1   
    35   15   54 1   
    36   16   17 1   
    37   16   55 1   
    38   16   56 1   
    39   17   18 1   
    40   17   57 1   
    41   17   58 1   
    42   18   19 1   
    43   18   59 1   
    44   18   60 1   
    45   19   20 1   
    46   19   61 1   
    47   19   62 1   
    48   20   21 1   
    49   20   63 1   
    50   20   64 1   
    51   21   22 1   
    52   21   65 1   
    53   21   66 1   
    54   22   23 1   
    55   22   67 1   
    56   22   68 1   
    57   23   24 1   
    58   23   69 1   
    59   24   25 ar  
    60   24   29 ar  
    61   25   26 ar  
    62   25   30 ar  
    63   26   27 ar  
    64   26   33 ar  
    65   27   28 ar  
    66   28   29 ar  
    67   28   34 1   
    68   29   37 1   
    69   30   31 ar  
    70   30   70 1   
    71   31   32 ar  
    72   31   71 1   
    73   32   33 ar  
    74   32   72 1   
    75   33   73 1   
    76   34   35 1   
    77   34   74 1   
    78   34   75 1   
    79   35   36 1   
    80   35   76 1   
    81   35   77 1   
    82   36   37 1   
    83   36   78 1   
    84   36   79 1   
    85   37   80 1   
    86   37   81 1   
@<TRIPOS>SUBSTRUCTURE
     1 A1E         1 TEMP              0 ****  ****    0 ROOT
