@<TRIPOS>MOLECULE
A1E
   83    87     1     0     0
SMALL
bcc


@<TRIPOS>ATOM
      1 C1         -0.0230    0.2120   -0.1190 c3        1 A1E     -0.074400
      2 C2          1.3870   -0.2650    0.1430 c3        1 A1E     -0.100400
      3 C3          1.7780   -0.0570    1.6120 c3        1 A1E      0.234700
      4 C4          1.1340    1.1090    2.2710 cc        1 A1E     -0.336200
      5 C5          0.2540    1.9620    1.6070 cd        1 A1E      0.168400
      6 C6         -0.1500    1.6890    0.1850 c3        1 A1E     -0.079200
      7 C7          1.3650    1.3120    3.6760 cc        1 A1E     -0.069000
      8 C8          0.8330    2.3740    4.3220 cd        1 A1E     -0.213200
      9 C9         -0.0090    3.3410    3.6100 c         1 A1E      0.684700
     10 N10        -0.2800    3.0470    2.2440 n         1 A1E     -0.427100
     11 O11        -0.5020    4.3690    4.0890 o         1 A1E     -0.552500
     12 N12         3.2960    0.0950    1.7340 n4        1 A1E     -0.777000
     13 C13         4.0240   -1.1800    1.4860 c3        1 A1E      0.098800
     14 C14         5.5370   -1.0270    1.5960 c3        1 A1E     -0.108400
     15 C15         6.2010   -2.3700    1.3550 c3        1 A1E     -0.078400
     16 C16         7.7070   -2.2520    1.4710 c3        1 A1E     -0.079400
     17 C17         8.3770   -3.5920    1.2420 c3        1 A1E     -0.079400
     18 C18         9.8820   -3.4770    1.3660 c3        1 A1E     -0.079400
     19 C19        10.5520   -4.8180    1.1440 c3        1 A1E     -0.079400
     20 C20        12.0570   -4.6990    1.2740 c3        1 A1E     -0.077400
     21 C21        12.7250   -6.0440    1.0540 c3        1 A1E     -0.110400
     22 C22        14.2330   -5.8860    1.1960 c3        1 A1E      0.101800
     23 N23        14.9660   -7.1770    0.9940 n4        1 A1E     -0.631400
     24 C24        16.4170   -7.0220    1.1600 ca        1 A1E     -0.032400
     25 C25        16.9610   -7.0990    2.4850 ca        1 A1E     -0.135300
     26 C26        18.3860   -7.0070    2.5910 ca        1 A1E      0.413600
     27 N27        19.1950   -6.8380    1.4940 nb        1 A1E     -0.607000
     28 C28        18.6610   -6.7500    0.2830 ca        1 A1E      0.450600
     29 C29        17.2340   -6.8340    0.0490 ca        1 A1E     -0.118600
     30 C30        16.1910   -7.2630    3.6650 ca        1 A1E     -0.174000
     31 C31        16.8020   -7.3480    4.8940 ca        1 A1E     -0.065000
     32 C32        18.2100   -7.2670    5.0050 ca        1 A1E     -0.111000
     33 C33        18.9900   -7.0990    3.8890 ca        1 A1E     -0.131300
     34 C34        19.5990   -6.5330   -0.8760 c3        1 A1E     -0.141700
     35 C35        18.9960   -6.9400   -2.2000 c3        1 A1E     -0.087400
     36 C36        17.6460   -6.2900   -2.3820 c3        1 A1E     -0.077400
     37 C37        16.6700   -6.7700   -1.3270 c3        1 A1E     -0.056100
     38 H11        -0.2800    0.0300   -1.1970 hc        1 A1E      0.082200
     39 H12A       -0.7510   -0.3720    0.5040 hc        1 A1E      0.082200
     40 H21         1.4640   -1.3570   -0.1040 hc        1 A1E      0.065700
     41 H22         2.0820    0.2880   -0.5460 hc        1 A1E      0.065700
     42 H3          1.5280   -0.9950    2.1990 hx        1 A1E      0.102700
     43 H61         0.5080    2.2910   -0.5010 hc        1 A1E      0.090200
     44 H62        -1.2100    2.0140   -0.0040 hc        1 A1E      0.090200
     45 H7          1.9570    0.5670    4.2320 ha        1 A1E      0.129000
     46 H8          0.9720    2.5670    5.3970 ha        1 A1E      0.188000
     47 H10        -0.9200    3.6430    1.7560 hn        1 A1E      0.353500
     48 H12         3.5140    0.4360    2.6780 hn        1 A1E      0.446300
     49 H131        3.7470   -1.5400    0.4530 hx        1 A1E      0.103200
     50 H132        3.6610   -1.9400    2.2360 hx        1 A1E      0.103200
     51 H141        5.8190   -0.6500    2.6150 hc        1 A1E      0.066700
     52 H142        5.9120   -0.2850    0.8420 hc        1 A1E      0.066700
     53 H151        5.9310   -2.7490    0.3340 hc        1 A1E      0.055700
     54 H152        5.8240   -3.1180    2.1020 hc        1 A1E      0.055700
     55 H161        7.9790   -1.8660    2.4890 hc        1 A1E      0.050700
     56 H162        8.0870   -1.5100    0.7200 hc        1 A1E      0.050700
     57 H171        7.9930   -4.3370    1.9900 hc        1 A1E      0.047700
     58 H172        8.1110   -3.9770    0.2230 hc        1 A1E      0.047700
     59 H181       10.2650   -2.7360    0.6160 hc        1 A1E      0.048700
     60 H182       10.1470   -3.0880    2.3850 hc        1 A1E      0.048700
     61 H191       10.2900   -5.2050    0.1240 hc        1 A1E      0.049700
     62 H192       10.1660   -5.5600    1.8920 hc        1 A1E      0.049700
     63 H201       12.3170   -4.3090    2.2940 hc        1 A1E      0.057200
     64 H202       12.4420   -3.9580    0.5230 hc        1 A1E      0.057200
     65 H211       12.3340   -6.7810    1.8060 hc        1 A1E      0.064700
     66 H212       12.4630   -6.4270    0.0320 hc        1 A1E      0.064700
     67 H221       14.6240   -5.1490    0.4380 hx        1 A1E      0.112200
     68 H222       14.4950   -5.5070    2.2270 hx        1 A1E      0.112200
     69 H23        14.6310   -7.8700    1.6760 hn        1 A1E      0.454800
     70 H30        15.0940   -7.3180    3.6250 ha        1 A1E      0.114000
     71 H31        16.2000   -7.4790    5.8080 ha        1 A1E      0.158000
     72 H32        18.6740   -7.3410    6.0040 ha        1 A1E      0.169000
     73 H33        20.0890   -7.0320    3.9700 ha        1 A1E      0.181000
     74 H341       19.8660   -5.4400   -0.8980 hc        1 A1E      0.090200
     75 H342       20.5550   -7.1040   -0.7110 hc        1 A1E      0.090200
     76 H351       19.6850   -6.6240   -3.0280 hc        1 A1E      0.069200
     77 H352       18.8970   -8.0560   -2.2560 hc        1 A1E      0.069200
     78 H361       17.7520   -5.1740   -2.3220 hc        1 A1E      0.065200
     79 H362       17.2340   -6.5340   -3.3970 hc        1 A1E      0.065200
     80 H371       16.3200   -7.8040   -1.6090 hc        1 A1E      0.051700
     81 H372       15.7770   -6.0850   -1.3490 hc        1 A1E      0.051700
     82 H122        3.6130    0.8060    1.0670 hn        1 A1E      0.446300
     83 H232       14.7670   -7.5370    0.0520 hn        1 A1E      0.454800
@<TRIPOS>BOND
     1    1    2 1   
     2    1    6 1   
     3    1   38 1   
     4    1   39 1   
     5    2    3 1   
     6    2   40 1   
     7    2   41 1   
     8    3    4 1   
     9    3   12 1   
    10    3   42 1   
    11    4    5 2   
    12    4    7 1   
    13    5    6 1   
    14    5   10 1   
    15    6   43 1   
    16    6   44 1   
    17    7    8 2   
    18    7   45 1   
    19    8    9 1   
    20    8   46 1   
    21    9   10 1   
    22    9   11 2   
    23   10   47 1   
    24   12   13 1   
    25   12   48 1   
    26   12   82 1   
    27   13   14 1   
    28   13   49 1   
    29   13   50 1   
    30   14   15 1   
    31   14   51 1   
    32   14   52 1   
    33   15   16 1   
    34   15   53 1   
    35   15   54 1   
    36   16   17 1   
    37   16   55 1   
    38   16   56 1   
    39   17   18 1   
    40   17   57 1   
    41   17   58 1   
    42   18   19 1   
    43   18   59 1   
    44   18   60 1   
    45   19   20 1   
    46   19   61 1   
    47   19   62 1   
    48   20   21 1   
    49   20   63 1   
    50   20   64 1   
    51   21   22 1   
    52   21   65 1   
    53   21   66 1   
    54   22   23 1   
    55   22   67 1   
    56   22   68 1   
    57   23   24 1   
    58   23   69 1   
    59   23   83 1   
    60   24   25 ar  
    61   24   29 ar  
    62   25   26 ar  
    63   25   30 ar  
    64   26   27 ar  
    65   26   33 ar  
    66   27   28 ar  
    67   28   29 ar  
    68   28   34 1   
    69   29   37 1   
    70   30   31 ar  
    71   30   70 1   
    72   31   32 ar  
    73   31   71 1   
    74   32   33 ar  
    75   32   72 1   
    76   33   73 1   
    77   34   35 1   
    78   34   74 1   
    79   34   75 1   
    80   35   36 1   
    81   35   76 1   
    82   35   77 1   
    83   36   37 1   
    84   36   78 1   
    85   36   79 1   
    86   37   80 1   
    87   37   81 1   
@<TRIPOS>SUBSTRUCTURE
     1 A1E         1 TEMP              0 ****  ****    0 ROOT
