@<TRIPOS>MOLECULE
A1E
   81    85     1     0     0
SMALL
bcc


@<TRIPOS>ATOM
      1 C1         10.0420    2.1840    1.5000 c3        1 A1E     -0.070400
      2 C2          8.6470    1.9070    0.9950 c3        1 A1E     -0.116400
      3 C3          8.4720    0.4200    0.6350 c3        1 A1E      0.243700
      4 C4          9.6630   -0.1070   -0.1260 cc        1 A1E     -0.193200
      5 C5         10.8590    0.5830   -0.2190 cd        1 A1E      0.070400
      6 C6         11.0570    1.9340    0.4070 c3        1 A1E     -0.054200
      7 C7          9.5690   -1.4080   -0.7250 cc        1 A1E     -0.018000
      8 C8         10.6170   -1.9430   -1.4010 cd        1 A1E     -0.267200
      9 C9         11.8750   -1.2140   -1.5320 c         1 A1E      0.685700
     10 N10        11.9320    0.0470   -0.9080 n         1 A1E     -0.441100
     11 O11        12.8890   -1.6130   -2.1380 o         1 A1E     -0.648500
     12 N12         7.2280    0.1230   -0.0690 n3        1 A1E     -0.827200
     13 C13         6.0290    0.4250    0.6850 c3        1 A1E      0.165800
     14 C14         4.7510    0.1170   -0.0940 c3        1 A1E     -0.082400
     15 C15         3.5380    0.4040    0.7650 c3        1 A1E     -0.079400
     16 C16         2.2570    0.1080    0.0160 c3        1 A1E     -0.079400
     17 C17         1.0420    0.3910    0.8730 c3        1 A1E     -0.079400
     18 C18        -0.2400    0.0960    0.1230 c3        1 A1E     -0.079400
     19 C19        -1.4540    0.3790    0.9810 c3        1 A1E     -0.078400
     20 C20        -2.7360    0.0850    0.2300 c3        1 A1E     -0.079400
     21 C21        -3.9480    0.3700    1.0900 c3        1 A1E     -0.084400
     22 C22        -5.2250    0.0630    0.3080 c3        1 A1E      0.165800
     23 N23        -6.4290    0.3540    1.0720 nh        1 A1E     -0.713600
     24 C24        -7.6430    0.0450    0.3920 ca        1 A1E      0.121600
     25 C25        -8.2540   -1.2560    0.5140 ca        1 A1E     -0.169300
     26 C26        -9.5210   -1.4620   -0.1070 ca        1 A1E      0.405600
     27 N27       -10.1540   -0.4760   -0.8300 nb        1 A1E     -0.675000
     28 C28        -9.5650    0.7090   -0.9530 ca        1 A1E      0.444600
     29 C29        -8.2940    1.0310   -0.3530 ca        1 A1E     -0.166600
     30 C30        -7.6530   -2.3320    1.2190 ca        1 A1E     -0.121000
     31 C31        -8.2820   -3.5480    1.3210 ca        1 A1E     -0.127000
     32 C32        -9.5470   -3.7510    0.7220 ca        1 A1E     -0.127000
     33 C33       -10.1560   -2.7410    0.0220 ca        1 A1E     -0.163300
     34 C34       -10.2810    1.7430   -1.7850 c3        1 A1E     -0.132700
     35 C35        -9.8790    3.1540   -1.4230 c3        1 A1E     -0.079400
     36 C36        -8.3770    3.2940   -1.4790 c3        1 A1E     -0.080400
     37 C37        -7.7080    2.3940   -0.4630 c3        1 A1E     -0.024100
     38 H11        10.1200    3.2490    1.8400 hc        1 A1E      0.051200
     39 H12A       10.2640    1.5290    2.3830 hc        1 A1E      0.051200
     40 H21         8.4390    2.5490    0.0980 hc        1 A1E      0.047200
     41 H22         7.9030    2.1830    1.7870 hc        1 A1E      0.047200
     42 H3          8.4320   -0.1580    1.6110 h1        1 A1E      0.062700
     43 H61        12.0920    2.0270    0.8350 hc        1 A1E      0.061200
     44 H62        10.9540    2.7150   -0.3950 hc        1 A1E      0.061200
     45 H7          8.6260   -1.9700   -0.6210 ha        1 A1E      0.158000
     46 H8         10.5870   -2.9340   -1.8750 ha        1 A1E      0.162000
     47 H10        12.7820    0.5640   -0.9620 hn        1 A1E      0.328500
     48 H12         7.2130    0.5760   -0.9630 hn        1 A1E      0.362800
     49 H131        6.0480   -0.2030    1.6210 h1        1 A1E      0.028200
     50 H132        5.9880    1.5070    1.0120 h1        1 A1E      0.028200
     51 H141        4.7080    0.7390   -1.0260 hc        1 A1E      0.047700
     52 H142        4.7440   -0.9590   -0.4090 hc        1 A1E      0.047700
     53 H151        3.5800   -0.2190    1.6980 hc        1 A1E      0.040200
     54 H152        3.5460    1.4790    1.0850 hc        1 A1E      0.040200
     55 H161        2.2130    0.7310   -0.9160 hc        1 A1E      0.041700
     56 H162        2.2480   -0.9670   -0.3050 hc        1 A1E      0.041700
     57 H171        1.0850   -0.2330    1.8040 hc        1 A1E      0.040200
     58 H172        1.0500    1.4660    1.1950 hc        1 A1E      0.040200
     59 H181       -0.2830    0.7210   -0.8080 hc        1 A1E      0.040700
     60 H182       -0.2480   -0.9790   -0.1990 hc        1 A1E      0.040700
     61 H191       -1.4120   -0.2460    1.9110 hc        1 A1E      0.041200
     62 H192       -1.4460    1.4530    1.3030 hc        1 A1E      0.041200
     63 H201       -2.7780    0.7100   -0.7010 hc        1 A1E      0.042200
     64 H202       -2.7440   -0.9900   -0.0930 hc        1 A1E      0.042200
     65 H211       -3.9060   -0.2560    2.0200 hc        1 A1E      0.047700
     66 H212       -3.9420    1.4450    1.4090 hc        1 A1E      0.047700
     67 H221       -5.2470    0.6960   -0.6240 h1        1 A1E      0.037700
     68 H222       -5.1920   -1.0170   -0.0230 h1        1 A1E      0.037700
     69 H23        -6.4020   -0.1100    1.9620 hn        1 A1E      0.373800
     70 H30        -6.6630   -2.2030    1.6830 ha        1 A1E      0.126000
     71 H31        -7.8100   -4.3780    1.8670 ha        1 A1E      0.133000
     72 H32       -10.0340   -4.7320    0.8220 ha        1 A1E      0.135000
     73 H33       -11.1400   -2.8960   -0.4500 ha        1 A1E      0.150000
     74 H341      -11.3930    1.6320   -1.6730 hc        1 A1E      0.064700
     75 H342      -10.0330    1.5430   -2.8630 hc        1 A1E      0.064700
     76 H351      -10.2470    3.4070   -0.3950 hc        1 A1E      0.046700
     77 H352      -10.3600    3.8690   -2.1400 hc        1 A1E      0.046700
     78 H361       -8.0830    4.3570   -1.2770 hc        1 A1E      0.042700
     79 H362       -8.0160    3.0390   -2.5100 hc        1 A1E      0.042700
     80 H371       -7.7680    2.8730    0.5540 hc        1 A1E      0.059200
     81 H372       -6.6160    2.3210   -0.7230 hc        1 A1E      0.059200
@<TRIPOS>BOND
     1    1    2 1   
     2    1    6 1   
     3    1   38 1   
     4    1   39 1   
     5    2    3 1   
     6    2   40 1   
     7    2   41 1   
     8    3    4 1   
     9    3   12 1   
    10    3   42 1   
    11    4    5 2   
    12    4    7 1   
    13    5    6 1   
    14    5   10 1   
    15    6   43 1   
    16    6   44 1   
    17    7    8 2   
    18    7   45 1   
    19    8    9 1   
    20    8   46 1   
    21    9   10 1   
    22    9   11 2   
    23   10   47 1   
    24   12   13 1   
    25   12   48 1   
    26   13   14 1   
    27   13   49 1   
    28   13   50 1   
    29   14   15 1   
    30   14   51 1   
    31   14   52 1   
    32   15   16 1   
    33   15   53 1   
    34   15   54 1   
    35   16   17 1   
    36   16   55 1   
    37   16   56 1   
    38   17   18 1   
    39   17   57 1   
    40   17   58 1   
    41   18   19 1   
    42   18   59 1   
    43   18   60 1   
    44   19   20 1   
    45   19   61 1   
    46   19   62 1   
    47   20   21 1   
    48   20   63 1   
    49   20   64 1   
    50   21   22 1   
    51   21   65 1   
    52   21   66 1   
    53   22   23 1   
    54   22   67 1   
    55   22   68 1   
    56   23   24 1   
    57   23   69 1   
    58   24   25 ar  
    59   24   29 ar  
    60   25   26 ar  
    61   25   30 ar  
    62   26   27 ar  
    63   26   33 ar  
    64   27   28 ar  
    65   28   29 ar  
    66   28   34 1   
    67   29   37 1   
    68   30   31 ar  
    69   30   70 1   
    70   31   32 ar  
    71   31   71 1   
    72   32   33 ar  
    73   32   72 1   
    74   33   73 1   
    75   34   35 1   
    76   34   74 1   
    77   34   75 1   
    78   35   36 1   
    79   35   76 1   
    80   35   77 1   
    81   36   37 1   
    82   36   78 1   
    83   36   79 1   
    84   37   80 1   
    85   37   81 1   
@<TRIPOS>SUBSTRUCTURE
     1 A1E         1 TEMP              0 ****  ****    0 ROOT
