@<TRIPOS>MOLECULE
A1L
   72    74     1     0     0
SMALL
bcc


@<TRIPOS>ATOM
      1 C9          0.0000    0.0000    0.0000 c3        1 A1L     -0.244000
      2 N6          1.4650    0.0000    0.0000 ny        1 A1L      0.790000
      3 C8          2.1390    0.0000    1.1670 c2        1 A1L     -0.170000
      4 O3          1.5310    0.0000    2.2190 o         1 A1L     -0.083000
      5 N4          3.4870    0.0010    1.1670 ny        1 A1L      0.820000
      6 C7          4.1760    0.0000    2.3630 c2        1 A1L     -0.625000
      7 N5          3.5260    0.0000    3.4900 n2        1 A1L      0.295000
      8 N3          5.5510    0.0000    2.3630 ny        1 A1L      0.829000
      9 C6          6.2840    0.0010    3.6320 c3        1 A1L     -0.276000
     10 C5          7.7880    0.0010    3.3520 c3        1 A1L     -0.149000
     11 C4          8.5520    0.1250    4.6730 c3        1 A1L     -0.141000
     12 C2         10.0500    0.2510    4.3850 c3        1 A1L     -0.275000
     13 N2         10.5370   -0.9960    3.7900 ny        1 A1L      0.708000
     14 C3         10.4310   -2.1550    4.4710 c2        1 A1L     -0.003000
     15 O1          9.9330   -2.1660    5.5760 o         1 A1L     -0.096000
     16 C10        10.9340   -3.4360    3.8580 c3        1 A1L      0.056000
     17 N7         10.7060   -4.5440    4.7890 n2        1 A1L     -0.595000
     18 N8         11.0520   -5.7050    4.4770 n2        1 A1L      0.796000
     19 N9         11.3280   -6.6630    4.2040 n1        1 A1L     -0.159000
     20 C1         10.7870    0.5150    5.6720 c2        1 A1L      0.127000
     21 O2         11.0490   -0.4020    6.4200 o         1 A1L     -0.120000
     22 N1         11.1550    1.7720    5.9910 nx        1 A1L      0.376000
     23 C12        10.7500    2.8930    5.1400 DU        1 A1L     -0.163000
     24 C13         9.4990    3.5200    5.6970 ca        1 A1L     -0.181000
     25 C20         9.5870    4.4580    6.7100 ca        1 A1L     -0.151000
     26 C21         8.4390    5.0330    7.2210 ca        1 A1L     -0.027000
     27 C22         7.2020    4.6700    6.7210 ca        1 A1L     -0.013000
     28 C23         7.1130    3.7330    5.7090 ca        1 A1L     -0.027000
     29 C24         8.2620    3.1630    5.1920 ca        1 A1L     -0.151000
     30 C11        11.9620    2.0170    7.1900 c3        1 A1L     -0.178000
     31 C14        13.4200    2.0700    6.8120 ca        1 A1L     -0.209000
     32 C15        14.1520    0.9020    6.7150 ca        1 A1L     -0.052000
     33 C16        15.4880    0.9500    6.3640 ca        1 A1L     -0.030000
     34 C17        16.0920    2.1670    6.1090 ca        1 A1L     -0.019000
     35 C18        15.3600    3.3350    6.2050 ca        1 A1L     -0.030000
     36 C19        14.0230    3.2880    6.5570 ca        1 A1L     -0.052000
     37 H1         -0.3610    0.8140    0.6170 hx        1 A1L      0.161000
     38 H2         -0.3610    0.1270   -1.0130 hx        1 A1L      0.161000
     39 H3         -0.3610   -0.9410    0.3970 hx        1 A1L      0.161000
     40 H4          1.7990    0.8170   -0.4720 hn        1 A1L      0.063500
     41 H5          3.8200   -0.7560    0.6040 hn        1 A1L      0.065500
     42 H6          2.5250    0.0000    3.4910 hn        1 A1L      0.200000
     43 H7          5.8850    0.5420    1.5910 hn        1 A1L      0.053000
     44 H8          6.4760   -1.0200    3.9380 hx        1 A1L      0.164500
     45 H9          5.6920    0.4990    4.3900 hx        1 A1L      0.164500
     46 H10         8.0000   -0.6560    2.5170 hc        1 A1L      0.087000
     47 H11         8.1110    1.0070    3.1110 hc        1 A1L      0.087000
     48 H12         8.4020   -0.7710    5.2620 hc        1 A1L      0.143000
     49 H13         8.1860    0.9840    5.2220 hc        1 A1L      0.143000
     50 H14        10.2180    1.0700    3.6970 hx        1 A1L      0.146000
     51 H15        10.0830   -1.1460    2.9110 hn        1 A1L      0.072000
     52 H16        11.9980   -3.3530    3.6690 h1        1 A1L      0.063500
     53 H17        10.4150   -3.6180    2.9250 h1        1 A1L      0.063500
     54 H19        11.5940    3.2180    4.5440 hx        1 A1L      0.137000
     55 H20         9.9470    2.5770    4.4850 hx        1 A1L      0.137000
     56 H21        10.5580    4.7810    7.0650 ha        1 A1L      0.140500
     57 H22         8.5070    5.7500    8.0300 ha        1 A1L      0.128500
     58 H23         6.3020    5.1180    7.1240 ha        1 A1L      0.152000
     59 H24         6.1450    3.4660    5.3010 ha        1 A1L      0.128500
     60 H25         7.9290    3.1870    4.1620 ha        1 A1L      0.140500
     61 H26        12.2040    3.0710    7.2530 hx        1 A1L      0.161500
     62 H27        11.4020    1.7220    8.0680 hx        1 A1L      0.161500
     63 H28        13.6960   -0.0460    6.9740 ha        1 A1L      0.117000
     64 H29        16.0610    0.0340    6.2880 ha        1 A1L      0.146500
     65 H30        17.1390    2.2040    5.8330 ha        1 A1L      0.154000
     66 H31        15.8360    4.2900    6.0170 ha        1 A1L      0.146500
     67 H32        13.4700    4.2070    6.7050 ha        1 A1L      0.117000
     68 H62         1.7990   -0.8610   -0.3870 hn        1 A1L      0.063500
     69 H42         3.8190    0.8780    0.8190 hn        1 A1L      0.065500
     70 H321        5.8850   -0.9420    2.3080 hn        1 A1L      0.053000
     71 H221       11.5370   -0.9760    3.7470 hn        1 A1L      0.072000
     72 H111       10.3410    2.3140    6.2040 DU        1 A1L      0.198000
@<TRIPOS>BOND
     1    1    2 1   
     2    1   37 1   
     3    1   38 1   
     4    1   39 1   
     5    2    3 1   
     6    2   40 1   
     7    2   68 1   
     8    3    4 1   
     9    3    5 1   
    10    5    6 1   
    11    5   41 1   
    12    5   69 1   
    13    6    7 1   
    14    6    8 1   
    15    7   42 1   
    16    8    9 1   
    17    8   43 1   
    18    8   70 1   
    19    9   10 1   
    20    9   44 1   
    21    9   45 1   
    22   10   11 1   
    23   10   46 1   
    24   10   47 1   
    25   11   12 1   
    26   11   48 1   
    27   11   49 1   
    28   12   13 1   
    29   12   20 1   
    30   12   50 1   
    31   13   14 1   
    32   13   51 1   
    33   13   71 1   
    34   14   15 1   
    35   14   16 1   
    36   16   17 1   
    37   16   52 1   
    38   16   53 1   
    39   17   18 1   
    40   18   19 1   
    41   20   21 1   
    42   20   22 1   
    43   22   23 1   
    44   22   30 1   
    45   22   72 1   
    46   23   24 1   
    47   23   54 1   
    48   23   55 1   
    49   23   72 1   
    50   24   25 1   
    51   24   29 1   
    52   25   26 1   
    53   25   56 1   
    54   26   27 1   
    55   26   57 1   
    56   27   28 1   
    57   27   58 1   
    58   28   29 1   
    59   28   59 1   
    60   29   60 1   
    61   30   31 1   
    62   30   61 1   
    63   30   62 1   
    64   31   32 1   
    65   31   36 1   
    66   32   33 1   
    67   32   63 1   
    68   33   34 1   
    69   33   64 1   
    70   34   35 1   
    71   34   65 1   
    72   35   36 1   
    73   35   66 1   
    74   36   67 1   
@<TRIPOS>SUBSTRUCTURE
     1 A1L         1 TEMP              0 ****  ****    0 ROOT
