@<TRIPOS>MOLECULE
A1L
   67    68     1     0     0
SMALL
bcc


@<TRIPOS>ATOM
      1 C9          8.5900   -1.9030    0.8980 c3        1 A1L      0.073300
      2 N6          8.1890   -0.6450    0.3420 n         1 A1L     -0.550900
      3 C8          6.8230   -0.3180    0.3120 c         1 A1L      0.753100
      4 O3          5.9560   -1.2000    0.5250 o         1 A1L     -0.639100
      5 N4          6.4660    1.0260    0.0460 n         1 A1L     -0.475400
      6 C7          5.1430    1.3470   -0.4410 c2        1 A1L      0.651800
      7 N5          5.0830    2.1510   -1.4730 n2        1 A1L     -0.882100
      8 N3          4.0490    0.8750    0.3460 nh        1 A1L     -0.829200
      9 C6          2.7640    0.7990   -0.3160 c3        1 A1L      0.178800
     10 C5          1.7590   -0.0730    0.4380 c3        1 A1L     -0.083400
     11 C4          0.4220   -0.0320   -0.2700 c3        1 A1L     -0.088400
     12 C2         -0.7020   -0.5840    0.6170 c3        1 A1L      0.051700
     13 N2         -0.5680   -1.9600    1.0340 n         1 A1L     -0.527900
     14 C3         -0.0550   -2.9860    0.2480 c         1 A1L      0.638100
     15 O1          0.6120   -2.8020   -0.7850 o         1 A1L     -0.593100
     16 C10        -0.2280   -4.4180    0.7890 c3        1 A1L      0.094800
     17 N7         -0.7340   -5.3790   -0.1590 n2        1 A1L     -0.445200
     18 N8         -0.1880   -5.5540   -1.2820 n1        1 A1L      0.231000
     19 N9          0.1430   -5.8460   -2.3250 n1        1 A1L     -0.016000
     20 C1         -2.0350   -0.3300   -0.1370 c         1 A1L      0.625100
     21 O2         -2.5230   -1.2290   -0.8510 o         1 A1L     -0.602100
     22 N1         -2.6660    0.9040   -0.0610 n         1 A1L     -0.464800
     23 C12        -2.4020    1.8960    0.9550 c3        1 A1L      0.135300
     24 C13        -1.5210    3.0390    0.5270 ca        1 A1L     -0.114800
     25 C20        -2.0550    4.1010   -0.2090 ca        1 A1L     -0.118000
     26 C21        -1.2490    5.1790   -0.5740 ca        1 A1L     -0.131750
     27 C22         0.0960    5.2050   -0.2020 ca        1 A1L     -0.122500
     28 C23         0.6310    4.1510    0.5390 ca        1 A1L     -0.131750
     29 C24        -0.1740    3.0730    0.9040 ca        1 A1L     -0.118000
     30 C11        -3.8220    1.1480   -0.9060 c3        1 A1L      0.135300
     31 C14        -5.1470    0.9130   -0.2370 ca        1 A1L     -0.114800
     32 C15        -5.6310   -0.3920   -0.0980 ca        1 A1L     -0.118000
     33 C16        -6.8730   -0.6160    0.4930 ca        1 A1L     -0.131750
     34 C17        -7.6350    0.4600    0.9500 ca        1 A1L     -0.122500
     35 C18        -7.1530    1.7620    0.8150 ca        1 A1L     -0.131750
     36 C19        -5.9100    1.9890    0.2250 ca        1 A1L     -0.118000
     37 H1          7.8250   -2.6890    0.6560 h1        1 A1L      0.049033
     38 H2          9.5750   -2.1890    0.4410 h1        1 A1L      0.049033
     39 H3          8.7070   -1.8490    2.0140 h1        1 A1L      0.049033
     40 H4          8.8500    0.0930    0.4190 hn        1 A1L      0.301500
     41 H5          7.1790    1.6180   -0.3330 hn        1 A1L      0.323500
     42 H6          4.1700    2.4320   -1.7540 hn        1 A1L      0.404400
     43 H7          4.2540    0.0710    0.9110 hn        1 A1L      0.431800
     44 H8          2.3540    1.8500   -0.3790 h1        1 A1L      0.043200
     45 H9          2.8530    0.4020   -1.3700 h1        1 A1L      0.043200
     46 H10         2.1250   -1.1340    0.4800 hc        1 A1L      0.056700
     47 H11         1.6490    0.2940    1.4920 hc        1 A1L      0.056700
     48 H12         0.1550    1.0300   -0.5230 hc        1 A1L      0.079700
     49 H13         0.4770   -0.6110   -1.2310 hc        1 A1L      0.079700
     50 H14        -0.6970    0.0060    1.5850 h1        1 A1L      0.063700
     51 H15        -1.2840   -2.2400    1.6710 hn        1 A1L      0.302500
     52 H16         0.7790   -4.7100    1.2110 h1        1 A1L      0.079700
     53 H17        -0.9880   -4.4730    1.6190 h1        1 A1L      0.079700
     54 H19        -3.3990    2.3300    1.2750 h1        1 A1L      0.064450
     55 H20        -1.9530    1.4080    1.8660 h1        1 A1L      0.064450
     56 H21        -3.1170    4.0920   -0.4960 ha        1 A1L      0.136750
     57 H22        -1.6750    6.0100   -1.1550 ha        1 A1L      0.135000
     58 H23         0.7320    6.0540   -0.4910 ha        1 A1L      0.134000
     59 H24         1.6900    4.1670    0.8370 ha        1 A1L      0.135000
     60 H25         0.2560    2.2450    1.4900 ha        1 A1L      0.136750
     61 H26        -3.7650    2.2170   -1.2610 h1        1 A1L      0.064450
     62 H27        -3.7510    0.4740   -1.8100 h1        1 A1L      0.064450
     63 H28        -5.0200   -1.2360   -0.4630 ha        1 A1L      0.136750
     64 H29        -7.2540   -1.6430    0.5970 ha        1 A1L      0.135000
     65 H30        -8.6160    0.2830    1.4140 ha        1 A1L      0.134000
     66 H31        -7.7530    2.6110    1.1740 ha        1 A1L      0.135000
     67 H32        -5.5320    3.0170    0.1180 ha        1 A1L      0.136750
@<TRIPOS>BOND
     1    1    2 1   
     2    1   37 1   
     3    1   38 1   
     4    1   39 1   
     5    2    3 1   
     6    2   40 1   
     7    3    4 2   
     8    3    5 1   
     9    5    6 1   
    10    5   41 1   
    11    6    7 2   
    12    6    8 1   
    13    7   42 1   
    14    8    9 1   
    15    8   43 1   
    16    9   10 1   
    17    9   44 1   
    18    9   45 1   
    19   10   11 1   
    20   10   46 1   
    21   10   47 1   
    22   11   12 1   
    23   11   48 1   
    24   11   49 1   
    25   12   13 1   
    26   12   20 1   
    27   12   50 1   
    28   13   14 1   
    29   13   51 1   
    30   14   15 2   
    31   14   16 1   
    32   16   17 1   
    33   16   52 1   
    34   16   53 1   
    35   17   18 1   
    36   18   19 3   
    37   20   21 2   
    38   20   22 1   
    39   22   23 1   
    40   22   30 1   
    41   23   24 1   
    42   23   54 1   
    43   23   55 1   
    44   24   25 ar  
    45   24   29 ar  
    46   25   26 ar  
    47   25   56 1   
    48   26   27 ar  
    49   26   57 1   
    50   27   28 ar  
    51   27   58 1   
    52   28   29 ar  
    53   28   59 1   
    54   29   60 1   
    55   30   31 1   
    56   30   61 1   
    57   30   62 1   
    58   31   32 ar  
    59   31   36 ar  
    60   32   33 ar  
    61   32   63 1   
    62   33   34 ar  
    63   33   64 1   
    64   34   35 ar  
    65   34   65 1   
    66   35   36 ar  
    67   35   66 1   
    68   36   67 1   
@<TRIPOS>SUBSTRUCTURE
     1 A1L         1 TEMP              0 ****  ****    0 ROOT
