@<TRIPOS>MOLECULE
A1L
   67    60     1     0     0
SMALL
bcc


@<TRIPOS>ATOM
      1 C9         -4.5120   -7.4100   -1.2770 c3        1 A1L      0.075300
      2 N6         -4.4000   -6.3250   -2.2130 n         1 A1L     -0.554900
      3 C8         -5.0210   -5.0360   -1.9170 c         1 A1L      0.766100
      4 O3         -6.2310   -4.9590   -1.7820 o         1 A1L     -0.638100
      5 N4         -4.1910   -3.8570   -1.7270 n         1 A1L     -0.528100
      6 C7         -4.7150   -2.5620   -2.0020 c2        1 A1L      0.276600
      7 N5         -5.9970   -2.3230   -1.8460 n1        1 A1L     -0.311000
      8 N3         -3.8150   -1.4890   -2.4660 nh        1 A1L     -0.720000
      9 C6         -3.5290   -0.3160   -1.5860 c3        1 A1L      0.163800
     10 C5         -2.0640    0.0260   -1.6580 c3        1 A1L     -0.083400
     11 C4         -1.5670    0.4810   -0.2390 c3        1 A1L     -0.088400
     12 C2         -0.1170    0.8790   -0.3230 c3        1 A1L      0.005000
     13 N2          0.6460   -0.2190   -0.7920 n3        1 A1L     -0.403400
     14 C3          0.7320   -1.4570    0.0020 c1        1 A1L      0.516500
     15 O1          0.2260   -1.5130    1.0770 o         1 A1L     -0.593500
     16 C10         1.4730   -2.6580   -0.5520 c2        1 A1L      0.453100
     17 N7          1.0220   -3.8620    0.1260 ne        1 A1L     -0.471400
     18 N8          1.8130   -4.9270   -0.2520 n1        1 A1L      0.126700
     19 N9          2.4480   -5.7800   -0.5560 n1        1 A1L     -0.015000
     20 C1          0.3860    1.3000    1.0640 c         1 A1L      0.640100
     21 O2         -0.0520    0.7740    2.0400 o         1 A1L     -0.589100
     22 N1          1.4920    2.2610    1.1820 n         1 A1L     -0.471800
     23 C12         1.2140    3.6680    1.2660 c3        1 A1L      0.101600
     24 C13         1.2890    4.1330    2.7740 c1        1 A1L     -0.084100
     25 C20         1.1620    5.4880    3.0920 c1        1 A1L     -0.071500
     26 C21         1.3080    5.9120    4.4220 c1        1 A1L     -0.071500
     27 C22         1.5810    4.9810    5.4280 c1        1 A1L     -0.071500
     28 C23         1.7080    3.6230    5.1080 c1        1 A1L     -0.071500
     29 C24         1.5620    3.1990    3.7800 c1        1 A1L     -0.055000
     30 C11         2.8560    1.7850    1.2760 c3        1 A1L      0.101600
     31 C14         3.5550    1.9360   -0.1010 c1        1 A1L     -0.084100
     32 C15         3.6920    0.8170   -0.9430 c1        1 A1L     -0.071500
     33 C16         4.4410    0.9120   -2.1060 c1        1 A1L     -0.071500
     34 C17         5.0610    2.1200   -2.4430 c1        1 A1L     -0.071500
     35 C18         4.9250    3.2280   -1.6090 c1        1 A1L     -0.071500
     36 C19         4.1680    3.1310   -0.4340 c1        1 A1L     -0.055000
     37 H1         -5.4360   -7.4700   -0.9560 h1        1 A1L      0.048033
     38 H2         -4.2630   -8.2500   -1.7180 h1        1 A1L      0.048033
     39 H3         -3.9200   -7.2520   -0.5290 h1        1 A1L      0.048033
     40 H4         -3.9450   -6.4430   -2.9990 hn        1 A1L      0.298500
     41 H5         -3.3310   -3.9500   -1.5060 hn        1 A1L      0.326500
     42 H6         -6.5710   -3.0070   -1.5520 DU        1 A1L      0.197000
     43 H7         -3.3660   -1.5800   -3.2760 hn        1 A1L      0.397800
     44 H8         -3.7580   -0.5290   -0.6850 h1        1 A1L      0.044200
     45 H9         -4.0550    0.4470   -1.8820 h1        1 A1L      0.044200
     46 H10        -1.5680   -0.7450   -1.9400 hc        1 A1L      0.048700
     47 H11        -1.9310    0.7370   -2.2870 hc        1 A1L      0.048700
     48 H12        -2.1020    1.2460    0.0650 hc        1 A1L      0.082200
     49 H13        -1.6640   -0.2460    0.3840 hc        1 A1L      0.082200
     50 H14        -0.0200    1.6280   -0.9440 h1        1 A1L      0.077700
     51 H15         1.0610   -0.1750   -1.6380 hn        1 A1L      0.280700
     52 H16         2.4270   -2.5450   -0.4090 h4        1 A1L     -0.011200
     53 H17         1.2940   -2.7370   -1.5120 h4        1 A1L     -0.011200
     54 H19         1.8540    4.1500    0.7520 h1        1 A1L      0.062700
     55 H20         0.3400    3.8390    0.9240 h1        1 A1L      0.062700
     56 H21         0.9700    6.1440    2.3850 ha        1 A1L      0.075875
     57 H22         1.2190    6.8620    4.6450 ha        1 A1L      0.075875
     58 H23         1.6840    5.2800    6.3630 ha        1 A1L      0.075875
     59 H24         1.9000    2.9690    5.8130 ha        1 A1L      0.075875
     60 H25         1.6510    2.2510    3.5570 ha        1 A1L      0.094000
     61 H26         3.3360    2.3040    1.9420 h1        1 A1L      0.062700
     62 H27         2.8540    0.8770    1.5290 h1        1 A1L      0.062700
     63 H28         3.2460   -0.0510   -0.7010 ha        1 A1L      0.075875
     64 H29         4.5370    0.1270   -2.6960 ha        1 A1L      0.075875
     65 H30         5.5830    2.1860   -3.2540 ha        1 A1L      0.075875
     66 H31         5.3550    4.0660   -1.8430 ha        1 A1L      0.075875
     67 H32         4.0740    3.9050    0.1490 ha        1 A1L      0.094000
@<TRIPOS>BOND
     1    1    2 1   
     2    1   37 1   
     3    1   38 1   
     4    1   39 1   
     5    2    3 1   
     6    2   40 1   
     7    3    4 2   
     8    3    5 1   
     9    5    6 1   
    10    5   41 1   
    11    6    7 2   
    12    6    8 1   
    13    8    9 1   
    14    8   43 1   
    15    9   10 1   
    16    9   44 1   
    17    9   45 1   
    18   10   11 1   
    19   10   46 1   
    20   10   47 1   
    21   11   12 1   
    22   11   48 1   
    23   11   49 1   
    24   12   13 1   
    25   12   20 1   
    26   12   50 1   
    27   13   14 2   
    28   13   51 1   
    29   14   15 2   
    30   16   17 2   
    31   16   52 1   
    32   16   53 1   
    33   17   18 1   
    34   18   19 3   
    35   20   21 2   
    36   20   22 1   
    37   22   23 1   
    38   22   30 1   
    39   23   24 1   
    40   23   54 1   
    41   23   55 1   
    42   24   29 3   
    43   25   26 3   
    44   25   56 1   
    45   26   57 1   
    46   27   28 3   
    47   27   58 1   
    48   28   59 1   
    49   29   60 1   
    50   30   31 1   
    51   30   61 1   
    52   30   62 1   
    53   31   36 3   
    54   32   33 3   
    55   32   63 1   
    56   33   64 1   
    57   34   35 3   
    58   34   65 1   
    59   35   66 1   
    60   36   67 1   
@<TRIPOS>SUBSTRUCTURE
     1 A1L         1 TEMP              0 ****  ****    0 ROOT
