@<TRIPOS>MOLECULE
A1O
   50    48     1     0     0
SMALL
bcc


@<TRIPOS>ATOM
      1 C1         -0.1030   -0.6360   -0.4770 c2        1 A1O     -0.090000
      2 C2          1.3980   -0.6520   -0.5740 c3        1 A1O     -0.195000
      3 C3         -0.7110   -0.7710    0.7360 c2        1 A1O     -0.147000
      4 C4          0.0440   -0.8820    1.9470 c2        1 A1O     -0.092000
      5 C5          1.4230   -0.8230    1.9290 c2        1 A1O     -0.024000
      6 C6         -4.4010    0.2040   -4.0510 c2        1 A1O     -0.227500
      7 C7          2.1440   -0.6870    0.6870 c1        1 A1O     -0.024000
      8 C9          1.9540    0.3490   -1.4980 c1        1 A1O      0.067000
      9 C10         2.8150   -5.0160    7.6530 ca        1 A1O     -0.131000
     10 C11         1.5240   -5.1800    8.1520 ca        1 A1O     -0.125000
     11 C12         1.0600    1.0350   -2.4120 c3        1 A1O     -0.275000
     12 C13        -0.3840    0.6030   -2.5520 c2        1 A1O      0.296000
     13 C14        -5.6040   -0.0460   -3.5500 c2        1 A1O     -0.227500
     14 C15         2.1580   -3.0740    4.4750 c3        1 A1O     -0.798000
     15 C16         1.9430   -3.7850    5.7590 ca        1 A1O     -0.082000
     16 C17         0.6450   -3.9530    6.2610 ca        1 A1O     -0.114000
     17 C18         3.0270   -4.3240    6.4610 ca        1 A1O     -0.114000
     18 C19         0.4410   -4.6460    7.4520 ca        1 A1O     -0.131000
     19 N1          2.2140   -0.8710    3.0860 n3        1 A1O     -0.814000
     20 N2         -0.8510   -0.4580   -1.6850 n         1 A1O     -0.177000
     21 O1          0.4590   -1.2020    4.8400 o         1 A1O     -0.920000
     22 O2         -1.1420    1.1170   -3.3750 o         1 A1O     -0.237000
     23 O3          2.7480   -0.7810    5.4790 o         1 A1O     -0.920000
     24 S1          1.8350   -1.3780    4.5920 s6        1 A1O      2.797000
     25 H1         -1.8110   -0.7720    0.8340 ha        1 A1O      0.157000
     26 H2         -0.5380   -0.9930    2.8830 ha        1 A1O      0.185000
     27 H3         -3.9380   -0.0220   -1.2740 ha        1 A1O      0.006000
     28 H4         -3.7000   -0.1350   -0.6470 ha        1 A1O      0.006000
     29 H5          1.7190   -1.6550   -1.0500 hc        1 A1O      0.233000
     30 H6         -4.2580    0.7310   -5.0040 ha        1 A1O      0.113250
     31 H7         -2.2190   -1.9550   -1.2970 ha        1 A1O      0.049000
     32 H8          2.9530    1.5740    0.3830 ha        1 A1O      0.006000
     33 H9          2.3160    1.8110    0.4240 ha        1 A1O      0.006000
     34 H10         3.6730   -5.4330    8.2010 ha        1 A1O      0.133500
     35 H11         1.0770    2.1320   -2.1250 hc        1 A1O      0.186000
     36 H12         1.5260    0.9850   -3.4430 hc        1 A1O      0.186000
     37 H13        -3.4650   -0.0950   -3.5480 ha        1 A1O      0.113250
     38 H14        -6.5340    0.2530   -4.0520 ha        1 A1O      0.113250
     39 H15        -5.7490   -0.5720   -2.5970 ha        1 A1O      0.113250
     40 H16         3.2110   -3.2620    4.1300 h1        1 A1O      0.153000
     41 H17         1.5000   -3.5550    3.7010 h1        1 A1O      0.153000
     42 H18        -0.2100   -3.5180    5.7200 ha        1 A1O      0.138000
     43 H19         4.0500   -4.1980    6.0750 ha        1 A1O      0.138000
     44 H20        -0.5800   -4.7690    7.8430 ha        1 A1O      0.133500
     45 H21         3.1520   -0.5770    2.8910 hn        1 A1O      0.270000
     46 H22         0.0890   -6.2880   11.7950 ha        1 A1O      0.015000
     47 H23         1.3580   -5.7270    9.1010 ha        1 A1O      0.175000
     48 H24         1.8810   -6.5230   11.9850 ha        1 A1O      0.015000
     49 C8         -1.9210   -1.1610   -2.0170 c1        1 A1O     -0.070000
     50 C20         1.0540   -6.3810   11.2720 c1        1 A1O     -0.023000
@<TRIPOS>BOND
     1    1    2 1   
     2    1    3 1   
     3    1   20 1   
     4    2    7 1   
     5    2    8 1   
     6    2   29 1   
     7    3    4 1   
     8    3   25 1   
     9    4    5 1   
    10    4   26 1   
    11    5    7 1   
    12    5   19 1   
    13    6   13 1   
    14    6   30 1   
    15    6   37 1   
    16    8   11 1   
    17    9   10 1   
    18    9   17 1   
    19    9   34 1   
    20   10   18 1   
    21   10   47 1   
    22   11   12 1   
    23   11   35 1   
    24   11   36 1   
    25   12   20 1   
    26   12   22 1   
    27   13   38 1   
    28   13   39 1   
    29   14   15 1   
    30   14   24 1   
    31   14   40 1   
    32   14   41 1   
    33   15   16 1   
    34   15   17 1   
    35   16   18 1   
    36   16   42 1   
    37   17   43 1   
    38   18   44 1   
    39   19   24 1   
    40   19   45 1   
    41   20   49 1   
    42   21   24 1   
    43   23   24 1   
    44   27   28 1   
    45   31   49 1   
    46   32   33 1   
    47   46   50 1   
    48   48   50 1   
@<TRIPOS>SUBSTRUCTURE
     1 A1O         1 TEMP              0 ****  ****    0 ROOT
