@<TRIPOS>MOLECULE
A1O
   50    50     1     0     0
SMALL
bcc


@<TRIPOS>ATOM
      1 C1          0.3310   -0.4010   -0.7870 c2        1 A1O      0.061000
      2 C2          1.7930   -0.5460   -0.4260 c3        1 A1O     -0.190000
      3 C3         -0.6170   -0.4920    0.2090 c2        1 A1O     -0.266000
      4 C4         -0.2500   -0.6090    1.5730 c2        1 A1O      0.000000
      5 C5          1.0830   -0.6510    1.9620 c2        1 A1O     -0.100000
      6 C6         -4.5290   -0.1550    0.9420 c3        1 A1O     -0.307000
      7 C7          2.1270   -0.6040    0.9990 c1        1 A1O     -0.070000
      8 C9          2.7060    0.3190   -1.1820 c1        1 A1O      0.063000
      9 C10         1.9330   -4.8840    7.6410 c1        1 A1O     -0.075000
     10 C11         0.8410   -5.8060    7.5870 c2        1 A1O     -0.162000
     11 C12         2.2420    0.8820   -2.4360 c3        1 A1O     -0.275000
     12 C13         0.9010    0.4510   -2.9900 c2        1 A1O      0.281000
     13 C14        -3.8370    0.2850   -0.2390 c1        1 A1O     -0.089000
     14 C15         1.4350   -3.1490    4.2330 c3        1 A1O     -0.813000
     15 C16         1.2060   -4.0620    5.3730 c2        1 A1O     -0.057000
     16 C17         0.2030   -4.9760    5.3790 c2        1 A1O     -0.162000
     17 C18         2.1290   -3.9630    6.5340 c3        1 A1O     -0.214000
     18 C19         0.0120   -5.8540    6.5010 c2        1 A1O     -0.038000
     19 N1          1.4660   -0.6900    3.3200 n3        1 A1O     -0.818000
     20 N2         -0.0000   -0.1980   -2.1270 n         1 A1O     -0.269000
     21 O1         -0.6170   -1.6310    4.3170 o         1 A1O     -0.929000
     22 O2          0.5960    0.6470   -4.1780 o         1 A1O     -0.325000
     23 O3          1.2520   -1.0870    5.7400 o         1 A1O     -0.929000
     24 S1          0.7810   -1.5560    4.4950 s6        1 A1O      2.794000
     25 H1         -1.7040   -0.4280   -0.0140 ha        1 A1O      0.196000
     26 H2         -1.0760   -0.6640    2.3100 ha        1 A1O      0.170000
     27 H3         -1.6310   -1.5060   -2.3130 h1        1 A1O      0.105000
     28 H4         -4.7040   -1.2630    0.8400 hc        1 A1O      0.119667
     29 H5          2.1220   -1.6060   -0.7570 hc        1 A1O      0.232000
     30 H6         -1.4320   -0.2900   -3.6670 h1        1 A1O      0.105000
     31 H7         -2.0770    0.2420   -2.0330 h1        1 A1O      0.105000
     32 H8          2.0180    4.2460   -2.0710 ha        1 A1O      0.001000
     33 H9          2.6290    4.2430   -2.3630 ha        1 A1O      0.001000
     34 H10         3.1990   -4.0780    6.1890 hc        1 A1O      0.179500
     35 H11         2.2310    2.0100   -2.3130 hc        1 A1O      0.185000
     36 H12         3.0270    0.6710   -3.2230 hc        1 A1O      0.185000
     37 H13        -3.8350   -0.0250    1.8200 hc        1 A1O      0.119667
     38 H14        -5.5040    0.3400    1.1800 hc        1 A1O      0.119667
     39 H15        -4.3150    1.0650   -0.8500 ha        1 A1O      0.049000
     40 H16         2.5410   -3.1080    4.0390 h1        1 A1O      0.155000
     41 H17         0.9850   -3.5960    3.3050 h1        1 A1O      0.155000
     42 H18        -0.4970   -5.0680    4.5340 ha        1 A1O      0.136000
     43 H19         2.0650   -2.9150    6.9770 hc        1 A1O      0.179500
     44 H20        -0.8270   -6.5670    6.4460 ha        1 A1O      0.132000
     45 H21         2.3380   -0.2240    3.4650 hn        1 A1O      0.271000
     46 H22        -0.2000   -7.4060    8.5980 hc        1 A1O      0.083333
     47 H23         0.4680   -6.0990    9.6710 hc        1 A1O      0.083333
     48 H24         1.5870   -7.3040    8.9180 hc        1 A1O      0.083333
     49 C8         -1.3560   -0.4460   -2.5580 c3        1 A1O     -0.103000
     50 C20         0.6570   -6.7050    8.7490 c3        1 A1O     -0.160000
@<TRIPOS>BOND
     1    1    2 1   
     2    1    3 1   
     3    1   20 1   
     4    2    7 1   
     5    2    8 1   
     6    2   29 1   
     7    3    4 1   
     8    3   25 1   
     9    4    5 1   
    10    4   26 1   
    11    5    7 1   
    12    5   19 1   
    13    6   13 1   
    14    6   28 1   
    15    6   37 1   
    16    6   38 1   
    17    8   11 1   
    18    9   10 1   
    19    9   17 1   
    20   10   18 1   
    21   10   50 1   
    22   11   12 1   
    23   11   35 1   
    24   11   36 1   
    25   12   20 1   
    26   12   22 1   
    27   13   39 1   
    28   14   15 1   
    29   14   24 1   
    30   14   40 1   
    31   14   41 1   
    32   15   16 1   
    33   15   17 1   
    34   16   18 1   
    35   16   42 1   
    36   17   34 1   
    37   17   43 1   
    38   18   44 1   
    39   19   24 1   
    40   19   45 1   
    41   20   49 1   
    42   21   24 1   
    43   23   24 1   
    44   27   49 1   
    45   30   49 1   
    46   31   49 1   
    47   32   33 1   
    48   46   50 1   
    49   47   50 1   
    50   48   50 1   
@<TRIPOS>SUBSTRUCTURE
     1 A1O         1 TEMP              0 ****  ****    0 ROOT
