@<TRIPOS>MOLECULE
A1O
   50    50     1     0     0
SMALL
bcc


@<TRIPOS>ATOM
      1 C1          0.3140    0.0700   -0.7060 c2        1 A1O      0.080000
      2 C2          1.7920    0.1600   -0.3950 c3        1 A1O     -0.111000
      3 C3         -0.5800    0.0510    0.3460 c2        1 A1O     -0.271000
      4 C4         -0.1480    0.0140    1.6950 c2        1 A1O      0.014000
      5 C5          1.2020   -0.0570    2.0220 c2        1 A1O     -0.096000
      6 C6         -4.1650   -1.2160    1.1680 c3        1 A1O     -0.307000
      7 C7          2.1860   -0.0260    1.0040 c1        1 A1O     -0.121000
      8 C9          2.3370    1.5220   -0.8400 c3        1 A1O     -0.174000
      9 C10         1.9390   -5.2740    6.8380 ca        1 A1O     -0.128500
     10 C11         0.6170   -5.7290    6.9020 ca        1 A1O     -0.062000
     11 C12         2.1070   -0.7730   -2.8050 c1        1 A1O      0.008000
     12 C13         0.7410   -0.3520   -3.0790 c2        1 A1O      0.240000
     13 C14        -3.8840   -0.5090   -0.0510 c1        1 A1O     -0.089000
     14 C15         1.7170   -2.6190    4.1560 c3        1 A1O     -0.799000
     15 C16         1.3350   -3.6770    5.1200 ca        1 A1O     -0.067000
     16 C17         0.0110   -4.1320    5.1810 ca        1 A1O     -0.111500
     17 C18         2.2960   -4.2590    5.9550 ca        1 A1O     -0.111500
     18 C19        -0.3430   -5.1470    6.0650 ca        1 A1O     -0.128500
     19 N1          1.6380   -0.1280    3.3620 n7        1 A1O     -0.816000
     20 N2         -0.1140    0.0470   -2.0310 n         1 A1O     -0.269000
     21 O1         -0.3820   -1.1780    4.3770 o         1 A1O     -0.930500
     22 O2          0.3610   -0.2630   -4.2680 o         1 A1O     -0.340000
     23 O3          1.5130   -0.6230    5.7650 o         1 A1O     -0.930500
     24 S1          1.0220   -1.0710    4.5230 s6        1 A1O      2.793000
     25 H1         -1.6780    0.0300    0.1740 ha        1 A1O      0.193000
     26 H2         -0.9370   -0.0110    2.4730 ha        1 A1O      0.168000
     27 H3         -2.2030   -0.2500   -1.8630 h1        1 A1O      0.106667
     28 H4         -3.6400   -2.2110    1.1100 hc        1 A1O      0.120000
     29 H5          2.3740   -0.6540   -0.9540 hc        1 A1O      0.146000
     30 H6         -1.6180    0.4630   -3.4500 h1        1 A1O      0.106667
     31 H7         -1.6450    1.4890   -1.9340 h1        1 A1O      0.106667
     32 H8          1.7450    2.3460   -0.3760 hc        1 A1O      0.100333
     33 H9          2.2810    1.6030   -1.9520 hc        1 A1O      0.100333
     34 H10         2.7020   -5.7220    7.4920 ha        1 A1O      0.133500
     35 H11         3.4040    1.6140   -0.5230 hc        1 A1O      0.100333
     36 H12         2.3150   -1.8510   -2.7660 ha        1 A1O      0.103000
     37 H13        -3.6810   -0.6570    2.0180 hc        1 A1O      0.120000
     38 H14        -5.2400   -1.3950    1.4230 hc        1 A1O      0.120000
     39 H15        -4.7390   -0.2210   -0.6810 ha        1 A1O      0.048000
     40 H16         1.4050   -2.9570    3.1300 h1        1 A1O      0.152500
     41 H17         2.8380   -2.5500    4.1170 h1        1 A1O      0.152500
     42 H18        -0.7550   -3.6660    4.5400 ha        1 A1O      0.141500
     43 H19         3.3400   -3.9100    5.9180 ha        1 A1O      0.141500
     44 H20        -1.3870   -5.4930    6.1090 ha        1 A1O      0.133500
     45 H21         2.4980    0.3590    3.4970 hn        1 A1O      0.265000
     46 H22        -0.6190   -7.3990    7.4560 hc        1 A1O      0.084667
     47 H23        -0.0790   -6.3440    8.8270 hc        1 A1O      0.084667
     48 H24         1.0930   -7.4860    8.0480 hc        1 A1O      0.084667
     49 C8         -1.4650    0.4570   -2.3370 c3        1 A1O     -0.101000
     50 C20         0.2350   -6.7970    7.8530 c3        1 A1O     -0.181000
@<TRIPOS>BOND
     1    1    2 1   
     2    1    3 1   
     3    1   20 1   
     4    2    7 1   
     5    2    8 1   
     6    2   29 1   
     7    3    4 1   
     8    3   25 1   
     9    4    5 1   
    10    4   26 1   
    11    5    7 1   
    12    5   19 1   
    13    6   13 1   
    14    6   28 1   
    15    6   37 1   
    16    6   38 1   
    17    8   32 1   
    18    8   33 1   
    19    8   35 1   
    20    9   10 1   
    21    9   17 1   
    22    9   34 1   
    23   10   18 1   
    24   10   50 1   
    25   11   12 1   
    26   11   36 1   
    27   12   20 1   
    28   12   22 1   
    29   13   39 1   
    30   14   15 1   
    31   14   24 1   
    32   14   40 1   
    33   14   41 1   
    34   15   16 1   
    35   15   17 1   
    36   16   18 1   
    37   16   42 1   
    38   17   43 1   
    39   18   44 1   
    40   19   24 1   
    41   19   45 1   
    42   20   49 1   
    43   21   24 1   
    44   23   24 1   
    45   27   49 1   
    46   30   49 1   
    47   31   49 1   
    48   46   50 1   
    49   47   50 1   
    50   48   50 1   
@<TRIPOS>SUBSTRUCTURE
     1 A1O         1 TEMP              0 ****  ****    0 ROOT
