@<TRIPOS>MOLECULE
A1O
   50    45     1     0     0
SMALL
bcc


@<TRIPOS>ATOM
      1 C1         -1.9050   -1.1790   -1.9050 c1        1 A1O      0.077000
      2 C2         -0.4510   -1.1690   -1.8830 c2        1 A1O     -0.095000
      3 C3         -2.6170   -1.1600   -0.7120 c1        1 A1O     -0.154000
      4 C4         -1.9300   -1.1320    0.5210 c1        1 A1O     -0.132000
      5 C5         -0.5020   -1.1220    0.5450 c1        1 A1O      0.038000
      6 C6         -4.6440   -1.6940   -4.3330 c3        1 A1O     -0.182000
      7 C7          0.2250   -1.1410   -0.6650 c1        1 A1O     -0.136000
      8 C8         -4.0200   -0.8010   -3.2820 c3        1 A1O     -0.027000
      9 C9          0.3060   -1.2220   -3.2570 c3        1 A1O     -0.121000
     10 C10         3.4990    2.9170    5.0770 c1        1 A1O     -0.126000
     11 C11         4.6480    2.9170    4.3000 c1        1 A1O     -0.058000
     12 C12        -0.4930   -1.4240   -4.4290 c3        1 A1O     -0.176000
     13 C13        -1.8160   -0.7690   -4.3230 c1        1 A1O      0.309000
     14 C14        -5.9510   -1.0770   -4.8130 c3        1 A1O     -0.211000
     15 C15         1.8100   -0.3270    3.9560 c3        1 A1O     -0.798000
     16 C16         2.8230    0.8310    4.0770 c1        1 A1O     -0.074000
     17 C17         3.9710    0.8320    3.3010 c1        1 A1O     -0.103000
     18 C18         2.5840    1.8720    4.9660 c1        1 A1O     -0.118000
     19 C19         4.8860    1.8770    3.4120 c2        1 A1O     -0.131000
     20 N1          0.4300   -1.2120    1.6300 n3        1 A1O     -0.834000
     21 N2         -2.5910   -1.0420   -3.2300 n1        1 A1O     -0.278000
     22 O1         -0.6730    0.4260    3.3000 o         1 A1O     -0.922500
     23 O2         -2.3070   -0.2180   -5.2990 o         1 A1O     -0.348000
     24 O3          0.9340    1.2860    2.0170 o         1 A1O     -0.922500
     25 S1          0.5970    0.0700    2.7050 s6        1 A1O      2.803000
     26 C20         5.6730    4.0490    4.3690 c2        1 A1O     -0.182000
     27 H1         -3.5910   -1.1670   -0.7270 ha        1 A1O      0.145000
     28 H2         -2.4350   -1.1190    1.3650 ha        1 A1O      0.136000
     29 H3         -4.0280   -1.7860   -5.0900 hc        1 A1O      0.090000
     30 H4         -4.8220   -2.5790   -3.9460 hc        1 A1O      0.090000
     31 H5          1.1990   -1.1340   -0.6480 ha        1 A1O      0.174000
     32 H6         -4.1850    0.1340   -3.5100 h1        1 A1O      0.104500
     33 H7         -4.4160   -0.9980   -2.4120 h1        1 A1O      0.104500
     34 H8          0.9700   -1.9570   -3.2110 hc        1 A1O      0.106000
     35 H9          0.7920   -0.3790   -3.3660 hc        1 A1O      0.106000
     36 H10         3.3310    3.6540    5.7050 ha        1 A1O      0.137000
     37 H11        -0.4320   -2.3710   -4.6800 hc        1 A1O      0.121500
     38 H12        -0.0760   -1.0090   -5.2220 hc        1 A1O      0.121500
     39 H13        -6.6060   -1.0760   -4.0720 hc        1 A1O      0.076333
     40 H14        -5.7890   -0.1530   -5.1090 hc        1 A1O      0.076333
     41 H15        -6.3070   -1.6060   -5.5640 hc        1 A1O      0.076333
     42 H16         2.2810   -1.1490    3.7050 h1        1 A1O      0.154000
     43 H17         1.3600   -0.4580    4.8150 h1        1 A1O      0.154000
     44 H18         4.1380    0.1060    2.6820 ha        1 A1O      0.132000
     45 H19         1.7780    1.8720    5.5110 ha        1 A1O      0.153000
     46 H20         5.7020    1.8770    2.8610 ha        1 A1O      0.134000
     47 H21         0.9630   -1.9490    1.7130 hn        1 A1O      0.253000
     48 H22         6.5380    3.6900    4.6800 ha        1 A1O      0.085667
     49 H23         5.7840    4.4390    3.4870 ha        1 A1O      0.085667
     50 H24         5.3630    4.7300    4.9880 ha        1 A1O      0.085667
@<TRIPOS>BOND
     1    1    2 1   
     2    1    3 1   
     3    2    7 1   
     4    2    9 1   
     5    3   27 1   
     6    4    5 1   
     7    4   28 1   
     8    5   20 1   
     9    6    8 1   
    10    6   14 1   
    11    6   29 1   
    12    6   30 1   
    13    7   31 1   
    14    8   21 1   
    15    8   32 1   
    16    8   33 1   
    17    9   12 1   
    18    9   34 1   
    19    9   35 1   
    20   10   11 1   
    21   10   36 1   
    22   11   19 1   
    23   12   13 1   
    24   12   37 1   
    25   12   38 1   
    26   13   23 1   
    27   14   39 1   
    28   14   40 1   
    29   14   41 1   
    30   15   16 1   
    31   15   25 1   
    32   15   42 1   
    33   15   43 1   
    34   16   18 1   
    35   17   19 1   
    36   17   44 1   
    37   18   45 1   
    38   19   46 1   
    39   20   25 1   
    40   20   47 1   
    41   22   25 1   
    42   24   25 1   
    43   26   48 1   
    44   26   49 1   
    45   26   50 1   
@<TRIPOS>SUBSTRUCTURE
     1 A1O         1 TEMP              0 ****  ****    0 ROOT
