@<TRIPOS>MOLECULE
A1O
   50    52     1     0     0
SMALL
bcc


@<TRIPOS>ATOM
      1 C1         -3.0910    0.2390    0.1220 ca        1 A1O      0.068600
      2 C2         -2.7370    1.4010   -0.6110 ca        1 A1O     -0.106300
      3 C3         -2.1320   -0.3080    1.0010 ca        1 A1O     -0.147000
      4 C4         -0.8860    0.2800    1.1630 ca        1 A1O     -0.141000
      5 C5         -0.5300    1.4300    0.4280 ca        1 A1O      0.121600
      6 C6         -4.5110   -2.7470    0.6380 c3        1 A1O     -0.103400
      7 C7         -1.4800    1.9760   -0.4590 ca        1 A1O     -0.130000
      8 C9         -3.7270    2.0160   -1.5350 c3        1 A1O     -0.033100
      9 C10         6.1740   -0.2100   -0.6500 ca        1 A1O     -0.128500
     10 C11         6.1980   -1.6080   -0.7290 ca        1 A1O     -0.065300
     11 C12        -4.6220    0.9690   -2.1560 c3        1 A1O     -0.148400
     12 C13        -5.1630   -0.0120   -1.1400 c         1 A1O      0.700500
     13 C14        -5.0420   -3.6400    1.7290 c3        1 A1O     -0.093100
     14 C15         2.4650    0.5070   -0.6380 c3        1 A1O     -0.251300
     15 C16         3.7520   -0.2270   -0.6470 ca        1 A1O     -0.082300
     16 C17         3.7730   -1.6240   -0.7280 ca        1 A1O     -0.110000
     17 C18         4.9650    0.4760   -0.6110 ca        1 A1O     -0.110000
     18 C19         4.9870   -2.3070   -0.7670 ca        1 A1O     -0.128500
     19 N1          0.7300    2.0370    0.5720 nh        1 A1O     -0.783500
     20 N2         -4.3710   -0.3280   -0.0280 n         1 A1O     -0.374000
     21 O1          2.0420    0.3510    1.8870 o         1 A1O     -0.642300
     22 O2         -6.2800   -0.5410   -1.2840 o         1 A1O     -0.622500
     23 O3          3.1110    2.3350    1.0370 o         1 A1O     -0.642300
     24 S1          2.1580    1.3080    0.8670 s6        1 A1O      1.447900
     25 H1         -2.3580   -1.2160    1.5830 ha        1 A1O      0.148000
     26 H2         -0.1760   -0.1720    1.8810 ha        1 A1O      0.174000
     27 H3         -4.9600   -3.0410   -0.3470 hc        1 A1O      0.051200
     28 H4         -3.4000   -2.8710    0.5510 hc        1 A1O      0.051200
     29 H5         -1.2390    2.8810   -1.0400 ha        1 A1O      0.136000
     30 H6         -5.9890   -1.1960    0.9670 h1        1 A1O      0.065700
     31 H7         -4.4680   -1.0090    1.9560 h1        1 A1O      0.065700
     32 H8         -4.3500    2.7540   -0.9570 hc        1 A1O      0.061200
     33 H9         -3.2070    2.5870   -2.3490 hc        1 A1O      0.061200
     34 H10         7.1210    0.3510   -0.6170 ha        1 A1O      0.135000
     35 H11        -5.4950    1.4550   -2.6670 hc        1 A1O      0.081700
     36 H12        -4.0590    0.3770   -2.9270 hc        1 A1O      0.081700
     37 H13        -4.7960   -4.7060    1.5040 hc        1 A1O      0.037033
     38 H14        -4.5910   -3.3740    2.7150 hc        1 A1O      0.037033
     39 H15        -6.1520   -3.5450    1.8130 hc        1 A1O      0.037033
     40 H16         2.4870    1.2460   -1.4850 h1        1 A1O      0.114700
     41 H17         1.6350   -0.2080   -0.8880 h1        1 A1O      0.114700
     42 H18         2.8290   -2.1880   -0.7570 ha        1 A1O      0.142500
     43 H19         4.9560    1.5760   -0.5320 ha        1 A1O      0.142500
     44 H20         4.9920   -3.4060   -0.8270 ha        1 A1O      0.135000
     45 H21         0.7010    3.0250    0.4460 hn        1 A1O      0.457800
     46 H22         7.8260   -2.5430    0.2930 hc        1 A1O      0.046367
     47 H23         7.3880   -3.3110   -1.2900 hc        1 A1O      0.046367
     48 H24         8.2780   -1.7300   -1.2620 hc        1 A1O      0.046367
     49 C8         -4.8630   -1.2880    0.9390 c3        1 A1O      0.089000
     50 C20         7.4870   -2.3350   -0.7540 c3        1 A1O     -0.056800
@<TRIPOS>BOND
     1    1    2 ar  
     2    1    3 ar  
     3    1   20 1   
     4    2    7 ar  
     5    2    8 1   
     6    3    4 ar  
     7    3   25 1   
     8    4    5 ar  
     9    4   26 1   
    10    5    7 ar  
    11    5   19 1   
    12    6   13 1   
    13    6   27 1   
    14    6   28 1   
    15    6   49 1   
    16    7   29 1   
    17    8   11 1   
    18    8   32 1   
    19    8   33 1   
    20    9   10 ar  
    21    9   17 ar  
    22    9   34 1   
    23   10   18 ar  
    24   10   50 1   
    25   11   12 1   
    26   11   35 1   
    27   11   36 1   
    28   12   20 1   
    29   12   22 2   
    30   13   37 1   
    31   13   38 1   
    32   13   39 1   
    33   14   15 1   
    34   14   24 1   
    35   14   40 1   
    36   14   41 1   
    37   15   16 ar  
    38   15   17 ar  
    39   16   18 ar  
    40   16   42 1   
    41   17   43 1   
    42   18   44 1   
    43   19   24 1   
    44   19   45 1   
    45   20   49 1   
    46   21   24 2   
    47   23   24 2   
    48   30   49 1   
    49   31   49 1   
    50   46   50 1   
    51   47   50 1   
    52   48   50 1   
@<TRIPOS>SUBSTRUCTURE
     1 A1O         1 TEMP              0 ****  ****    0 ROOT
