@<TRIPOS>MOLECULE
A1P
   34    36     1     0     0
SMALL
bcc


@<TRIPOS>ATOM
      1 P           1.6030   -0.5810   -4.7400 p5        1 A1P      1.358800
      2 O1P         0.5190   -0.9610   -5.6640 o         1 A1P     -0.855000
      3 O2P         1.6990    0.7630   -4.1210 o         1 A1P     -0.855000
      4 O5'         1.5510   -1.6440   -3.4530 os        1 A1P     -0.581200
      5 N9          2.0780    1.8670   -0.2270 na        1 A1P     -0.301000
      6 C4          1.8300    2.8700    0.7230 ca        1 A1P      0.430800
      7 N3          1.9420    2.8530    2.0760 nb        1 A1P     -0.748000
      8 C2          1.6060    4.0540    2.6750 ca        1 A1P      0.825900
      9 N2          1.8150    4.1510    4.0750 nh        1 A1P     -0.904500
     10 N1          1.1430    5.2020    2.0270 nb        1 A1P     -0.764000
     11 C6          1.0460    5.1750    0.6940 ca        1 A1P      0.496200
     12 C5          1.3810    4.0340   -0.0530 ca        1 A1P     -0.173200
     13 N7          1.3820    3.7160   -1.4200 nc        1 A1P     -0.571100
     14 C8          1.7990    2.4430   -1.4970 cd        1 A1P      0.472700
     15 C2'         1.7780   -0.2860    1.0400 c3        1 A1P     -0.149400
     16 C5'         1.0370   -1.1730   -2.2570 c3        1 A1P      0.187400
     17 C4'         2.0850   -1.3450   -1.1460 c3        1 A1P      0.072100
     18 O4'         2.9400   -0.1890   -1.0600 os        1 A1P     -0.395600
     19 C1'         2.6570    0.5800    0.1080 c3        1 A1P      0.264800
     20 C3'         1.4590   -1.5570    0.2450 c3        1 A1P      0.115100
     21 O3'         1.9620   -2.7120    0.8910 oh        1 A1P     -0.598800
     22 H2N1        1.8000    3.2730    4.5470 hn        1 A1P      0.397300
     23 H2N2        1.2490    4.8430    4.5160 hn        1 A1P      0.397300
     24 H6          0.6800    6.0980    0.2090 h4        1 A1P      0.031100
     25 H8          1.9180    1.8550   -2.4450 h5        1 A1P      0.183800
     26 H2'1        0.8390    0.2350    1.3440 hc        1 A1P      0.072700
     27 H2'2        2.3490   -0.5310    1.9680 hc        1 A1P      0.072700
     28 H5'1        0.7430   -0.0890   -2.3380 h1        1 A1P      0.038200
     29 H5'2        0.1380   -1.7980   -1.9830 h1        1 A1P      0.038200
     30 H4'         2.7800   -2.1870   -1.4220 h1        1 A1P      0.090700
     31 H1'         3.6670    0.7870    0.5800 h2        1 A1P      0.073700
     32 H3'         0.3520   -1.7420    0.1830 h1        1 A1P      0.092700
     33 HA          2.9250   -2.6730    0.8440 ho        1 A1P      0.398000
     34 HP1         2.7740   -0.9550   -5.2140 hp        1 A1P     -0.212400
@<TRIPOS>BOND
     1    1    2 1   
     2    1    3 1   
     3    1    4 1   
     4    1   34 1   
     5    4   16 1   
     6    5    6 1   
     7    5   14 1   
     8    5   19 1   
     9    6    7 ar  
    10    6   12 ar  
    11    7    8 ar  
    12    8    9 1   
    13    8   10 ar  
    14    9   22 1   
    15    9   23 1   
    16   10   11 ar  
    17   11   12 ar  
    18   11   24 1   
    19   12   13 1   
    20   13   14 2   
    21   14   25 1   
    22   15   19 1   
    23   15   20 1   
    24   15   26 1   
    25   15   27 1   
    26   16   17 1   
    27   16   28 1   
    28   16   29 1   
    29   17   18 1   
    30   17   20 1   
    31   17   30 1   
    32   18   19 1   
    33   19   31 1   
    34   20   21 1   
    35   20   32 1   
    36   21   33 1   
@<TRIPOS>SUBSTRUCTURE
     1 A1P         1 TEMP              0 ****  ****    0 ROOT
