@<TRIPOS>MOLECULE
A1P
   34    29     1     0     0
SMALL
bcc


@<TRIPOS>ATOM
      1 P           1.9740    0.2060    5.1810 p3        1 A1P      2.611000
      2 O1P         3.2840    0.1450    5.9540 o         1 A1P     -1.143000
      3 O2P         0.9670    1.0480    5.9540 os        1 A1P     -1.201000
      4 O5'         2.2320    0.8680    3.7440 os        1 A1P     -0.731000
      5 N9          0.0950   -0.7550   -1.1110 n2        1 A1P     -0.196000
      6 C4         -0.6530   -0.9050   -2.2390 c1        1 A1P      0.025500
      7 N3         -1.6000   -0.1120   -2.8220 n1        1 A1P     -0.175000
      8 C2         -2.2430   -0.5330   -3.9390 c1        1 A1P      0.128000
      9 N2         -3.2340    0.0700   -4.7380 n3        1 A1P     -0.309000
     10 N1         -1.9420   -1.7550   -4.4850 n1        1 A1P     -0.238000
     11 C6         -1.0150   -2.5330   -3.9160 c1        1 A1P      0.045000
     12 C5         -0.3580   -2.1060   -2.7760 c1        1 A1P     -0.203000
     13 N7          0.5720   -2.7040   -1.9850 n1        1 A1P     -0.175000
     14 C8          0.8490   -1.8690   -0.9590 c1        1 A1P      0.025500
     15 C2'        -0.6550    0.6870    0.4870 c3        1 A1P     -0.206000
     16 C5'         1.6300    0.2520    2.5830 c3        1 A1P      0.047000
     17 C4'         1.3420    1.3100    1.5460 c3        1 A1P     -0.045000
     18 O4'         1.6030    0.7320    0.0750 os        1 A1P     -0.279000
     19 C1'         0.2120    0.5450   -0.5420 c2        1 A1P      0.164000
     20 C3'         0.0720    1.6400    1.5640 c3        1 A1P      0.038000
     21 O3'        -0.0840    3.0290    1.1820 oh        1 A1P     -0.358000
     22 H2N1       -3.7310   -0.4420   -5.3170 hn        1 A1P      0.203000
     23 H2N2       -3.3520    0.9780   -4.7120 hn        1 A1P      0.203000
     24 H6         -0.7690   -3.3820   -4.3300 ha        1 A1P      0.168000
     25 H8          1.5250   -2.0140   -0.2700 DU        1 A1P      0.222000
     26 H2'1       -0.8460   -0.1730    0.8800 hc        1 A1P      0.111000
     27 H2'2       -1.4960    1.1120    0.1670 hc        1 A1P      0.111000
     28 H5'1        0.7930   -0.1890    2.8420 h1        1 A1P      0.057000
     29 H5'2        2.2540   -0.4190    2.2060 h1        1 A1P      0.057000
     30 H4'         1.8940    2.0930    1.7030 h1        1 A1P      0.136000
     31 H1'         0.0470    1.2330   -1.2260 h4        1 A1P      0.131000
     32 H3'        -0.3060    1.4900    2.4590 h1        1 A1P      0.119000
     33 HA         -0.5610    3.4640    1.8140 ho        1 A1P      0.270000
     34 HP1         1.5010   -1.0100    5.0260 hp        1 A1P     -0.612000
@<TRIPOS>BOND
     1    1    2 1   
     2    1    4 1   
     3    1   34 1   
     4    4   16 1   
     5    5    6 1   
     6    5   14 1   
     7    6    7 1   
     8    8    9 1   
     9    8   10 1   
    10    9   22 1   
    11    9   23 1   
    12   11   12 1   
    13   11   24 1   
    14   13   14 1   
    15   15   19 1   
    16   15   20 1   
    17   15   26 1   
    18   15   27 1   
    19   16   17 1   
    20   16   28 1   
    21   16   29 1   
    22   17   18 1   
    23   17   20 1   
    24   17   30 1   
    25   18   19 1   
    26   19   31 1   
    27   20   21 1   
    28   20   32 1   
    29   21   33 1   
@<TRIPOS>SUBSTRUCTURE
     1 A1P         1 TEMP              0 ****  ****    0 ROOT
