@<TRIPOS>MOLECULE
A1Q
   31    31     1     0     0
SMALL
bcc


@<TRIPOS>ATOM
      1 C1         -0.4690   -0.8100   -1.6510 c3        1 A1Q      0.294900
      2 O7         -1.9420    2.5760    3.0680 oh        1 A1Q     -0.613800
      3 O1         -0.9030   -1.8560   -1.2110 os        1 A1Q     -0.441600
      4 C2          1.1210   -0.8100   -1.6510 c3        1 A1Q      0.097100
      5 O2          1.5670    0.3320   -2.3410 oh        1 A1Q     -0.595800
      6 C3          1.7360   -0.8100   -0.2860 c3        1 A1Q      0.074100
      7 O3          3.2080   -0.6960   -0.4320 oh        1 A1Q     -0.595800
      8 C4          1.2760    0.2620    0.5490 c3        1 A1Q      0.087100
      9 O4          1.8240    0.0450    1.9500 oh        1 A1Q     -0.595800
     10 C5         -0.1520    0.3730    0.6350 c3        1 A1Q      0.151100
     11 O5         -0.8220    0.4160   -0.6720 os        1 A1Q     -0.436600
     12 C6         -0.4980    1.6670    1.4070 c3        1 A1Q      0.153100
     13 O6         -0.8560    2.6650    0.5030 oh        1 A1Q     -0.600800
     14 C7         -1.6440    1.4010    2.3410 c3        1 A1Q      0.093400
     15 C8         -1.8720   -2.4670   -2.0370 c3        1 A1Q      0.119700
     16 H7         -2.5470    2.3930    3.6910 ho        1 A1Q      0.409000
     17 H71C       -1.4000    0.6880    2.9620 h1        1 A1Q      0.041700
     18 H72C       -2.4280    1.1300    1.8260 h1        1 A1Q      0.041700
     19 H6          0.2800    1.9570    1.9200 h1        1 A1Q      0.072700
     20 HA         -0.4700    3.4290    0.7370 ho        1 A1Q      0.422000
     21 H5         -0.4940   -0.3910    1.1360 h1        1 A1Q      0.071700
     22 H4          1.6330    1.1020    0.2010 h1        1 A1Q      0.063700
     23 H1         -0.8140   -0.6430   -2.5490 h2        1 A1Q      0.091700
     24 H3          1.5280   -1.6580    0.1500 h1        1 A1Q      0.106700
     25 HB          3.5770   -1.4980   -0.3420 ho        1 A1Q      0.416000
     26 H2          1.4310   -1.6020   -2.1300 h1        1 A1Q      0.106700
     27 HC          1.8560    0.0970   -3.1470 ho        1 A1Q      0.421000
     28 H81C       -2.2190   -3.2650   -1.5970 h1        1 A1Q      0.040700
     29 H82C       -2.6030   -1.8400   -2.1990 h1        1 A1Q      0.040700
     30 H83C       -1.4630   -2.7160   -2.8880 h1        1 A1Q      0.040700
     31 H4O         2.5590    0.5290    2.0590 ho        1 A1Q      0.422000
@<TRIPOS>BOND
     1    1    3 1   
     2    1    4 1   
     3    1   11 1   
     4    1   23 1   
     5    2   14 1   
     6    2   16 1   
     7    3   15 1   
     8    4    5 1   
     9    4    6 1   
    10    4   26 1   
    11    5   27 1   
    12    6    7 1   
    13    6    8 1   
    14    6   24 1   
    15    7   25 1   
    16    8    9 1   
    17    8   10 1   
    18    8   22 1   
    19    9   31 1   
    20   10   11 1   
    21   10   12 1   
    22   10   21 1   
    23   12   13 1   
    24   12   14 1   
    25   12   19 1   
    26   13   20 1   
    27   14   17 1   
    28   14   18 1   
    29   15   28 1   
    30   15   29 1   
    31   15   30 1   
@<TRIPOS>SUBSTRUCTURE
     1 A1Q         1 TEMP              0 ****  ****    0 ROOT
