@<TRIPOS>MOLECULE
A1Q
   31    31     1     0     0
SMALL
bcc


@<TRIPOS>ATOM
      1 C1          1.0520    1.4020    0.5620 c3        1 A1Q      0.306900
      2 O7         -4.3090    0.0970   -0.1280 oh        1 A1Q     -0.597800
      3 O1          1.1150    2.2220   -0.5890 os        1 A1Q     -0.445600
      4 C2          2.1940    0.3730    0.4500 c3        1 A1Q      0.095100
      5 O2          2.3640   -0.3030    1.6850 oh        1 A1Q     -0.596800
      6 C3          1.8810   -0.6980   -0.6020 c3        1 A1Q      0.116100
      7 O3          2.8160   -1.7550   -0.5650 oh        1 A1Q     -0.594800
      8 C4          0.4560   -1.2440   -0.4130 c3        1 A1Q      0.090100
      9 O4          0.1170   -2.1140   -1.4800 oh        1 A1Q     -0.595800
     10 C5         -0.5520   -0.0870   -0.4360 c3        1 A1Q      0.121100
     11 O5         -0.2460    0.8520    0.6000 os        1 A1Q     -0.448600
     12 C6         -1.9730   -0.5870   -0.1450 c3        1 A1Q      0.108100
     13 O6         -2.1220   -1.0330    1.1910 oh        1 A1Q     -0.597800
     14 C7         -2.9970    0.5140   -0.4390 c3        1 A1Q      0.102400
     15 C8          0.2930    3.3790   -0.5160 c3        1 A1Q      0.119700
     16 H7         -4.2690   -0.3680    0.7200 ho        1 A1Q      0.413000
     17 H71C       -3.0140    0.7580   -1.5330 h1        1 A1Q      0.049200
     18 H72C       -2.7400    1.4360    0.1520 h1        1 A1Q      0.049200
     19 H6         -2.1750   -1.5010   -0.7740 h1        1 A1Q      0.112700
     20 HA         -1.7960   -0.3320    1.7700 ho        1 A1Q      0.413000
     21 H5         -0.5170    0.4340   -1.4320 h1        1 A1Q      0.074700
     22 H4          0.3810   -1.7940    0.5670 h1        1 A1Q      0.071700
     23 H1          1.1270    1.9990    1.5170 h2        1 A1Q      0.074700
     24 H3          1.9890   -0.2480   -1.6300 h1        1 A1Q      0.103700
     25 HB          2.8550   -2.0780    0.3460 ho        1 A1Q      0.421000
     26 H2          3.1420    0.9120    0.1680 h1        1 A1Q      0.072700
     27 HC          2.6990    0.3410    2.3200 ho        1 A1Q      0.413000
     28 H81C       -0.7740    3.0900   -0.3510 h1        1 A1Q      0.042700
     29 H82C        0.6430    4.0510    0.3050 h1        1 A1Q      0.042700
     30 H83C        0.4230    3.8700   -1.5130 h1        1 A1Q      0.042700
     31 H4O         0.8620   -2.7210   -1.5840 ho        1 A1Q      0.422000
@<TRIPOS>BOND
     1    1    3 1   
     2    1    4 1   
     3    1   11 1   
     4    1   23 1   
     5    2   14 1   
     6    2   16 1   
     7    3   15 1   
     8    4    5 1   
     9    4    6 1   
    10    4   26 1   
    11    5   27 1   
    12    6    7 1   
    13    6    8 1   
    14    6   24 1   
    15    7   25 1   
    16    8    9 1   
    17    8   10 1   
    18    8   22 1   
    19    9   31 1   
    20   10   11 1   
    21   10   12 1   
    22   10   21 1   
    23   12   13 1   
    24   12   14 1   
    25   12   19 1   
    26   13   20 1   
    27   14   17 1   
    28   14   18 1   
    29   15   28 1   
    30   15   29 1   
    31   15   30 1   
@<TRIPOS>SUBSTRUCTURE
     1 A1Q         1 TEMP              0 ****  ****    0 ROOT
