@<TRIPOS>MOLECULE
A1R
   57    60     1     0     0
SMALL
bcc


@<TRIPOS>ATOM
      1 N1         -0.4950   -2.3020    0.7650 nb        1 A1R     -0.802000
      2 C2          0.4940   -1.4890    0.2990 ca        1 A1R      0.644900
      3 N3          1.4040   -0.7470    0.9660 nb        1 A1R     -0.719000
      4 C4          1.2840   -0.8550    2.3250 ca        1 A1R      0.437800
      5 C5          0.2830   -1.7040    2.9720 ca        1 A1R     -0.199200
      6 C6         -0.6060   -2.4340    2.1260 ca        1 A1R      0.701200
      7 N6         -1.5270   -3.3170    2.6870 nv        1 A1R     -0.929500
      8 N7          0.4000   -1.6020    4.3660 nc        1 A1R     -0.571100
      9 C8          1.4050   -0.7360    4.5750 cd        1 A1R      0.469700
     10 N9          1.9720   -0.2300    3.3750 na        1 A1R     -0.272000
     11 C1'         3.1480    0.6050    3.2320 c3        1 A1R      0.218800
     12 C2'         2.9730    2.0510    3.8140 c3        1 A1R      0.112100
     13 O2'         3.4580    2.9780    2.8690 oh        1 A1R     -0.601800
     14 C3'         3.7490    2.0170    5.1410 c3        1 A1R      0.106100
     15 O3'         4.5960    3.1430    5.2290 oh        1 A1R     -0.654800
     16 O4'         4.2610    0.0100    3.8990 os        1 A1R     -0.434600
     17 C4'         4.5770    0.7170    5.1150 c3        1 A1R      0.071100
     18 C5'         4.3680   -0.2020    6.3360 c3        1 A1R      0.200400
     19 O5'         3.2520    0.1100    7.0920 os        1 A1R     -0.590200
     20 PA          3.5590    1.0430    8.4700 p5        1 A1R      1.612800
     21 O1A         4.4710    2.0680    7.8970 o         1 A1R     -0.888000
     22 O2A         3.9420    0.1190    9.5460 o         1 A1R     -0.888000
     23 O3A         2.1100    1.7090    8.6360 os        1 A1R     -0.816800
     24 PB          0.6870    2.5290    8.7130 p5        1 A1R      1.587800
     25 O1B         0.7550    3.4680    9.8470 o         1 A1R     -0.860000
     26 O2B        -0.4480    1.6420    8.4210 o         1 A1R     -0.860000
     27 O5N         0.9430    3.4390    7.3390 os        1 A1R     -0.585200
     28 C5N         1.9140    4.4260    7.4370 c3        1 A1R      0.165400
     29 N4N         2.4140    6.8040    6.7450 n7        1 A1R     -0.816200
     30 C1N         3.1190    6.8190    5.4660 c3        1 A1R      0.142800
     31 O2N         2.0350    6.6670    3.3320 oh        1 A1R     -0.621800
     32 C2N         2.3760    5.8940    4.4720 c3        1 A1R      0.081100
     33 O3N        -0.0250    6.0740    4.7600 oh        1 A1R     -0.609800
     34 C3N         1.1230    5.4000    5.2390 c3        1 A1R      0.109100
     35 C4N         1.4270    5.7120    6.7260 c3        1 A1R      0.103500
     36 H2          0.5520   -1.4250   -0.8070 h5        1 A1R      0.028100
     37 HN61       -2.3180   -3.5460    2.1300 hn        1 A1R      0.412300
     38 HN62       -1.7200   -3.1520    3.6500 hn        1 A1R      0.412300
     39 H8          1.7880   -0.4110    5.5700 h5        1 A1R      0.150800
     40 H1'         3.4240    0.6460    2.1380 h2        1 A1R      0.101700
     41 H2'         1.8950    2.3230    3.9740 h1        1 A1R      0.103700
     42 HO2'        4.3870    3.1510    3.0710 ho        1 A1R      0.420000
     43 H3'         3.0360    2.0060    6.0210 h1        1 A1R      0.129700
     44 HO3'        4.8370    3.2080    6.1750 ho        1 A1R      0.483000
     45 H4'         5.6720    0.9590    5.0230 h1        1 A1R      0.060700
     46 H5'1        4.2520   -1.2580    5.9580 h1        1 A1R      0.023700
     47 H5'2        5.2940   -0.1330    6.9730 h1        1 A1R      0.023700
     48 H5N1        2.8600    4.0790    6.9230 h1        1 A1R      0.042200
     49 H5N2        2.1340    4.6520    8.5190 h1        1 A1R      0.042200
     50 H1N2        4.1880    6.4840    5.5530 h1        1 A1R      0.036700
     51 HO2N        1.2520    6.2550    2.9450 ho        1 A1R      0.410000
     52 H2N         3.0190    5.0270    4.1550 h1        1 A1R      0.081700
     53 HO3N        0.0760    7.0040    4.9980 ho        1 A1R      0.398000
     54 H3N         0.9080    4.3080    5.0910 h1        1 A1R      0.123700
     55 H4N         0.4950    6.0810    7.2360 h1        1 A1R      0.078700
     56 HN4N        3.0620    6.6610    7.4980 hn        1 A1R      0.356800
     57 H1N1        3.1130    7.8750    5.0800 h1        1 A1R      0.036700
@<TRIPOS>BOND
     1    1    2 ar  
     2    1    6 ar  
     3    2    3 ar  
     4    2   36 1   
     5    3    4 ar  
     6    4    5 ar  
     7    4   10 1   
     8    5    6 ar  
     9    5    8 1   
    10    6    7 1   
    11    7   37 1   
    12    7   38 1   
    13    8    9 2   
    14    9   10 1   
    15    9   39 1   
    16   10   11 1   
    17   11   12 1   
    18   11   16 1   
    19   11   40 1   
    20   12   13 1   
    21   12   14 1   
    22   12   41 1   
    23   13   42 1   
    24   14   15 1   
    25   14   17 1   
    26   14   43 1   
    27   15   44 1   
    28   16   17 1   
    29   17   18 1   
    30   17   45 1   
    31   18   19 1   
    32   18   46 1   
    33   18   47 1   
    34   19   20 1   
    35   20   21 1   
    36   20   22 1   
    37   20   23 1   
    38   23   24 1   
    39   24   25 1   
    40   24   26 1   
    41   24   27 1   
    42   27   28 1   
    43   28   35 1   
    44   28   48 1   
    45   28   49 1   
    46   29   30 1   
    47   29   35 1   
    48   29   56 1   
    49   30   32 1   
    50   30   50 1   
    51   30   57 1   
    52   31   32 1   
    53   31   51 1   
    54   32   34 1   
    55   32   52 1   
    56   33   34 1   
    57   33   53 1   
    58   34   35 1   
    59   34   54 1   
    60   35   55 1   
@<TRIPOS>SUBSTRUCTURE
     1 A1R         1 TEMP              0 ****  ****    0 ROOT
