@<TRIPOS>MOLECULE
A1R
   57    53     1     0     0
SMALL
bcc


@<TRIPOS>ATOM
      1 N1         -6.3600   -2.0360   -5.7560 n1        1 A1R     -0.275000
      2 C2         -5.0450   -2.3240   -5.9830 c1        1 A1R     -0.008000
      3 N3         -4.1600   -2.3790   -4.9320 n1        1 A1R     -0.195000
      4 C4         -4.5950   -2.1460   -3.6610 c1        1 A1R     -0.087500
      5 C5         -5.8960   -1.8610   -3.4360 c1        1 A1R     -0.087500
      6 C6         -6.7920   -1.8060   -4.5050 c1        1 A1R      0.188000
      7 N6         -8.1690   -1.6360   -4.6830 n3        1 A1R     -0.331000
      8 N7         -6.0600   -1.6730   -2.0950 n1        1 A1R     -0.168000
      9 C8         -4.8510   -1.8450   -1.4940 c1        1 A1R     -0.003000
     10 N9         -3.9450   -2.1360   -2.4540 n1        1 A1R     -0.168000
     11 C1'        -3.1000   -3.3100   -2.3730 c2        1 A1R      0.121000
     12 C2'        -1.8250   -3.1030   -3.1880 c3        1 A1R      0.000000
     13 O2'        -1.5760   -4.1840   -3.9440 oh        1 A1R     -0.284000
     14 C3'        -0.6790   -2.8990   -2.1330 c3        1 A1R      0.049000
     15 O3'         0.1880   -4.1080   -2.0720 oh        1 A1R     -0.355000
     16 O4'        -2.6930   -3.4950   -1.1410 os        1 A1R     -0.277000
     17 C4'        -1.2840   -2.7280   -1.0140 c3        1 A1R     -0.054000
     18 C5'        -1.5130   -1.2360   -0.7640 c3        1 A1R      0.029000
     19 O5'        -0.2760   -0.6250   -0.3180 os        1 A1R     -0.741000
     20 PA         -0.3460    0.4930    0.8300 p5        1 A1R      2.055000
     21 O1A        -1.0690   -0.0600    2.0240 o         1 A1R     -0.867500
     22 O2A        -1.0800    1.6960    0.3130 o         1 A1R     -0.867500
     23 O3A         1.1280    0.9130    1.2510 os        1 A1R     -1.291000
     24 PB          1.4580    1.8480    2.5010 p5        1 A1R      2.087000
     25 O1B         0.9940    3.2580    2.2140 o         1 A1R     -0.890500
     26 O2B         0.7450    1.3230    3.7240 o         1 A1R     -0.890500
     27 O5N         3.0230    1.8490    2.7610 os        1 A1R     -0.745000
     28 C5N         3.5820    2.9140    3.5180 c3        1 A1R      0.055000
     29 N4N         5.4370    4.6450    3.0940 n3        1 A1R     -0.269000
     30 C1N         6.2960    4.8900    4.3490 c3        1 A1R     -0.121000
     31 O2N         7.3720    3.5250    5.7770 oh        1 A1R     -0.288000
     32 C2N         6.1560    3.8070    5.0770 c3        1 A1R     -0.013000
     33 O3N         7.0450    2.0940    3.4240 oh        1 A1R     -0.344000
     34 C3N         5.8160    2.5930    4.0270 c3        1 A1R      0.048000
     35 C4N         5.0630    3.0970    3.1320 c3        1 A1R     -0.115000
     36 H2         -4.7300   -2.4930   -6.9030 ha        1 A1R      0.173000
     37 HN61       -8.7470   -1.9600   -4.0690 hn        1 A1R      0.209500
     38 HN62       -8.4840   -1.2230   -5.4340 hn        1 A1R      0.209500
     39 H8         -4.6780   -1.8090   -0.5350 DU        1 A1R      0.239000
     40 H1'        -3.5880   -4.1060   -2.6960 h4        1 A1R      0.128000
     41 H2'        -1.9090   -2.3100   -3.7510 h1        1 A1R      0.089000
     42 HO2'       -1.8830   -4.0470   -4.7670 ho        1 A1R      0.190000
     43 H3'        -0.1490   -2.1110   -2.3560 h1        1 A1R      0.135000
     44 HO3'        1.0320   -3.8760   -2.2350 ho        1 A1R      0.280000
     45 H4'        -0.7550   -3.1150   -0.2840 h1        1 A1R      0.185000
     46 H5'1       -1.8080   -0.8090   -1.5910 h1        1 A1R      0.064500
     47 H5'2       -2.2030   -1.1220   -0.0730 h1        1 A1R      0.064500
     48 H5N1        3.0940    3.7370    3.3310 h1        1 A1R      0.067000
     49 H5N2        3.5170    2.7050    4.4740 h1        1 A1R      0.067000
     50 HN4N        4.6810    5.1400    3.1460 hn        1 A1R      0.135000
     51 H1N1        7.2480    5.0140    4.0950 h1        1 A1R      0.064500
     52 H1N2        5.9680    5.6750    4.8390 h1        1 A1R      0.064500
     53 HO2N        7.2470    3.6500    6.6510 ho        1 A1R      0.164000
     54 H2N         5.4190    3.9200    5.7120 h1        1 A1R      0.059000
     55 HO3N        7.1480    1.2330    3.6280 ho        1 A1R      0.262000
     56 H3N         5.3470    1.8660    4.4920 h1        1 A1R      0.122000
     57 H4N         5.2440    2.6800    2.2580 h1        1 A1R      0.130000
@<TRIPOS>BOND
     1    1    6 1   
     2    2    3 1   
     3    2   36 1   
     4    4    5 1   
     5    6    7 1   
     6    7   37 1   
     7    7   38 1   
     8    8    9 1   
     9    9   10 1   
    10   11   12 1   
    11   11   16 1   
    12   11   40 1   
    13   12   13 1   
    14   12   14 1   
    15   12   41 1   
    16   13   42 1   
    17   14   15 1   
    18   14   17 1   
    19   14   43 1   
    20   15   44 1   
    21   16   17 1   
    22   17   18 1   
    23   17   45 1   
    24   18   19 1   
    25   18   46 1   
    26   18   47 1   
    27   19   20 1   
    28   20   21 1   
    29   20   22 1   
    30   20   23 1   
    31   23   24 1   
    32   24   25 1   
    33   24   26 1   
    34   24   27 1   
    35   27   28 1   
    36   28   35 1   
    37   28   48 1   
    38   28   49 1   
    39   29   30 1   
    40   29   35 1   
    41   29   50 1   
    42   30   32 1   
    43   30   51 1   
    44   30   52 1   
    45   31   32 1   
    46   31   53 1   
    47   32   34 1   
    48   32   54 1   
    49   33   34 1   
    50   33   55 1   
    51   34   35 1   
    52   34   56 1   
    53   35   57 1   
@<TRIPOS>SUBSTRUCTURE
     1 A1R         1 TEMP              0 ****  ****    0 ROOT
