@<TRIPOS>MOLECULE
A1R
   57    60     1     0     0
SMALL
bcc


@<TRIPOS>ATOM
      1 N1          7.1820    0.6040    0.7840 nb        1 A1R     -0.804000
      2 C2          6.7190    0.0500    1.9400 ca        1 A1R      0.647900
      3 N3          5.4980    0.1120    2.5130 nb        1 A1R     -0.721000
      4 C4          4.6090    0.8600    1.7890 ca        1 A1R      0.438800
      5 C5          4.9560    1.5040    0.5220 ca        1 A1R     -0.204200
      6 C6          6.2910    1.3340    0.0400 ca        1 A1R      0.709200
      7 N6          6.6500    1.8550   -1.1990 nh        1 A1R     -0.934500
      8 N7          3.8480    2.2050    0.0250 nc        1 A1R     -0.567100
      9 C8          2.8740    2.0150    0.9280 cd        1 A1R      0.458700
     10 N9          3.2770    1.2200    2.0330 na        1 A1R     -0.274000
     11 C1'         2.4590    0.7420    3.1310 c3        1 A1R      0.219800
     12 C2'         1.9770    1.8800    4.0950 c3        1 A1R      0.112100
     13 O2'         2.1740    1.4500    5.4240 oh        1 A1R     -0.603800
     14 C3'         0.5080    2.1100    3.6970 c3        1 A1R      0.099100
     15 O3'        -0.3000    2.1490    4.8520 oh        1 A1R     -0.651800
     16 O4'         1.2930    0.0870    2.6340 os        1 A1R     -0.429600
     17 C4'         0.1210    0.9080    2.8100 c3        1 A1R      0.065100
     18 C5'        -0.4640    1.2880    1.4320 c3        1 A1R      0.179400
     19 O5'        -0.3310    2.6320    1.1250 os        1 A1R     -0.591200
     20 PA         -1.7280    3.5480    1.3930 p5        1 A1R      1.619800
     21 O1A        -1.7060    3.6480    2.8750 o         1 A1R     -0.890000
     22 O2A        -2.7960    2.8540    0.6570 o         1 A1R     -0.890000
     23 O3A        -1.3040    4.9510    0.7480 os        1 A1R     -0.814800
     24 PB         -0.9220    6.4390    0.1710 p5        1 A1R      1.592800
     25 O1B        -2.1120    7.2990    0.2940 o         1 A1R     -0.860000
     26 O2B        -0.0610    6.3570   -1.0160 o         1 A1R     -0.860000
     27 O5N         0.0930    6.8910    1.4150 os        1 A1R     -0.598200
     28 C5N        -0.5140    7.1410    2.6430 c3        1 A1R      0.177400
     29 N4N        -0.2070    8.6990    4.6330 n3        1 A1R     -0.793200
     30 C1N         0.9830    9.0520    5.3990 c3        1 A1R      0.116800
     31 O2N         3.0440    9.8790    4.3910 oh        1 A1R     -0.612800
     32 C2N         2.2660    8.7160    4.5890 c3        1 A1R      0.119100
     33 O3N         2.3830    8.6580    2.1760 oh        1 A1R     -0.632800
     34 C3N         1.7470    8.0660    3.2900 c3        1 A1R      0.106100
     35 C4N         0.2150    8.3440    3.2750 c3        1 A1R      0.094500
     36 H2          7.4730   -0.5420    2.4990 h5        1 A1R      0.029100
     37 HN61        6.0430    2.5630   -1.5480 hn        1 A1R      0.417300
     38 HN62        7.6180    1.9920   -1.3670 hn        1 A1R      0.417300
     39 H8          1.8370    2.4200    0.8620 h5        1 A1R      0.148800
     40 H1'         3.0440   -0.0430    3.6940 h2        1 A1R      0.102700
     41 H2'         2.5860    2.8160    3.9890 h1        1 A1R      0.088700
     42 HO2'        1.3400    1.0790    5.7430 ho        1 A1R      0.423000
     43 H3'         0.3890    3.0710    3.1110 h1        1 A1R      0.138700
     44 HO3'       -1.0470    2.7380    4.6280 ho        1 A1R      0.484000
     45 H4'        -0.6070    0.2440    3.3520 h1        1 A1R      0.061700
     46 H5'1       -1.5530    0.9950    1.4180 h1        1 A1R      0.036700
     47 H5'2        0.0860    0.6910    0.6490 h1        1 A1R      0.036700
     48 H5N1       -1.6050    7.3750    2.4990 h1        1 A1R      0.048700
     49 H5N2       -0.4020    6.2410    3.3140 h1        1 A1R      0.048700
     50 H1N2        0.9520   10.1600    5.5890 h1        1 A1R      0.034700
     51 HO2N        2.7500   10.2880    3.5670 ho        1 A1R      0.421000
     52 H2N         2.9300    8.0170    5.1610 h1        1 A1R      0.058700
     53 HO3N        1.9540    8.2610    1.3990 ho        1 A1R      0.458000
     54 H3N         1.9450    6.9610    3.2920 h1        1 A1R      0.066700
     55 H4N         0.0260    9.2480    2.6270 h1        1 A1R      0.073700
     56 HN4N       -0.6760    7.9180    5.0570 hn        1 A1R      0.350800
     57 H1N1        1.0100    8.5310    6.3920 h1        1 A1R      0.034700
@<TRIPOS>BOND
     1    1    2 ar  
     2    1    6 ar  
     3    2    3 ar  
     4    2   36 1   
     5    3    4 ar  
     6    4    5 ar  
     7    4   10 1   
     8    5    6 ar  
     9    5    8 1   
    10    6    7 1   
    11    7   37 1   
    12    7   38 1   
    13    8    9 2   
    14    9   10 1   
    15    9   39 1   
    16   10   11 1   
    17   11   12 1   
    18   11   16 1   
    19   11   40 1   
    20   12   13 1   
    21   12   14 1   
    22   12   41 1   
    23   13   42 1   
    24   14   15 1   
    25   14   17 1   
    26   14   43 1   
    27   15   44 1   
    28   16   17 1   
    29   17   18 1   
    30   17   45 1   
    31   18   19 1   
    32   18   46 1   
    33   18   47 1   
    34   19   20 1   
    35   20   21 1   
    36   20   22 1   
    37   20   23 1   
    38   23   24 1   
    39   24   25 1   
    40   24   26 1   
    41   24   27 1   
    42   27   28 1   
    43   28   35 1   
    44   28   48 1   
    45   28   49 1   
    46   29   30 1   
    47   29   35 1   
    48   29   56 1   
    49   30   32 1   
    50   30   50 1   
    51   30   57 1   
    52   31   32 1   
    53   31   51 1   
    54   32   34 1   
    55   32   52 1   
    56   33   34 1   
    57   33   53 1   
    58   34   35 1   
    59   34   54 1   
    60   35   55 1   
@<TRIPOS>SUBSTRUCTURE
     1 A1R         1 TEMP              0 ****  ****    0 ROOT
