@<TRIPOS>MOLECULE
A1R
   58    61     1     0     0
SMALL
bcc


@<TRIPOS>ATOM
      1 N1          0.9060    1.2100    0.4100 nb        1 A1R     -0.796000
      2 C2          2.0810    0.5310    0.3160 ca        1 A1R      0.670900
      3 N3          2.8010   -0.1110    1.2630 nb        1 A1R     -0.729000
      4 C4          2.2110   -0.0590    2.4970 ca        1 A1R      0.449800
      5 C5          0.9330    0.6020    2.7470 ca        1 A1R     -0.221200
      6 C6          0.2960    1.2580    1.6410 ca        1 A1R      0.730200
      7 N6         -0.9330    1.8660    1.8140 nh        1 A1R     -0.913500
      8 N7          0.5800    0.4670    4.0980 nc        1 A1R     -0.567100
      9 C8          1.5840   -0.2280    4.6530 cd        1 A1R      0.426700
     10 N9          2.6070   -0.5790    3.7380 na        1 A1R     -0.284000
     11 C1'         3.8530   -1.2440    4.0650 c3        1 A1R      0.219800
     12 C2'         5.1450   -0.4480    3.6680 c3        1 A1R      0.123100
     13 O2'         6.0720   -1.3340    3.0910 oh        1 A1R     -0.575800
     14 C3'         5.6190    0.1810    4.9970 c3        1 A1R      0.089100
     15 O3'         6.9890   -0.1300    5.1660 oh        1 A1R     -0.609800
     16 O4'         3.9210   -1.4600    5.4760 os        1 A1R     -0.415600
     17 C4'         4.7600   -0.4690    6.0990 c3        1 A1R      0.075100
     18 C5'         3.8960    0.5650    6.8310 c3        1 A1R      0.161400
     19 O5'         4.7420    1.4960    7.4270 os        1 A1R     -0.584200
     20 PA          4.5010    1.8470    9.0190 p5        1 A1R      1.566800
     21 O1A         3.8170    0.6960    9.6210 o         1 A1R     -0.819500
     22 O2A         5.6710    2.5910    9.4720 o         1 A1R     -0.819500
     23 O3A         3.1940    2.9230    8.8200 os        1 A1R     -0.807800
     24 PB          1.9500    3.8520    8.7410 p5        1 A1R      1.788500
     25 O1B         1.9350    5.1820    9.3280 o         1 A1R     -0.853300
     26 O2B         0.8200    2.8550    9.2680 oh        1 A1R     -0.792400
     27 O5N         1.5790    3.8850    7.1630 os        1 A1R     -0.604200
     28 C5N         1.1950    5.1110    6.5970 c3        1 A1R      0.181400
     29 N4N        -0.7650    6.2560    5.5880 n3        1 A1R     -0.793200
     30 C1N        -0.7060    6.3770    4.1380 c3        1 A1R      0.113800
     31 O2N        -1.4400    4.5590    2.6650 oh        1 A1R     -0.606800
     32 C2N        -0.3940    4.9970    3.5060 c3        1 A1R      0.115100
     33 O3N        -1.1830    3.0950    4.7100 oh        1 A1R     -0.631800
     34 C3N        -0.1360    4.0520    4.7040 c3        1 A1R      0.089100
     35 C4N        -0.2100    4.9520    5.9730 c3        1 A1R      0.110500
     36 H2          2.5230    0.5140   -0.7040 h5        1 A1R      0.043100
     37 HN61        1.0830    1.9530    9.4340 ho        1 A1R      0.484000
     38 HN62       -1.2120    2.5310    1.1260 hn        1 A1R      0.432800
     39 H8          1.6530   -0.5300    5.7080 h5        1 A1R      0.093800
     40 H1'         3.8510   -2.2690    3.5900 h2        1 A1R      0.103700
     41 H2'         4.9530    0.3280    2.8810 h1        1 A1R      0.109700
     42 HO2'        6.5320   -1.7940    3.8070 ho        1 A1R      0.419000
     43 H3'         5.4730    1.2950    4.9930 h1        1 A1R      0.090700
     44 HO3'        7.2740    0.3400    5.9620 ho        1 A1R      0.431000
     45 H4'         5.3930   -1.0420    6.8300 h1        1 A1R      0.090700
     46 H5'1        3.2400    1.0920    6.0790 h1        1 A1R      0.049200
     47 H5'2        3.2560    0.0490    7.6010 h1        1 A1R      0.049200
     48 H5N1        1.1920    5.9200    7.3800 h1        1 A1R      0.063200
     49 H5N2        1.9360    5.3670    5.7890 h1        1 A1R      0.063200
     50 HO2N       -2.1940    4.3310    3.2250 ho        1 A1R      0.417000
     51 H2N         0.5030    5.0530    2.8340 h1        1 A1R      0.084700
     52 HO3N       -0.8920    2.3640    5.2700 ho        1 A1R      0.441000
     53 H3N         0.8610    3.5470    4.6330 h1        1 A1R      0.084700
     54 H4N        -0.8760    4.4510    6.7320 h1        1 A1R      0.069700
     55 HN4N       -1.7130    6.3230    5.9080 hn        1 A1R      0.353800
     56 H1N1       -1.6590    6.7890    3.7130 h1        1 A1R      0.054200
     57 H63        -1.1510    2.1320    2.7540 hn        1 A1R      0.432800
     58 H1N2        0.1250    7.0920    3.8930 h1        1 A1R      0.054200
@<TRIPOS>BOND
     1    1    2 ar  
     2    1    6 ar  
     3    2    3 ar  
     4    2   36 1   
     5    3    4 ar  
     6    4    5 ar  
     7    4   10 1   
     8    5    6 ar  
     9    5    8 1   
    10    6    7 1   
    11    7   38 1   
    12    7   57 1   
    13    8    9 2   
    14    9   10 1   
    15    9   39 1   
    16   10   11 1   
    17   11   12 1   
    18   11   16 1   
    19   11   40 1   
    20   12   13 1   
    21   12   14 1   
    22   12   41 1   
    23   13   42 1   
    24   14   15 1   
    25   14   17 1   
    26   14   43 1   
    27   15   44 1   
    28   16   17 1   
    29   17   18 1   
    30   17   45 1   
    31   18   19 1   
    32   18   46 1   
    33   18   47 1   
    34   19   20 1   
    35   20   21 1   
    36   20   22 1   
    37   20   23 1   
    38   23   24 1   
    39   24   25 2   
    40   24   26 1   
    41   24   27 1   
    42   26   37 1   
    43   27   28 1   
    44   28   35 1   
    45   28   48 1   
    46   28   49 1   
    47   29   30 1   
    48   29   35 1   
    49   29   55 1   
    50   30   32 1   
    51   30   56 1   
    52   30   58 1   
    53   31   32 1   
    54   31   50 1   
    55   32   34 1   
    56   32   51 1   
    57   33   34 1   
    58   33   52 1   
    59   34   35 1   
    60   34   53 1   
    61   35   54 1   
@<TRIPOS>SUBSTRUCTURE
     1 A1R         1 TEMP              0 ****  ****    0 ROOT
