@<TRIPOS>MOLECULE
A1R
   57    60     1     0     0
SMALL
bcc


@<TRIPOS>ATOM
      1 N1         -0.8630   -2.3700    0.5020 nb        1 A1R     -0.805000
      2 C2          0.3920   -2.0720    0.0610 ca        1 A1R      0.647900
      3 N3          1.4390   -1.5170    0.7090 nb        1 A1R     -0.719000
      4 C4          1.1580   -1.2190    2.0150 ca        1 A1R      0.438800
      5 C5         -0.1390   -1.4940    2.6330 ca        1 A1R     -0.205200
      6 C6         -1.1440   -2.0980    1.8170 ca        1 A1R      0.708200
      7 N6         -2.3660   -2.4580    2.3760 nh        1 A1R     -0.934500
      8 N7         -0.1300   -1.0700    3.9700 nc        1 A1R     -0.567100
      9 C8          1.0950   -0.5580    4.1710 cd        1 A1R      0.458700
     10 N9          1.9210   -0.6040    3.0160 na        1 A1R     -0.272000
     11 C1'         3.3170   -0.2280    2.9070 c3        1 A1R      0.218800
     12 C2'         3.5680    1.3120    3.0600 c3        1 A1R      0.112100
     13 O2'         4.4710    1.7100    2.0520 oh        1 A1R     -0.603800
     14 C3'         4.0910    1.4600    4.5000 c3        1 A1R      0.096100
     15 O3'         5.2310    2.2910    4.5160 oh        1 A1R     -0.647800
     16 O4'         4.0880   -0.8830    3.9130 os        1 A1R     -0.429600
     17 C4'         4.4620    0.0350    4.9590 c3        1 A1R      0.065100
     18 C5'         3.8170   -0.4020    6.2920 c3        1 A1R      0.173400
     19 O5'         2.8460    0.4750    6.7510 os        1 A1R     -0.591200
     20 PA          3.3730    1.5490    7.9420 p5        1 A1R      1.617800
     21 O1A         4.0380    2.5870    7.1100 o         1 A1R     -0.891000
     22 O2A         4.0980    0.7190    8.9180 o         1 A1R     -0.891000
     23 O3A         1.9900    2.1410    8.4890 os        1 A1R     -0.814800
     24 PB          0.6120    2.8570    9.0290 p5        1 A1R      1.589800
     25 O1B         0.8820    3.4610   10.3460 o         1 A1R     -0.861500
     26 O2B        -0.5610    2.0380    8.6930 o         1 A1R     -0.861500
     27 O5N         0.6090    4.1340    7.9600 os        1 A1R     -0.594200
     28 C5N         1.4270    5.1910    8.3580 c3        1 A1R      0.191400
     29 N4N         2.5060    7.2640    7.3720 n3        1 A1R     -0.797200
     30 C1N         3.2480    7.4870    6.1340 c3        1 A1R      0.115800
     31 O2N         2.3980    6.8260    3.9540 oh        1 A1R     -0.615800
     32 C2N         2.9930    6.3240    5.1350 c3        1 A1R      0.122100
     33 O3N         1.0360    4.9050    5.1150 oh        1 A1R     -0.635800
     34 C3N         2.1210    5.3230    5.9210 c3        1 A1R      0.089100
     35 C4N         1.6070    6.1260    7.1530 c3        1 A1R      0.100500
     36 H2          0.5760   -2.3230   -1.0040 h5        1 A1R      0.029100
     37 HN61       -2.5780   -2.0120    3.2400 hn        1 A1R      0.417300
     38 HN62       -3.1290   -2.5790    1.7530 hn        1 A1R      0.417300
     39 H8          1.4720   -0.1300    5.1280 h5        1 A1R      0.146800
     40 H1'         3.7100   -0.6050    1.9170 h2        1 A1R      0.103700
     41 H2'         2.6390    1.9170    2.8910 h1        1 A1R      0.094700
     42 HO2'        5.3540    1.7580    2.4430 ho        1 A1R      0.422000
     43 H3'         3.2920    1.8880    5.1800 h1        1 A1R      0.139700
     44 HO3'        5.1920    2.7750    5.3630 ho        1 A1R      0.480000
     45 H4'         5.5800   -0.0680    5.0370 h1        1 A1R      0.061700
     46 H5'1        4.6320   -0.5120    7.0640 h1        1 A1R      0.040700
     47 H5'2        3.3320   -1.4070    6.1270 h1        1 A1R      0.040700
     48 H5N1        0.9390    5.7380    9.2090 h1        1 A1R      0.031700
     49 H5N2        2.4170    4.7910    8.7110 h1        1 A1R      0.031700
     50 H1N2        2.8800    8.4470    5.6810 h1        1 A1R      0.033700
     51 HO2N        1.4420    6.7330    4.0450 ho        1 A1R      0.417000
     52 H2N         3.9560    5.8540    4.8040 h1        1 A1R      0.072700
     53 HO3N        0.5010    4.3330    5.6910 ho        1 A1R      0.452000
     54 H3N         2.7310    4.4320    6.2450 h1        1 A1R      0.122700
     55 H4N         0.5970    6.5550    6.8910 h1        1 A1R      0.059700
     56 HN4N        3.1430    7.0470    8.1180 hn        1 A1R      0.345800
     57 H1N1        4.3490    7.5920    6.3230 h1        1 A1R      0.033700
@<TRIPOS>BOND
     1    1    2 ar  
     2    1    6 ar  
     3    2    3 ar  
     4    2   36 1   
     5    3    4 ar  
     6    4    5 ar  
     7    4   10 1   
     8    5    6 ar  
     9    5    8 1   
    10    6    7 1   
    11    7   37 1   
    12    7   38 1   
    13    8    9 2   
    14    9   10 1   
    15    9   39 1   
    16   10   11 1   
    17   11   12 1   
    18   11   16 1   
    19   11   40 1   
    20   12   13 1   
    21   12   14 1   
    22   12   41 1   
    23   13   42 1   
    24   14   15 1   
    25   14   17 1   
    26   14   43 1   
    27   15   44 1   
    28   16   17 1   
    29   17   18 1   
    30   17   45 1   
    31   18   19 1   
    32   18   46 1   
    33   18   47 1   
    34   19   20 1   
    35   20   21 1   
    36   20   22 1   
    37   20   23 1   
    38   23   24 1   
    39   24   25 1   
    40   24   26 1   
    41   24   27 1   
    42   27   28 1   
    43   28   35 1   
    44   28   48 1   
    45   28   49 1   
    46   29   30 1   
    47   29   35 1   
    48   29   56 1   
    49   30   32 1   
    50   30   50 1   
    51   30   57 1   
    52   31   32 1   
    53   31   51 1   
    54   32   34 1   
    55   32   52 1   
    56   33   34 1   
    57   33   53 1   
    58   34   35 1   
    59   34   54 1   
    60   35   55 1   
@<TRIPOS>SUBSTRUCTURE
     1 A1R         1 TEMP              0 ****  ****    0 ROOT
