@<TRIPOS>MOLECULE
A1T
   98   103     1     0     0
SMALL
bcc


@<TRIPOS>ATOM
      1 O25         1.8700   -1.8580   -0.0580 o         1 A1T     -0.442100
      2 C23         2.1830   -0.7730    0.4210 c         1 A1T      0.465600
      3 C26         2.3220   -0.4880    1.8680 ca        1 A1T      0.277800
      4 C30         2.0550   -1.5430    2.7610 ca        1 A1T     -0.133300
      5 C34         2.1790   -1.3000    4.1360 ca        1 A1T     -0.108000
      6 C36         2.5590   -0.0340    4.5780 ca        1 A1T     -0.102600
      7 C38         2.6980    0.2900    6.0190 c3        1 A1T     -0.058100
      8 C40         4.1440    0.5500    6.4050 c3        1 A1T     -0.075400
      9 C43         4.2480    0.9210    7.8690 c3        1 A1T     -0.081400
     10 C46         5.6880    1.1770    8.2650 c3        1 A1T     -0.078400
     11 C48         5.7980    1.5480    9.7210 c3        1 A1T     -0.095100
     12 C33         2.8050    0.9670    3.5930 ca        1 A1T      0.408200
     13 N29         2.6940    0.7590    2.2810 nb        1 A1T     -0.669000
     14 N22         2.4530    0.3580   -0.5460 n4        1 A1T     -0.583200
     15 C24         3.9080    0.2860   -0.9730 c3        1 A1T      0.139500
     16 C28         4.4390    1.6430   -1.4460 c3        1 A1T     -0.099400
     17 C32         5.9340    1.5160   -1.7540 c3        1 A1T      0.177800
     18 N35         6.2140    0.4670   -2.7170 n3        1 A1T     -0.732600
     19 C37         7.6010    0.4120   -3.1460 c3        1 A1T      0.135500
     20 C39         8.0870    1.6490   -3.8770 ca        1 A1T      0.383600
     21 C42         9.3770    2.1280   -3.5640 ca        1 A1T     -0.241300
     22 C45         9.8820    3.2200   -4.2720 ca        1 A1T     -0.088000
     23 C47         9.0940    3.8050   -5.2630 ca        1 A1T     -0.234300
     24 C44         7.8170    3.2630   -5.5030 ca        1 A1T      0.392200
     25 N41         7.3110    2.2110   -4.8360 nb        1 A1T     -0.649000
     26 C31         5.7000   -0.8260   -2.2990 c3        1 A1T      0.177800
     27 C27         4.1910   -0.7770   -2.0350 c3        1 A1T     -0.099400
     28 C21         1.4390    0.3270   -1.6590 c3        1 A1T      0.176100
     29 C20         1.2920    1.6370   -2.3530 ca        1 A1T     -0.175300
     30 C18         1.7520    1.7970   -3.6640 ca        1 A1T     -0.101500
     31 C16         1.5500    3.0020   -4.3320 ca        1 A1T     -0.117000
     32 C19         0.6300    2.6940   -1.7150 ca        1 A1T     -0.101500
     33 C17         0.4300    3.8980   -2.3820 ca        1 A1T     -0.117000
     34 C15         0.8880    4.0650   -3.7000 cp        1 A1T      0.018000
     35 C14         0.6720    5.3260   -4.4060 cp        1 A1T     -0.063000
     36 C11         1.6790    5.8590   -5.2240 ca        1 A1T     -0.112500
     37 C7          1.4680    7.0500   -5.9140 ca        1 A1T     -0.097500
     38 C12        -0.5480    6.0070   -4.2850 ca        1 A1T     -0.112500
     39 C8         -0.7600    7.1980   -4.9750 ca        1 A1T     -0.097500
     40 C4          0.2480    7.7210   -5.7910 ca        1 A1T     -0.102600
     41 C2          0.0020    8.9460   -6.6150 c         1 A1T      0.659700
     42 O1         -0.1730    8.8360   -7.8440 o         1 A1T     -0.583100
     43 N3          0.0590   10.1930   -6.0080 n         1 A1T     -0.450800
     44 C6         -0.3310   11.3740   -6.7570 c3        1 A1T      0.080500
     45 C10        -1.6310   12.0140   -6.2660 c3        1 A1T     -0.102400
     46 C13        -1.6000   12.2440   -4.7700 c3        1 A1T     -0.079400
     47 C9         -1.2440   10.9730   -4.0280 c3        1 A1T     -0.102400
     48 C5          0.0520   10.3660   -4.5730 c3        1 A1T      0.080500
     49 H30         1.7570   -2.5350    2.3830 ha        1 A1T      0.179000
     50 H34         1.9750   -2.1100    4.8550 ha        1 A1T      0.173000
     51 H381        2.0810    1.2020    6.2500 hc        1 A1T      0.072200
     52 H382        2.2920   -0.5510    6.6440 hc        1 A1T      0.072200
     53 H401        4.5590    1.3800    5.7740 hc        1 A1T      0.046200
     54 H402        4.7600   -0.3650    6.2030 hc        1 A1T      0.046200
     55 H431        3.8280    0.0930    8.4990 hc        1 A1T      0.047200
     56 H432        3.6340    1.8370    8.0720 hc        1 A1T      0.047200
     57 H461        6.3010    0.2590    8.0620 hc        1 A1T      0.040200
     58 H462        6.1080    2.0030    7.6330 hc        1 A1T      0.040200
     59 H481        5.2140    2.4740    9.9390 hc        1 A1T      0.039700
     60 H482        5.4070    0.7260   10.3690 hc        1 A1T      0.039700
     61 H483        6.8660    1.7320    9.9930 hc        1 A1T      0.039700
     62 H33         3.1080    1.9870    3.9000 h4        1 A1T      0.051100
     63 H24         4.4720    0.0060   -0.0280 hx        1 A1T      0.091700
     64 H281        3.8870    1.9770   -2.3640 hc        1 A1T      0.075450
     65 H282        4.3090    2.4210   -0.6500 hc        1 A1T      0.075450
     66 H321        6.2840    2.4930   -2.1930 h1        1 A1T      0.051450
     67 H322        6.4870    1.3540   -0.7810 h1        1 A1T      0.051450
     68 H371        8.2930    0.2280   -2.2700 h1        1 A1T      0.052700
     69 H372        7.7050   -0.4580   -3.8590 h1        1 A1T      0.052700
     70 H42         9.9780    1.6450   -2.7810 ha        1 A1T      0.144000
     71 H45        10.8870    3.6090   -4.0520 ha        1 A1T      0.148000
     72 H47         9.4540    4.6630   -5.8470 ha        1 A1T      0.153000
     73 H44         7.1600    3.6910   -6.2820 h4        1 A1T      0.027100
     74 H311        5.8830   -1.5650   -3.1290 h1        1 A1T      0.051450
     75 H312        6.2180   -1.2120   -1.3710 h1        1 A1T      0.051450
     76 H271        3.6640   -0.5280   -2.9940 hc        1 A1T      0.075450
     77 H272        3.8480   -1.7870   -1.6890 hc        1 A1T      0.075450
     78 H211        1.7200   -0.4940   -2.3770 hx        1 A1T      0.106200
     79 H212        0.4510    0.0450   -1.1850 hx        1 A1T      0.106200
     80 H18         2.2690    0.9700   -4.1780 ha        1 A1T      0.139500
     81 H16         1.9030    3.1170   -5.3700 ha        1 A1T      0.158000
     82 H19         0.2490    2.5710   -0.6900 ha        1 A1T      0.139500
     83 H17        -0.0910    4.7260   -1.8770 ha        1 A1T      0.158000
     84 H11         2.6420    5.3340   -5.3240 ha        1 A1T      0.139000
     85 H7          2.2550    7.4580   -6.5680 ha        1 A1T      0.153500
     86 H12        -1.3490    5.5910   -3.6550 ha        1 A1T      0.139000
     87 H8         -1.7240    7.7230   -4.8860 ha        1 A1T      0.153500
     88 H61        -0.4350   11.1080   -7.8470 h1        1 A1T      0.060950
     89 H62         0.5060   12.1220   -6.6530 h1        1 A1T      0.060950
     90 H101       -1.7640   12.9900   -6.8010 hc        1 A1T      0.050950
     91 H102       -2.5010   11.3600   -6.5320 hc        1 A1T      0.050950
     92 H131       -2.6000   12.6150   -4.4240 hc        1 A1T      0.047200
     93 H132       -0.8450   13.0380   -4.5300 hc        1 A1T      0.047200
     94 H91        -1.1020   11.1900   -2.9390 hc        1 A1T      0.050950
     95 H92        -2.0810   10.2320   -4.1230 hc        1 A1T      0.050950
     96 H51         0.2430    9.3820   -4.0600 h1        1 A1T      0.060950
     97 H52         0.9060   11.0600   -4.3190 h1        1 A1T      0.060950
     98 H221        2.3370    1.2600   -0.0590 hn        1 A1T      0.470800
@<TRIPOS>BOND
     1    1    2 2   
     2    2    3 1   
     3    2   14 1   
     4    3    4 ar  
     5    3   13 ar  
     6    4    5 ar  
     7    4   49 1   
     8    5    6 ar  
     9    5   50 1   
    10    6    7 1   
    11    6   12 ar  
    12    7    8 1   
    13    7   51 1   
    14    7   52 1   
    15    8    9 1   
    16    8   53 1   
    17    8   54 1   
    18    9   10 1   
    19    9   55 1   
    20    9   56 1   
    21   10   11 1   
    22   10   57 1   
    23   10   58 1   
    24   11   59 1   
    25   11   60 1   
    26   11   61 1   
    27   12   13 ar  
    28   12   62 1   
    29   14   15 1   
    30   14   28 1   
    31   14   98 1   
    32   15   16 1   
    33   15   27 1   
    34   15   63 1   
    35   16   17 1   
    36   16   64 1   
    37   16   65 1   
    38   17   18 1   
    39   17   66 1   
    40   17   67 1   
    41   18   19 1   
    42   18   26 1   
    43   19   20 1   
    44   19   68 1   
    45   19   69 1   
    46   20   21 ar  
    47   20   25 ar  
    48   21   22 ar  
    49   21   70 1   
    50   22   23 ar  
    51   22   71 1   
    52   23   24 ar  
    53   23   72 1   
    54   24   25 ar  
    55   24   73 1   
    56   26   27 1   
    57   26   74 1   
    58   26   75 1   
    59   27   76 1   
    60   27   77 1   
    61   28   29 1   
    62   28   78 1   
    63   28   79 1   
    64   29   30 ar  
    65   29   32 ar  
    66   30   31 ar  
    67   30   80 1   
    68   31   34 ar  
    69   31   81 1   
    70   32   33 ar  
    71   32   82 1   
    72   33   34 ar  
    73   33   83 1   
    74   34   35 1   
    75   35   36 ar  
    76   35   38 ar  
    77   36   37 ar  
    78   36   84 1   
    79   37   40 ar  
    80   37   85 1   
    81   38   39 ar  
    82   38   86 1   
    83   39   40 ar  
    84   39   87 1   
    85   40   41 1   
    86   41   42 2   
    87   41   43 1   
    88   43   44 1   
    89   43   48 1   
    90   44   45 1   
    91   44   88 1   
    92   44   89 1   
    93   45   46 1   
    94   45   90 1   
    95   45   91 1   
    96   46   47 1   
    97   46   92 1   
    98   46   93 1   
    99   47   48 1   
   100   47   94 1   
   101   47   95 1   
   102   48   96 1   
   103   48   97 1   
@<TRIPOS>SUBSTRUCTURE
     1 A1T         1 TEMP              0 ****  ****    0 ROOT
