@<TRIPOS>MOLECULE
A1T
   97    91     1     0     0
SMALL
bcc


@<TRIPOS>ATOM
      1 O25        -2.2730    2.2600    1.7480 o         1 A1T     -0.346000
      2 C23        -1.0630    2.1240    1.7390 c1        1 A1T      0.366000
      3 C26        -0.2900    2.0520    3.0670 c1        1 A1T     -0.057000
      4 C30        -0.9780    2.0770    4.2690 c2        1 A1T     -0.153000
      5 C34        -0.2860    2.1190    5.4560 c1        1 A1T     -0.095000
      6 C36         1.0740    2.1370    5.4500 c1        1 A1T     -0.106000
      7 C38         1.8400    2.0770    6.7670 c3        1 A1T     -0.122000
      8 C40         1.6930    3.4420    7.5200 c3        1 A1T     -0.156000
      9 C43         2.6370    3.4620    8.7320 c3        1 A1T     -0.159000
     10 C46         2.4110    4.7930    9.5540 c3        1 A1T     -0.159000
     11 C48         3.2850    4.7620   10.8370 c3        1 A1T     -0.211000
     12 C33         1.7700    2.1120    4.2300 c1        1 A1T     -0.069000
     13 N29         1.0870    2.0700    3.0610 n1        1 A1T     -0.113000
     14 N22        -0.3200    2.1000    0.4390 n3        1 A1T     -0.321000
     15 C24        -1.0700    2.2420   -0.8610 c3        1 A1T      0.049000
     16 C28        -1.6680    3.6040   -0.9340 c3        1 A1T     -0.195500
     17 C32        -2.7920    3.7980    0.0670 c3        1 A1T     -0.080500
     18 N35        -3.7960    2.7420   -0.0110 n3        1 A1T     -0.236000
     19 C37        -4.5670    2.8880   -1.2440 c3        1 A1T     -0.037000
     20 C39        -6.0240    3.1930   -0.8990 c2        1 A1T     -0.019000
     21 C42        -6.8410    2.1950   -0.4020 c2        1 A1T     -0.156000
     22 C45        -8.1590    2.4650   -0.1270 c1        1 A1T     -0.099000
     23 C47        -8.6600    3.7210   -0.3460 c1        1 A1T     -0.118250
     24 C44        -7.8390    4.7160   -0.8430 c1        1 A1T     -0.118250
     25 N41        -6.5280    4.4470   -1.1170 n1        1 A1T     -0.145000
     26 C31        -3.2120    1.3850    0.0600 c3        1 A1T     -0.080500
     27 C27        -2.0870    1.1840   -0.9410 c3        1 A1T     -0.195500
     28 C21         1.1320    1.8860    0.4280 c3        1 A1T      0.015000
     29 C20         1.4580    0.6210   -0.3690 c2        1 A1T     -0.097000
     30 C18         0.9370   -0.5990    0.0290 c2        1 A1T     -0.115000
     31 C16         1.2880   -1.7640   -0.6530 c1        1 A1T     -0.118000
     32 C19         2.3340    0.6860   -1.4530 c1        1 A1T     -0.120000
     33 C17         2.6830   -0.4760   -2.1330 c1        1 A1T     -0.119500
     34 C15         2.1580   -1.7020   -1.7310 c1        1 A1T     -0.031000
     35 C14         2.4380   -2.8490   -2.4590 c1        1 A1T     -0.031000
     36 C11         3.5520   -3.6450   -2.1180 c1        1 A1T     -0.118250
     37 C7          3.8320   -4.8090   -2.8430 c1        1 A1T     -0.118250
     38 C12         1.6030   -3.2280   -3.5360 c1        1 A1T     -0.119500
     39 C8          1.8880   -4.4080   -4.2720 c1        1 A1T     -0.107000
     40 C4          2.9930   -5.1940   -3.9300 c1        1 A1T     -0.104000
     41 C2          3.3700   -6.4320   -4.8040 c2        1 A1T      0.339000
     42 O1          4.3870   -7.0740   -4.5530 o         1 A1T     -0.354000
     43 N3          2.4800   -6.8680   -5.8760 n         1 A1T     -0.314000
     44 C6          1.2630   -6.1650   -6.2280 c3        1 A1T     -0.034500
     45 C10         1.1880   -5.8610   -7.7250 c3        1 A1T     -0.181000
     46 C13         1.4210   -7.0580   -8.5460 c3        1 A1T     -0.157000
     47 C9          2.6700   -7.7660   -8.1620 c3        1 A1T     -0.181000
     48 C5          2.7330   -8.0560   -6.6880 c3        1 A1T     -0.034500
     49 H30        -1.9450    2.0640    4.2720 ha        1 A1T      0.151000
     50 H34        -0.7770    2.1370    6.3120 ha        1 A1T      0.143000
     51 H381        2.7640    1.9080    6.5900 hc        1 A1T      0.091500
     52 H382        1.4700    1.3430    7.3320 hc        1 A1T      0.091500
     53 H401        0.7630    3.5500    7.8270 hc        1 A1T      0.086500
     54 H402        1.9280    4.1920    6.8980 hc        1 A1T      0.086500
     55 H431        3.5620    3.4240    8.4250 hc        1 A1T      0.079500
     56 H432        2.4470    2.6670    9.3190 hc        1 A1T      0.079500
     57 H461        2.6700    5.5750    8.9970 hc        1 A1T      0.080000
     58 H462        1.4590    4.8690    9.8030 hc        1 A1T      0.080000
     59 H481        4.2510    4.7130   10.5800 hc        1 A1T      0.072667
     60 H482        3.1250    5.5890   11.3700 hc        1 A1T      0.072667
     61 H483        3.0490    3.9700   11.3790 hc        1 A1T      0.072667
     62 H33         2.7820    2.1250    4.2230 ha        1 A1T      0.165000
     63 H24        -0.4550    2.1340   -1.5870 h1        1 A1T      0.087000
     64 H281       -2.0260    3.7450   -1.8480 hc        1 A1T      0.089750
     65 H282       -0.9610    4.2790   -0.7590 hc        1 A1T      0.089750
     66 H321       -2.4130    3.8100    0.9690 h1        1 A1T      0.107500
     67 H322       -3.2370    4.6850   -0.1130 h1        1 A1T      0.107500
     68 H371       -4.5200    2.0450   -1.7710 h1        1 A1T      0.087000
     69 H372       -4.1870    3.6420   -1.7870 h1        1 A1T      0.087000
     70 H42        -6.4940    1.3300   -0.2510 ha        1 A1T      0.157000
     71 H45        -8.7410    1.7610    0.2260 ha        1 A1T      0.137000
     72 H47        -9.6170    3.9180   -0.1470 ha        1 A1T      0.146000
     73 H44        -8.1960    5.6130   -0.9980 ha        1 A1T      0.146000
     74 H311       -3.9100    0.7330   -0.1180 h1        1 A1T      0.107500
     75 H312       -2.8770    1.2440    0.9260 h1        1 A1T      0.107500
     76 H271       -2.4600    1.1750   -1.8330 hc        1 A1T      0.089750
     77 H272       -1.6420    0.2880   -0.7600 hc        1 A1T      0.089750
     78 H211        1.4530    1.7840    1.3450 h1        1 A1T      0.102500
     79 H212        1.5730    2.6590    0.0100 h1        1 A1T      0.102500
     80 H18         0.3250   -0.6420    0.7870 ha        1 A1T      0.135000
     81 H16         0.9360   -2.5880   -0.3830 ha        1 A1T      0.137000
     82 H19         2.6960    1.5350   -1.7300 ha        1 A1T      0.136000
     83 H17         3.3360   -0.4290   -2.9400 ha        1 A1T      0.139500
     84 H11         4.1530   -3.3730   -1.3430 ha        1 A1T      0.146000
     85 H7          4.6180   -5.3670   -2.6000 ha        1 A1T      0.146000
     86 H12         0.8370   -2.6820   -3.7720 ha        1 A1T      0.139500
     87 H8          1.3060   -4.6750   -5.0240 ha        1 A1T      0.140000
     88 H61         0.4880   -6.7200   -5.9750 h1        1 A1T      0.099500
     89 H62         1.2270   -5.3040   -5.7190 h1        1 A1T      0.099500
     90 H101        0.3050   -5.5040   -7.9310 hc        1 A1T      0.088500
     91 H102        1.8500   -5.1990   -7.9430 hc        1 A1T      0.088500
     92 H131        1.4830   -6.7970   -9.4680 hc        1 A1T      0.082500
     93 H132        0.6490   -7.6800   -8.4370 hc        1 A1T      0.082500
     94 H91         2.7160   -8.5960   -8.6440 hc        1 A1T      0.088500
     95 H92         3.4400   -7.2100   -8.4100 hc        1 A1T      0.088500
     96 H51         2.0520   -8.7540   -6.4650 h1        1 A1T      0.099500
     97 H52         3.5950   -8.3900   -6.4800 h1        1 A1T      0.099500
@<TRIPOS>BOND
     1    1    2 1   
     2    2   14 1   
     3    3    4 1   
     4    3   13 1   
     5    4    5 1   
     6    4   49 1   
     7    5   50 1   
     8    6    7 1   
     9    6   12 1   
    10    7    8 1   
    11    7   51 1   
    12    7   52 1   
    13    8    9 1   
    14    8   53 1   
    15    8   54 1   
    16    9   10 1   
    17    9   55 1   
    18    9   56 1   
    19   10   11 1   
    20   10   57 1   
    21   10   58 1   
    22   11   59 1   
    23   11   60 1   
    24   11   61 1   
    25   12   62 1   
    26   14   15 1   
    27   14   28 1   
    28   15   16 1   
    29   15   27 1   
    30   15   63 1   
    31   16   17 1   
    32   16   64 1   
    33   16   65 1   
    34   17   18 1   
    35   17   66 1   
    36   17   67 1   
    37   18   19 1   
    38   18   26 1   
    39   19   20 1   
    40   19   68 1   
    41   19   69 1   
    42   20   21 1   
    43   20   25 1   
    44   21   22 1   
    45   21   70 1   
    46   22   71 1   
    47   23   24 1   
    48   23   72 1   
    49   24   73 1   
    50   26   27 1   
    51   26   74 1   
    52   26   75 1   
    53   27   76 1   
    54   27   77 1   
    55   28   29 1   
    56   28   78 1   
    57   28   79 1   
    58   29   30 1   
    59   29   32 1   
    60   30   31 1   
    61   30   80 1   
    62   31   81 1   
    63   32   82 1   
    64   33   34 1   
    65   33   83 1   
    66   35   38 1   
    67   36   37 1   
    68   36   84 1   
    69   37   85 1   
    70   38   86 1   
    71   39   40 1   
    72   39   87 1   
    73   40   41 1   
    74   41   42 1   
    75   41   43 1   
    76   43   44 1   
    77   43   48 1   
    78   44   45 1   
    79   44   88 1   
    80   44   89 1   
    81   45   46 1   
    82   45   90 1   
    83   45   91 1   
    84   46   47 1   
    85   46   92 1   
    86   46   93 1   
    87   47   48 1   
    88   47   94 1   
    89   47   95 1   
    90   48   96 1   
    91   48   97 1   
@<TRIPOS>SUBSTRUCTURE
     1 A1T         1 TEMP              0 ****  ****    0 ROOT
