@<TRIPOS>MOLECULE
A1T
   98   103     1     0     0
SMALL
bcc


@<TRIPOS>ATOM
      1 O25         1.8390   -1.8450   -0.0350 o         1 A1T     -0.442100
      2 C23         2.1630   -0.7610    0.4390 c         1 A1T      0.465600
      3 C26         2.3150   -0.4740    1.8840 ca        1 A1T      0.277800
      4 C30         2.0470   -1.5250    2.7810 ca        1 A1T     -0.133300
      5 C34         2.1830   -1.2800    4.1540 ca        1 A1T     -0.108000
      6 C36         2.5760   -0.0150    4.5900 ca        1 A1T     -0.102600
      7 C38         2.7280    0.3110    6.0300 c3        1 A1T     -0.058100
      8 C40         4.1790    0.5590    6.4040 c3        1 A1T     -0.075400
      9 C43         4.2980    0.9310    7.8670 c3        1 A1T     -0.081400
     10 C46         5.7420    1.1750    8.2520 c3        1 A1T     -0.078400
     11 C48         5.8670    1.5470    9.7070 c3        1 A1T     -0.095100
     12 C33         2.8220    0.9810    3.6010 ca        1 A1T      0.408200
     13 N29         2.7000    0.7710    2.2910 nb        1 A1T     -0.669000
     14 N22         2.4340    0.3650   -0.5340 n4        1 A1T     -0.582200
     15 C24         3.8850    0.2810   -0.9710 c3        1 A1T      0.139500
     16 C28         4.4230    1.6330   -1.4510 c3        1 A1T     -0.099400
     17 C32         5.9140    1.4940   -1.7700 c3        1 A1T      0.177800
     18 N35         6.1800    0.4410   -2.7330 n3        1 A1T     -0.732600
     19 C37         7.5630    0.3760   -3.1730 c3        1 A1T      0.135500
     20 C39         8.0510    1.6060   -3.9100 ca        1 A1T      0.383600
     21 C42         9.3480    2.0770   -3.6100 ca        1 A1T     -0.241300
     22 C45         9.8540    3.1630   -4.3250 ca        1 A1T     -0.088000
     23 C47         9.0620    3.7520   -5.3100 ca        1 A1T     -0.234300
     24 C44         7.7800    3.2190   -5.5380 ca        1 A1T      0.392200
     25 N41         7.2710    2.1720   -4.8650 nb        1 A1T     -0.649000
     26 C31         5.6590   -0.8480   -2.3070 c3        1 A1T      0.177800
     27 C27         4.1530   -0.7870   -2.0320 c3        1 A1T     -0.099400
     28 C21         1.4120    0.3390   -1.6380 c3        1 A1T      0.176100
     29 C20         1.2700    1.6470   -2.3350 ca        1 A1T     -0.175300
     30 C18         1.7210    1.8000   -3.6510 ca        1 A1T     -0.101500
     31 C16         1.5230    3.0040   -4.3220 ca        1 A1T     -0.117000
     32 C19         0.6210    2.7110   -1.6960 ca        1 A1T     -0.101500
     33 C17         0.4250    3.9140   -2.3660 ca        1 A1T     -0.117000
     34 C15         0.8740    4.0740   -3.6870 cp        1 A1T      0.018000
     35 C14         0.6630    5.3340   -4.3960 cp        1 A1T     -0.063000
     36 C11         1.6670    5.8560   -5.2230 ca        1 A1T     -0.112500
     37 C7          1.4600    7.0480   -5.9150 ca        1 A1T     -0.097500
     38 C12        -0.5510    6.0240   -4.2680 ca        1 A1T     -0.112500
     39 C8         -0.7590    7.2150   -4.9610 ca        1 A1T     -0.097500
     40 C4          0.2460    7.7270   -5.7850 ca        1 A1T     -0.102600
     41 C2          0.0040    8.9520   -6.6120 c         1 A1T      0.659700
     42 O1         -0.1790    8.8390   -7.8400 o         1 A1T     -0.583100
     43 N3          0.0710   10.2000   -6.0090 n         1 A1T     -0.450800
     44 C6         -0.3170   11.3810   -6.7600 c3        1 A1T      0.080500
     45 C10        -1.6100   12.0300   -6.2640 c3        1 A1T     -0.102400
     46 C13        -1.5700   12.2640   -4.7680 c3        1 A1T     -0.079400
     47 C9         -1.2170   10.9930   -4.0250 c3        1 A1T     -0.102400
     48 C5          0.0730   10.3770   -4.5740 c3        1 A1T      0.080500
     49 H30         1.7380   -2.5150    2.4080 ha        1 A1T      0.179000
     50 H34         1.9780   -2.0870    4.8780 ha        1 A1T      0.173000
     51 H381        2.3200   -0.5250    6.6600 hc        1 A1T      0.072200
     52 H382        2.1210    1.2290    6.2630 hc        1 A1T      0.072200
     53 H401        4.5970    1.3840    5.7690 hc        1 A1T      0.046200
     54 H402        4.7850   -0.3620    6.2000 hc        1 A1T      0.046200
     55 H431        3.8740    0.1080    8.5020 hc        1 A1T      0.047200
     56 H432        3.6930    1.8530    8.0730 hc        1 A1T      0.047200
     57 H461        6.3450    0.2520    8.0460 hc        1 A1T      0.040200
     58 H462        6.1650    1.9960    7.6150 hc        1 A1T      0.040200
     59 H481        5.4730    0.7300   10.3590 hc        1 A1T      0.039700
     60 H482        6.9380    1.7220    9.9700 hc        1 A1T      0.039700
     61 H483        5.2920    2.4790    9.9280 hc        1 A1T      0.039700
     62 H33         3.1350    2.0000    3.9040 h4        1 A1T      0.051100
     63 H24         4.4550   -0.0010   -0.0290 hx        1 A1T      0.091700
     64 H281        3.8670    1.9690   -2.3660 hc        1 A1T      0.075450
     65 H282        4.3050    2.4140   -0.6560 hc        1 A1T      0.075450
     66 H321        6.4740    1.3310   -0.8010 h1        1 A1T      0.051450
     67 H322        6.2690    2.4680   -2.2140 h1        1 A1T      0.051450
     68 H371        8.2600    0.1890   -2.3020 h1        1 A1T      0.052700
     69 H372        7.6550   -0.4980   -3.8840 h1        1 A1T      0.052700
     70 H42         9.9520    1.5910   -2.8310 ha        1 A1T      0.144000
     71 H45        10.8640    3.5450   -4.1140 ha        1 A1T      0.148000
     72 H47         9.4240    4.6050   -5.8990 ha        1 A1T      0.153000
     73 H44         7.1190    3.6500   -6.3130 h4        1 A1T      0.027100
     74 H311        5.8310   -1.5900   -3.1370 h1        1 A1T      0.051450
     75 H312        6.1810   -1.2350   -1.3830 h1        1 A1T      0.051450
     76 H271        3.8050   -1.7930   -1.6800 hc        1 A1T      0.075450
     77 H272        3.6210   -0.5360   -2.9880 hc        1 A1T      0.075450
     78 H211        0.4250    0.0660   -1.1570 hx        1 A1T      0.106200
     79 H212        1.6810   -0.4870   -2.3560 hx        1 A1T      0.106200
     80 H18         2.2280    0.9670   -4.1660 ha        1 A1T      0.139500
     81 H16         1.8690    3.1130   -5.3620 ha        1 A1T      0.158000
     82 H19         0.2470    2.5950   -0.6680 ha        1 A1T      0.139500
     83 H17        -0.0860    4.7480   -1.8590 ha        1 A1T      0.158000
     84 H11         2.6250    5.3250   -5.3280 ha        1 A1T      0.139000
     85 H7          2.2450    7.4480   -6.5770 ha        1 A1T      0.153500
     86 H12        -1.3510    5.6170   -3.6310 ha        1 A1T      0.139000
     87 H8         -1.7190    7.7470   -4.8660 ha        1 A1T      0.153500
     88 H61         0.5260   12.1250   -6.6620 h1        1 A1T      0.060950
     89 H62        -0.4270   11.1130   -7.8490 h1        1 A1T      0.060950
     90 H101       -2.4850   11.3800   -6.5230 hc        1 A1T      0.050950
     91 H102       -1.7410   13.0050   -6.8010 hc        1 A1T      0.050950
     92 H131       -2.5660   12.6420   -4.4180 hc        1 A1T      0.047200
     93 H132       -0.8090   13.0550   -4.5340 hc        1 A1T      0.047200
     94 H91        -1.0680   11.2130   -2.9370 hc        1 A1T      0.050950
     95 H92        -2.0580   10.2570   -4.1120 hc        1 A1T      0.050950
     96 H51         0.9310   11.0680   -4.3270 h1        1 A1T      0.060950
     97 H52         0.2610    9.3950   -4.0590 h1        1 A1T      0.060950
     98 H221        2.3280    1.2690   -0.0480 hn        1 A1T      0.470800
@<TRIPOS>BOND
     1    1    2 2   
     2    2    3 1   
     3    2   14 1   
     4    3    4 ar  
     5    3   13 ar  
     6    4    5 ar  
     7    4   49 1   
     8    5    6 ar  
     9    5   50 1   
    10    6    7 1   
    11    6   12 ar  
    12    7    8 1   
    13    7   51 1   
    14    7   52 1   
    15    8    9 1   
    16    8   53 1   
    17    8   54 1   
    18    9   10 1   
    19    9   55 1   
    20    9   56 1   
    21   10   11 1   
    22   10   57 1   
    23   10   58 1   
    24   11   59 1   
    25   11   60 1   
    26   11   61 1   
    27   12   13 ar  
    28   12   62 1   
    29   14   15 1   
    30   14   28 1   
    31   14   98 1   
    32   15   16 1   
    33   15   27 1   
    34   15   63 1   
    35   16   17 1   
    36   16   64 1   
    37   16   65 1   
    38   17   18 1   
    39   17   66 1   
    40   17   67 1   
    41   18   19 1   
    42   18   26 1   
    43   19   20 1   
    44   19   68 1   
    45   19   69 1   
    46   20   21 ar  
    47   20   25 ar  
    48   21   22 ar  
    49   21   70 1   
    50   22   23 ar  
    51   22   71 1   
    52   23   24 ar  
    53   23   72 1   
    54   24   25 ar  
    55   24   73 1   
    56   26   27 1   
    57   26   74 1   
    58   26   75 1   
    59   27   76 1   
    60   27   77 1   
    61   28   29 1   
    62   28   78 1   
    63   28   79 1   
    64   29   30 ar  
    65   29   32 ar  
    66   30   31 ar  
    67   30   80 1   
    68   31   34 ar  
    69   31   81 1   
    70   32   33 ar  
    71   32   82 1   
    72   33   34 ar  
    73   33   83 1   
    74   34   35 1   
    75   35   36 ar  
    76   35   38 ar  
    77   36   37 ar  
    78   36   84 1   
    79   37   40 ar  
    80   37   85 1   
    81   38   39 ar  
    82   38   86 1   
    83   39   40 ar  
    84   39   87 1   
    85   40   41 1   
    86   41   42 2   
    87   41   43 1   
    88   43   44 1   
    89   43   48 1   
    90   44   45 1   
    91   44   88 1   
    92   44   89 1   
    93   45   46 1   
    94   45   90 1   
    95   45   91 1   
    96   46   47 1   
    97   46   92 1   
    98   46   93 1   
    99   47   48 1   
   100   47   94 1   
   101   47   95 1   
   102   48   96 1   
   103   48   97 1   
@<TRIPOS>SUBSTRUCTURE
     1 A1T         1 TEMP              0 ****  ****    0 ROOT
