@<TRIPOS>MOLECULE
A1T
   97   102     1     0     0
SMALL
bcc


@<TRIPOS>ATOM
      1 O25         1.0320    1.7400   -2.5890 o         1 A1T     -0.594100
      2 C23         0.7960    0.7910   -1.8160 c         1 A1T      0.575600
      3 C26         0.1130    1.0700   -0.4990 ca        1 A1T      0.365800
      4 C30        -1.2820    1.2620   -0.5020 ca        1 A1T     -0.209300
      5 C34        -1.9100    1.6050    0.6960 ca        1 A1T     -0.096000
      6 C36        -1.1410    1.7510    1.8550 ca        1 A1T     -0.178600
      7 C38        -1.7510    2.1140    3.1580 c3        1 A1T     -0.036100
      8 C40        -1.4080    3.5350    3.5660 c3        1 A1T     -0.077400
      9 C43        -2.0100    3.8730    4.9120 c3        1 A1T     -0.080400
     10 C46        -1.6730    5.2910    5.3230 c3        1 A1T     -0.080400
     11 C48        -2.2700    5.6330    6.6640 c3        1 A1T     -0.093100
     12 C33         0.2530    1.5360    1.7500 ca        1 A1T      0.393200
     13 N29         0.8790    1.2010    0.6100 nb        1 A1T     -0.640000
     14 N22         1.0690   -0.5220   -2.1760 n         1 A1T     -0.450800
     15 C24         0.9630   -1.6040   -1.2090 c3        1 A1T      0.108700
     16 C28         2.2630   -1.8970   -0.4420 c3        1 A1T     -0.095400
     17 C32         2.0140   -2.9600    0.6230 c3        1 A1T      0.175300
     18 N35         1.4290   -4.1850    0.0970 n3        1 A1T     -0.733600
     19 C37         1.2240   -5.1990    1.1200 c3        1 A1T      0.127500
     20 C39         2.5160   -5.9180    1.4690 ca        1 A1T      0.410600
     21 C42         3.2770   -5.4520    2.5620 ca        1 A1T     -0.245300
     22 C45         4.4580   -6.1150    2.8950 ca        1 A1T     -0.093000
     23 C47         4.8510   -7.2170    2.1350 ca        1 A1T     -0.247300
     24 C44         4.0290   -7.6120    1.0630 ca        1 A1T      0.396200
     25 N41         2.8860   -6.9880    0.7250 nb        1 A1T     -0.650000
     26 C31         0.2390   -3.9490   -0.7070 c3        1 A1T      0.175300
     27 C27         0.4710   -2.9270   -1.8200 c3        1 A1T     -0.095400
     28 C21         1.7410   -0.7600   -3.4380 c3        1 A1T      0.130300
     29 C20         3.2430   -0.7550   -3.4010 ca        1 A1T     -0.110300
     30 C18         3.9610   -1.9460   -3.5440 ca        1 A1T     -0.116000
     31 C16         5.3540   -1.9290   -3.5620 ca        1 A1T     -0.120000
     32 C19         3.9340    0.4540   -3.2720 ca        1 A1T     -0.116000
     33 C17         5.3260    0.4730   -3.2890 ca        1 A1T     -0.120000
     34 C15         6.0500   -0.7190   -3.4340 cp        1 A1T     -0.042000
     35 C14         7.5110   -0.7000   -3.4530 cp        1 A1T     -0.020000
     36 C11         8.2440   -1.6950   -2.7890 ca        1 A1T     -0.124000
     37 C7          9.6360   -1.6780   -2.8070 ca        1 A1T     -0.100000
     38 C12         8.2000    0.3120   -4.1380 ca        1 A1T     -0.124000
     39 C8          9.5920    0.3330   -4.1540 ca        1 A1T     -0.100000
     40 C4         10.3120   -0.6610   -3.4860 ca        1 A1T     -0.127600
     41 C2         11.8040   -0.6900   -3.5530 c         1 A1T      0.667700
     42 O1         12.3890   -1.5400   -4.2540 o         1 A1T     -0.594100
     43 N3         12.5330    0.1930   -2.7620 n         1 A1T     -0.456800
     44 C6         13.9680    0.3030   -2.9420 c3        1 A1T      0.082000
     45 C10        14.4150    1.6420   -3.5330 c3        1 A1T     -0.102400
     46 C13        13.8210    2.8060   -2.7690 c3        1 A1T     -0.078400
     47 C9         12.3170    2.6750   -2.6550 c3        1 A1T     -0.102400
     48 C5         11.9280    1.3120   -2.0770 c3        1 A1T      0.082000
     49 H30        -1.8540    1.1560   -1.4340 ha        1 A1T      0.155000
     50 H34        -2.9980    1.7640    0.7250 ha        1 A1T      0.144000
     51 H381       -2.8670    2.0030    3.1030 hc        1 A1T      0.051700
     52 H382       -1.3860    1.4030    3.9480 hc        1 A1T      0.051700
     53 H401       -1.7880    4.2510    2.7910 hc        1 A1T      0.047200
     54 H402       -0.2930    3.6530    3.6090 hc        1 A1T      0.047200
     55 H431       -3.1250    3.7500    4.8690 hc        1 A1T      0.040200
     56 H432       -1.6290    3.1570    5.6880 hc        1 A1T      0.040200
     57 H461       -2.0550    6.0050    4.5470 hc        1 A1T      0.040700
     58 H462       -0.5590    5.4130    5.3640 hc        1 A1T      0.040700
     59 H481       -1.8820    4.9480    7.4560 hc        1 A1T      0.033367
     60 H482       -2.0100    6.6820    6.9470 hc        1 A1T      0.033367
     61 H483       -3.3830    5.5420    6.6360 hc        1 A1T      0.033367
     62 H33         0.9030    1.6430    2.6380 h4        1 A1T      0.027100
     63 H24         0.1800   -1.2920   -0.4490 h1        1 A1T      0.056700
     64 H281        2.6340   -0.9700    0.0660 hc        1 A1T      0.062450
     65 H282        3.0540   -2.2410   -1.1590 hc        1 A1T      0.062450
     66 H321        3.0000   -3.2380    1.0930 h1        1 A1T      0.032950
     67 H322        1.3650   -2.5100    1.4340 h1        1 A1T      0.032950
     68 H371        0.4750   -5.9530    0.7430 h1        1 A1T      0.046700
     69 H372        0.8110   -4.7570    2.0750 h1        1 A1T      0.046700
     70 H42         2.9410   -4.5790    3.1370 ha        1 A1T      0.140000
     71 H45         5.0700   -5.7730    3.7420 ha        1 A1T      0.137000
     72 H47         5.7740   -7.7660    2.3600 ha        1 A1T      0.143000
     73 H44         4.2990   -8.4790    0.4340 h4        1 A1T      0.022100
     74 H311       -0.6310   -3.6020   -0.0740 h1        1 A1T      0.032950
     75 H312       -0.0520   -4.9280   -1.1830 h1        1 A1T      0.032950
     76 H271        1.2310   -3.3310   -2.5390 hc        1 A1T      0.062450
     77 H272       -0.4910   -2.7760   -2.3710 hc        1 A1T      0.062450
     78 H211        1.4110    0.0480   -4.1590 h1        1 A1T      0.070200
     79 H212        1.3810   -1.7480   -3.8440 h1        1 A1T      0.070200
     80 H18         3.4260   -2.9040   -3.6410 ha        1 A1T      0.148000
     81 H16         5.9110   -2.8710   -3.6830 ha        1 A1T      0.137000
     82 H19         3.3640    1.3920   -3.1550 ha        1 A1T      0.148000
     83 H17         5.8610    1.4280   -3.1800 ha        1 A1T      0.137000
     84 H11         7.7140   -2.4940   -2.2480 ha        1 A1T      0.141000
     85 H7         10.2060   -2.4690   -2.2950 ha        1 A1T      0.142000
     86 H12         7.6340    1.0900   -4.6730 ha        1 A1T      0.141000
     87 H8         10.1240    1.1280   -4.6980 ha        1 A1T      0.142000
     88 H61        14.3280   -0.5350   -3.6030 h1        1 A1T      0.059950
     89 H62        14.4410    0.1800   -1.9250 h1        1 A1T      0.059950
     90 H101       14.1100    1.7010   -4.6100 hc        1 A1T      0.048700
     91 H102       15.5340    1.6880   -3.4930 hc        1 A1T      0.048700
     92 H131       14.2700    2.8450   -1.7410 hc        1 A1T      0.042200
     93 H132       14.0790    3.7680   -3.2840 hc        1 A1T      0.042200
     94 H91        11.9110    3.4730   -1.9820 hc        1 A1T      0.048700
     95 H92        11.8470    2.8080   -3.6640 hc        1 A1T      0.048700
     96 H51        12.2710    1.2690   -1.0020 h1        1 A1T      0.059950
     97 H52        10.8070    1.2150   -2.0850 h1        1 A1T      0.059950
@<TRIPOS>BOND
     1    1    2 2   
     2    2    3 1   
     3    2   14 1   
     4    3    4 ar  
     5    3   13 ar  
     6    4    5 ar  
     7    4   49 1   
     8    5    6 ar  
     9    5   50 1   
    10    6    7 1   
    11    6   12 ar  
    12    7    8 1   
    13    7   51 1   
    14    7   52 1   
    15    8    9 1   
    16    8   53 1   
    17    8   54 1   
    18    9   10 1   
    19    9   55 1   
    20    9   56 1   
    21   10   11 1   
    22   10   57 1   
    23   10   58 1   
    24   11   59 1   
    25   11   60 1   
    26   11   61 1   
    27   12   13 ar  
    28   12   62 1   
    29   14   15 1   
    30   14   28 1   
    31   15   16 1   
    32   15   27 1   
    33   15   63 1   
    34   16   17 1   
    35   16   64 1   
    36   16   65 1   
    37   17   18 1   
    38   17   66 1   
    39   17   67 1   
    40   18   19 1   
    41   18   26 1   
    42   19   20 1   
    43   19   68 1   
    44   19   69 1   
    45   20   21 ar  
    46   20   25 ar  
    47   21   22 ar  
    48   21   70 1   
    49   22   23 ar  
    50   22   71 1   
    51   23   24 ar  
    52   23   72 1   
    53   24   25 ar  
    54   24   73 1   
    55   26   27 1   
    56   26   74 1   
    57   26   75 1   
    58   27   76 1   
    59   27   77 1   
    60   28   29 1   
    61   28   78 1   
    62   28   79 1   
    63   29   30 ar  
    64   29   32 ar  
    65   30   31 ar  
    66   30   80 1   
    67   31   34 ar  
    68   31   81 1   
    69   32   33 ar  
    70   32   82 1   
    71   33   34 ar  
    72   33   83 1   
    73   34   35 1   
    74   35   36 ar  
    75   35   38 ar  
    76   36   37 ar  
    77   36   84 1   
    78   37   40 ar  
    79   37   85 1   
    80   38   39 ar  
    81   38   86 1   
    82   39   40 ar  
    83   39   87 1   
    84   40   41 1   
    85   41   42 2   
    86   41   43 1   
    87   43   44 1   
    88   43   48 1   
    89   44   45 1   
    90   44   88 1   
    91   44   89 1   
    92   45   46 1   
    93   45   90 1   
    94   45   91 1   
    95   46   47 1   
    96   46   92 1   
    97   46   93 1   
    98   47   48 1   
    99   47   94 1   
   100   47   95 1   
   101   48   96 1   
   102   48   97 1   
@<TRIPOS>SUBSTRUCTURE
     1 A1T         1 TEMP              0 ****  ****    0 ROOT
