@<TRIPOS>MOLECULE
A1T
   98   103     1     0     0
SMALL
bcc


@<TRIPOS>ATOM
      1 O25         1.8760   -1.8600   -0.0650 o         1 A1T     -0.442100
      2 C23         2.1870   -0.7750    0.4150 c         1 A1T      0.465600
      3 C26         2.3260   -0.4920    1.8630 ca        1 A1T      0.277800
      4 C30         2.0630   -1.5500    2.7540 ca        1 A1T     -0.133300
      5 C34         2.1870   -1.3090    4.1290 ca        1 A1T     -0.108000
      6 C36         2.5640   -0.0430    4.5730 ca        1 A1T     -0.102600
      7 C38         2.7030    0.2790    6.0150 c3        1 A1T     -0.058100
      8 C40         4.1480    0.5430    6.4000 c3        1 A1T     -0.075400
      9 C43         4.2530    0.9110    7.8650 c3        1 A1T     -0.081400
     10 C46         5.6910    1.1710    8.2610 c3        1 A1T     -0.078400
     11 C48         5.8020    1.5380    9.7180 c3        1 A1T     -0.095100
     12 C33         2.8070    0.9610    3.5900 ca        1 A1T      0.408200
     13 N29         2.6950    0.7550    2.2780 nb        1 A1T     -0.669000
     14 N22         2.4550    0.3580   -0.5500 nx        1 A1T     -0.583200
     15 C24         3.9090    0.2890   -0.9790 c3        1 A1T      0.139500
     16 C28         4.4380    1.6470   -1.4500 c3        1 A1T     -0.099400
     17 C32         5.9320    1.5220   -1.7620 c3        1 A1T      0.177800
     18 N35         6.2120    0.4750   -2.7280 n3        1 A1T     -0.732600
     19 C37         7.5980    0.4240   -3.1600 c3        1 A1T      0.135500
     20 C39         8.0800    1.6620   -3.8890 ca        1 A1T      0.383600
     21 C42         9.3710    2.1410   -3.5790 ca        1 A1T     -0.241300
     22 C45         9.8730    3.2350   -4.2870 ca        1 A1T     -0.088000
     23 C47         9.0820    3.8220   -5.2740 ca        1 A1T     -0.234300
     24 C44         7.8040    3.2790   -5.5110 ca        1 A1T      0.392200
     25 N41         7.3010    2.2250   -4.8450 nb        1 A1T     -0.649000
     26 C31         5.6990   -0.8190   -2.3110 c3        1 A1T      0.177800
     27 C27         4.1910   -0.7720   -2.0440 c3        1 A1T     -0.099400
     28 C21         1.4390    0.3290   -1.6610 c3        1 A1T      0.176100
     29 C20         1.2900    1.6390   -2.3520 ca        1 A1T     -0.175300
     30 C18         1.7470    1.8020   -3.6650 ca        1 A1T     -0.101500
     31 C16         1.5420    3.0070   -4.3310 ca        1 A1T     -0.117000
     32 C19         0.6280    2.6950   -1.7120 ca        1 A1T     -0.101500
     33 C17         0.4260    3.9000   -2.3770 ca        1 A1T     -0.117000
     34 C15         0.8810    4.0690   -3.6950 cp        1 A1T      0.018000
     35 C14         0.6630    5.3310   -4.3990 cp        1 A1T     -0.063000
     36 C11         1.6680    5.8660   -5.2180 ca        1 A1T     -0.112500
     37 C7          1.4550    7.0590   -5.9050 ca        1 A1T     -0.097500
     38 C12        -0.5570    6.0110   -4.2730 ca        1 A1T     -0.112500
     39 C8         -0.7710    7.2030   -4.9610 ca        1 A1T     -0.097500
     40 C4          0.2340    7.7280   -5.7780 ca        1 A1T     -0.102600
     41 C2         -0.0130    8.9540   -6.5990 c         1 A1T      0.659700
     42 O1         -0.1900    8.8470   -7.8290 o         1 A1T     -0.583100
     43 N3          0.0420   10.2000   -5.9900 n         1 A1T     -0.450800
     44 C6         -0.3500   11.3820   -6.7370 c3        1 A1T      0.080500
     45 C10        -1.6500   12.0200   -6.2430 c3        1 A1T     -0.102400
     46 C13        -1.6180   12.2470   -4.7460 c3        1 A1T     -0.079400
     47 C9         -1.2590   10.9750   -4.0070 c3        1 A1T     -0.102400
     48 C5          0.0370   10.3700   -4.5540 c3        1 A1T      0.080500
     49 H30         1.7670   -2.5420    2.3750 ha        1 A1T      0.179000
     50 H34         1.9860   -2.1210    4.8470 ha        1 A1T      0.173000
     51 H381        2.0830    1.1890    6.2480 hc        1 A1T      0.072200
     52 H382        2.3010   -0.5650    6.6380 hc        1 A1T      0.072200
     53 H401        4.7670   -0.3690    6.1960 hc        1 A1T      0.046200
     54 H402        4.5600    1.3760    5.7710 hc        1 A1T      0.046200
     55 H431        3.6350    1.8250    8.0710 hc        1 A1T      0.047200
     56 H432        3.8360    0.0800    8.4930 hc        1 A1T      0.047200
     57 H461        6.3080    0.2570    8.0540 hc        1 A1T      0.040200
     58 H462        6.1080    2.0010    7.6300 hc        1 A1T      0.040200
     59 H481        5.4140    0.7140   10.3640 hc        1 A1T      0.039700
     60 H482        6.8690    1.7260    9.9890 hc        1 A1T      0.039700
     61 H483        5.2140    2.4620    9.9390 hc        1 A1T      0.039700
     62 H33         3.1070    1.9810    3.8990 h4        1 A1T      0.051100
     63 H24         4.4750    0.0070   -0.0360 hx        1 A1T      0.091700
     64 H281        4.3090    2.4230   -0.6520 hc        1 A1T      0.075450
     65 H282        3.8840    1.9820   -2.3670 hc        1 A1T      0.075450
     66 H321        6.2810    2.5010   -2.1990 h1        1 A1T      0.051450
     67 H322        6.4870    1.3590   -0.7900 h1        1 A1T      0.051450
     68 H371        7.7010   -0.4460   -3.8750 h1        1 A1T      0.052700
     69 H372        8.2920    0.2390   -2.2860 h1        1 A1T      0.052700
     70 H42         9.9750    1.6570   -2.8000 ha        1 A1T      0.144000
     71 H45        10.8790    3.6240   -4.0690 ha        1 A1T      0.148000
     72 H47         9.4390    4.6810   -5.8570 ha        1 A1T      0.153000
     73 H44         7.1440    3.7090   -6.2870 h4        1 A1T      0.027100
     74 H311        5.8820   -1.5560   -3.1430 h1        1 A1T      0.051450
     75 H312        6.2200   -1.2060   -1.3850 h1        1 A1T      0.051450
     76 H271        3.8500   -1.7830   -1.6990 hc        1 A1T      0.075450
     77 H272        3.6630   -0.5220   -3.0010 hc        1 A1T      0.075450
     78 H211        1.7190   -0.4920   -2.3810 hx        1 A1T      0.106200
     79 H212        0.4520    0.0450   -1.1860 hx        1 A1T      0.106200
     80 H18         2.2630    0.9760   -4.1810 ha        1 A1T      0.139500
     81 H16         1.8930    3.1250   -5.3690 ha        1 A1T      0.158000
     82 H19         0.2500    2.5700   -0.6860 ha        1 A1T      0.139500
     83 H17        -0.0940    4.7270   -1.8690 ha        1 A1T      0.158000
     84 H11         2.6310    5.3420   -5.3200 ha        1 A1T      0.139000
     85 H7          2.2400    7.4690   -6.5600 ha        1 A1T      0.153500
     86 H12        -1.3570    5.5940   -3.6430 ha        1 A1T      0.139000
     87 H8         -1.7350    7.7270   -4.8690 ha        1 A1T      0.153500
     88 H61         0.4870   12.1320   -6.6320 h1        1 A1T      0.060950
     89 H62        -0.4550   11.1180   -7.8270 h1        1 A1T      0.060950
     90 H101       -2.5200   11.3650   -6.5080 hc        1 A1T      0.050950
     91 H102       -1.7860   12.9960   -6.7750 hc        1 A1T      0.050950
     92 H131       -2.6170   12.6160   -4.3980 hc        1 A1T      0.047200
     93 H132       -0.8630   13.0420   -4.5050 hc        1 A1T      0.047200
     94 H91        -1.1160   11.1900   -2.9180 hc        1 A1T      0.050950
     95 H92        -2.0940   10.2330   -4.1020 hc        1 A1T      0.050950
     96 H51         0.2300    9.3870   -4.0440 h1        1 A1T      0.060950
     97 H52         0.8900   11.0660   -4.3000 h1        1 A1T      0.060950
     98 H221        2.3380    1.2600   -0.0610 hn        1 A1T      0.470800
@<TRIPOS>BOND
     1    1    2 2   
     2    2    3 1   
     3    2   14 1   
     4    3    4 ar  
     5    3   13 ar  
     6    4    5 ar  
     7    4   49 1   
     8    5    6 ar  
     9    5   50 1   
    10    6    7 1   
    11    6   12 ar  
    12    7    8 1   
    13    7   51 1   
    14    7   52 1   
    15    8    9 1   
    16    8   53 1   
    17    8   54 1   
    18    9   10 1   
    19    9   55 1   
    20    9   56 1   
    21   10   11 1   
    22   10   57 1   
    23   10   58 1   
    24   11   59 1   
    25   11   60 1   
    26   11   61 1   
    27   12   13 ar  
    28   12   62 1   
    29   14   15 1   
    30   14   28 1   
    31   14   98 1   
    32   15   16 1   
    33   15   27 1   
    34   15   63 1   
    35   16   17 1   
    36   16   64 1   
    37   16   65 1   
    38   17   18 1   
    39   17   66 1   
    40   17   67 1   
    41   18   19 1   
    42   18   26 1   
    43   19   20 1   
    44   19   68 1   
    45   19   69 1   
    46   20   21 ar  
    47   20   25 ar  
    48   21   22 ar  
    49   21   70 1   
    50   22   23 ar  
    51   22   71 1   
    52   23   24 ar  
    53   23   72 1   
    54   24   25 ar  
    55   24   73 1   
    56   26   27 1   
    57   26   74 1   
    58   26   75 1   
    59   27   76 1   
    60   27   77 1   
    61   28   29 1   
    62   28   78 1   
    63   28   79 1   
    64   29   30 ar  
    65   29   32 ar  
    66   30   31 ar  
    67   30   80 1   
    68   31   34 ar  
    69   31   81 1   
    70   32   33 ar  
    71   32   82 1   
    72   33   34 ar  
    73   33   83 1   
    74   34   35 1   
    75   35   36 ar  
    76   35   38 ar  
    77   36   37 ar  
    78   36   84 1   
    79   37   40 ar  
    80   37   85 1   
    81   38   39 ar  
    82   38   86 1   
    83   39   40 ar  
    84   39   87 1   
    85   40   41 1   
    86   41   42 2   
    87   41   43 1   
    88   43   44 1   
    89   43   48 1   
    90   44   45 1   
    91   44   88 1   
    92   44   89 1   
    93   45   46 1   
    94   45   90 1   
    95   45   91 1   
    96   46   47 1   
    97   46   92 1   
    98   46   93 1   
    99   47   48 1   
   100   47   94 1   
   101   47   95 1   
   102   48   96 1   
   103   48   97 1   
@<TRIPOS>SUBSTRUCTURE
     1 A1T         1 TEMP              0 ****  ****    0 ROOT
