@<TRIPOS>MOLECULE
A1X
   38    36     1     0     0
SMALL
bcc


@<TRIPOS>ATOM
      1 OAE      -269.8610  852.9950 -520.6570 o         1 A1X     -0.250000
      2 CAD      -269.6560  854.1910 -520.8180 c2        1 A1X      0.253000
      3 OAC      -268.5910  854.7990 -520.2210 os        1 A1X     -0.358000
      4 CAB      -267.7380  853.9570 -519.3960 c3        1 A1X     -0.001000
      5 CAA      -266.5900  854.8260 -518.9550 c3        1 A1X     -0.233000
      6 CAF      -270.5040  855.1540 -521.6340 c3        1 A1X      0.047000
      7 OAJ      -271.6590  855.5160 -520.9090 oh        1 A1X     -0.324000
      8 CAG      -269.7650  856.4730 -521.9280 c3        1 A1X     -0.150000
      9 CAH      -269.3440  857.1110 -520.7100 c1        1 A1X      0.472000
     10 OAI      -269.0090  857.6250 -519.7330 o         1 A1X      0.125000
     11 NAK       275.5840 -859.8630  523.4800 n7        1 A1X     -0.211000
     12 NAL       276.5190 -860.5570  524.2690 nz        1 A1X     -0.009000
     13 CAN       275.5520 -858.4060  523.6390 c3        1 A1X     -0.137000
     14 CAO       274.7470 -857.8510  524.8170 c3        1 A1X     -0.145000
     15 CAP       275.2830 -858.3210  526.1510 c3        1 A1X     -0.226500
     16 CAM       274.7700 -856.3370  524.7370 c3        1 A1X     -0.226500
     17 HAB      -267.4010  853.0870 -520.0190 h1        1 A1X      0.118500
     18 HABA     -268.3550  853.5890 -518.5350 h1        1 A1X      0.118500
     19 HAA      -266.9540  855.7130 -518.3830 hc        1 A1X      0.101333
     20 HAAA     -265.9950  855.1810 -519.8300 hc        1 A1X      0.101333
     21 HAAB     -265.9230  854.2210 -518.2900 hc        1 A1X      0.101333
     22 HAF      -270.7640  854.6630 -522.6180 h1        1 A1X      0.173000
     23 HOAJ     -272.2470  854.7440 -520.8670 ho        1 A1X      0.272000
     24 HAG      -268.8510  856.2620 -522.5640 hc        1 A1X      0.217500
     25 HAGA     -270.4590  857.1730 -522.4890 hc        1 A1X      0.217500
     26 HNAL      276.4140 -860.4210  525.2900 hn        1 A1X      0.261000
     27 HNAA      276.4430 -861.5620  524.0420 hn        1 A1X      0.261000
     28 HAN       276.5990 -857.9900  523.6630 h1        1 A1X      0.149000
     29 HANA      275.0740 -858.0630  522.6690 h1        1 A1X      0.149000
     30 HAO       273.6750 -858.1910  524.7200 hc        1 A1X      0.113000
     31 HAP       274.8560 -857.6920  526.9730 hc        1 A1X      0.092000
     32 HAPA      276.3950 -858.2260  526.1980 hc        1 A1X      0.092000
     33 HAPB      274.9860 -859.3780  526.3600 hc        1 A1X      0.092000
     34 HAM       274.3900 -855.9900  523.7460 hc        1 A1X      0.092000
     35 HAMA      275.8070 -855.9480  524.8800 hc        1 A1X      0.092000
     36 HAMB      274.1180 -855.9050  525.5350 hc        1 A1X      0.092000
     37 HAK1      274.6560 -860.2400  523.6710 hn        1 A1X      0.209000
     38 HAL3      277.4590 -860.2300  523.9880 hn        1 A1X      0.261000
@<TRIPOS>BOND
     1    1    2 1   
     2    2    3 1   
     3    2    6 1   
     4    3    4 1   
     5    4    5 1   
     6    4   17 1   
     7    4   18 1   
     8    5   19 1   
     9    5   20 1   
    10    5   21 1   
    11    6    7 1   
    12    6    8 1   
    13    6   22 1   
    14    7   23 1   
    15    8    9 1   
    16    8   24 1   
    17    8   25 1   
    18    9   10 1   
    19   11   12 1   
    20   11   13 1   
    21   11   37 1   
    22   12   26 1   
    23   12   27 1   
    24   12   38 1   
    25   13   14 1   
    26   13   28 1   
    27   13   29 1   
    28   14   15 1   
    29   14   16 1   
    30   14   30 1   
    31   15   31 1   
    32   15   32 1   
    33   15   33 1   
    34   16   34 1   
    35   16   35 1   
    36   16   36 1   
@<TRIPOS>SUBSTRUCTURE
     1 A1X         1 TEMP              0 ****  ****    0 ROOT
