@<TRIPOS>MOLECULE
A1X
   36    35     1     0     0
SMALL
bcc


@<TRIPOS>ATOM
      1 OAE         3.5150   -0.6950    1.6550 o         1 A1X     -0.546000
      2 CAD         2.8200   -0.4820    0.6580 c         1 A1X      0.596100
      3 OAC         3.3440    0.2150   -0.3860 os        1 A1X     -0.429900
      4 CAB         4.7140    0.6420   -0.2520 c3        1 A1X      0.137400
      5 CAA         5.0580    1.3570   -1.5350 c3        1 A1X     -0.101100
      6 CAF         1.3850   -0.9240    0.4420 c3        1 A1X      0.103100
      7 OAJ         1.1250   -2.0770    1.2120 oh        1 A1X     -0.572800
      8 CAG         0.4460    0.2270    0.8060 c3        1 A1X     -0.163400
      9 CAH        -0.7980    0.2200   -0.0560 c         1 A1X      0.687100
     10 OAI        -0.9030   -0.4980   -1.0670 o         1 A1X     -0.594100
     11 NAK        -1.8360    1.1360    0.2370 n         1 A1X     -0.370200
     12 NAL        -1.8200    1.7860    1.4400 n3        1 A1X     -0.638800
     13 CAN        -3.0750    1.0110   -0.5310 c3        1 A1X      0.068000
     14 CAO        -3.9790   -0.1770   -0.1760 c3        1 A1X     -0.097700
     15 CAP        -4.4980   -0.1060    1.2420 c3        1 A1X     -0.092600
     16 CAM        -5.1300   -0.2140   -1.1600 c3        1 A1X     -0.092600
     17 HAB         4.7920    1.3160    0.6410 h1        1 A1X      0.053200
     18 HABA        5.3560   -0.2620   -0.0880 h1        1 A1X      0.053200
     19 HAA         4.3880    2.2380   -1.6860 hc        1 A1X      0.050033
     20 HAAA        6.1170    1.7060   -1.4830 hc        1 A1X      0.050033
     21 HAAB        4.9400    0.6730   -2.4090 hc        1 A1X      0.050033
     22 HAF         1.2340   -1.2510   -0.6300 h1        1 A1X      0.140700
     23 HOAJ        1.4160   -1.9030    2.1190 ho        1 A1X      0.416000
     24 HAG         0.1680    0.1430    1.8900 hc        1 A1X      0.090200
     25 HAGA        0.9650    1.2110    0.6530 hc        1 A1X      0.090200
     26 HNAL       -1.9370    2.7770    1.2560 hn        1 A1X      0.347300
     27 HNAA       -2.6110    1.4940    2.0040 hn        1 A1X      0.347300
     28 HAN        -3.6620    1.9660   -0.4190 h1        1 A1X      0.063700
     29 HANA       -2.7710    0.9070   -1.6120 h1        1 A1X      0.063700
     30 HAO        -3.3760   -1.1230   -0.2960 hc        1 A1X      0.076700
     31 HAP        -4.8890    0.9140    1.4730 hc        1 A1X      0.036200
     32 HAPA       -5.3310   -0.8380    1.3840 hc        1 A1X      0.036200
     33 HAPB       -3.6940   -0.3610    1.9750 hc        1 A1X      0.036200
     34 HAM        -4.7480   -0.2830   -2.2070 hc        1 A1X      0.036200
     35 HAMA       -5.7760   -1.1030   -0.9610 hc        1 A1X      0.036200
     36 HAMB       -5.7570    0.7050   -1.0690 hc        1 A1X      0.036200
@<TRIPOS>BOND
     1    1    2 2   
     2    2    3 1   
     3    2    6 1   
     4    3    4 1   
     5    4    5 1   
     6    4   17 1   
     7    4   18 1   
     8    5   19 1   
     9    5   20 1   
    10    5   21 1   
    11    6    7 1   
    12    6    8 1   
    13    6   22 1   
    14    7   23 1   
    15    8    9 1   
    16    8   24 1   
    17    8   25 1   
    18    9   10 2   
    19    9   11 1   
    20   11   12 1   
    21   11   13 1   
    22   12   26 1   
    23   12   27 1   
    24   13   14 1   
    25   13   28 1   
    26   13   29 1   
    27   14   15 1   
    28   14   16 1   
    29   14   30 1   
    30   15   31 1   
    31   15   32 1   
    32   15   33 1   
    33   16   34 1   
    34   16   35 1   
    35   16   36 1   
@<TRIPOS>SUBSTRUCTURE
     1 A1X         1 TEMP              0 ****  ****    0 ROOT
