@<TRIPOS>MOLECULE
A1X
   36    34     1     0     0
SMALL
bcc


@<TRIPOS>ATOM
      1 OAE        -2.0120   -1.4570   -2.8740 o         1 A1X     -0.358000
      2 CAD        -1.0610   -2.0170   -2.3690 c1        1 A1X      0.308000
      3 OAC        -0.9260   -3.4220   -2.4810 o         1 A1X     -0.256000
      4 CAB        -1.7760   -4.0070   -3.4580 c3        1 A1X     -0.013000
      5 CAA        -1.4810   -5.4840   -3.5630 c3        1 A1X     -0.219000
      6 CAF         0.0370   -1.1990   -1.6990 c3        1 A1X      0.063000
      7 OAJ         0.5700   -0.2920   -2.6200 oh        1 A1X     -0.312000
      8 CAG        -0.5450   -0.4400   -0.5190 c3        1 A1X     -0.228000
      9 CAH         0.5370    0.4740    0.0870 c2        1 A1X      0.277000
     10 OAI         1.5830    0.6630   -0.5130 o         1 A1X     -0.374000
     11 NAK         0.2940    1.1470    1.3420 n         1 A1X     -0.280000
     12 NAL        -0.0950    0.4160    2.4580 n3        1 A1X     -0.181000
     13 CAN         0.4980    2.5760    1.4490 c3        1 A1X      0.000000
     14 CAO         1.1530    2.8990    2.7990 c3        1 A1X     -0.134000
     15 CAP         0.1860    3.7110    3.6490 c3        1 A1X     -0.205500
     16 CAM         2.4240    3.7050    2.5680 c3        1 A1X     -0.205500
     17 HAB        -1.6190   -3.5810   -4.3230 h1        1 A1X      0.092000
     18 HABA       -2.7130   -3.8790   -3.1960 h1        1 A1X      0.092000
     19 HAA        -1.4110   -5.8680   -2.6640 hc        1 A1X      0.089333
     20 HAAA       -2.2060   -5.9280   -4.0530 hc        1 A1X      0.089333
     21 HAAB       -0.6380   -5.6150   -4.0400 hc        1 A1X      0.089333
     22 HAF         0.7440   -1.7970   -1.3850 h1        1 A1X      0.119000
     23 HOAJ        1.0210   -0.7370   -3.2470 ho        1 A1X      0.239000
     24 HAG        -1.2970    0.1020   -0.8200 hc        1 A1X      0.129500
     25 HAGA       -0.8500   -1.0740    0.1560 hc        1 A1X      0.129500
     26 HNAL       -0.9690    0.1550    2.3640 hn        1 A1X      0.139500
     27 HNAA        0.4390   -0.3260    2.5390 hn        1 A1X      0.139500
     28 HAN        -0.3660    3.0350    1.3870 h1        1 A1X      0.109500
     29 HANA        1.0810    2.8770    0.7210 h1        1 A1X      0.109500
     30 HAO         1.3730    2.0720    3.2590 hc        1 A1X      0.100000
     31 HAP        -0.0290    4.5510    3.1890 hc        1 A1X      0.074667
     32 HAPA       -0.6360    3.1960    3.7910 hc        1 A1X      0.074667
     33 HAPB        0.6010    3.9100    4.5160 hc        1 A1X      0.074667
     34 HAM         3.0880    3.1440    2.1120 hc        1 A1X      0.074667
     35 HAMA        2.7830    4.0020    3.4290 hc        1 A1X      0.074667
     36 HAMB        2.2190    4.4870    2.0110 hc        1 A1X      0.074667
@<TRIPOS>BOND
     1    1    2 1   
     2    2    6 1   
     3    3    4 1   
     4    4    5 1   
     5    4   17 1   
     6    4   18 1   
     7    5   19 1   
     8    5   20 1   
     9    5   21 1   
    10    6    7 1   
    11    6    8 1   
    12    6   22 1   
    13    7   23 1   
    14    8    9 1   
    15    8   24 1   
    16    8   25 1   
    17    9   10 1   
    18    9   11 1   
    19   11   12 1   
    20   11   13 1   
    21   12   26 1   
    22   12   27 1   
    23   13   14 1   
    24   13   28 1   
    25   13   29 1   
    26   14   15 1   
    27   14   16 1   
    28   14   30 1   
    29   15   31 1   
    30   15   32 1   
    31   15   33 1   
    32   16   34 1   
    33   16   35 1   
    34   16   36 1   
@<TRIPOS>SUBSTRUCTURE
     1 A1X         1 TEMP              0 ****  ****    0 ROOT
