@<TRIPOS>MOLECULE
A1X
   38    36     1     0     0
SMALL
bcc


@<TRIPOS>ATOM
      1 OAE      -180.7980  464.5340 -305.4170 o         1 A1X     -0.284000
      2 CAD      -181.3190  465.0570 -306.3980 c2        1 A1X      0.268000
      3 OAC      -182.0380  464.3580 -307.3040 os        1 A1X     -0.286000
      4 CAB      -182.2440  462.9430 -307.0550 c3        1 A1X     -0.007000
      5 CAA      -181.0390  462.1460 -307.4790 c3        1 A1X     -0.253000
      6 CAF      -181.2460  466.5420 -306.7090 c3        1 A1X      0.045000
      7 OAJ      -180.1000  467.1440 -306.1480 oh        1 A1X     -0.351000
      8 CAG      -181.1480  466.7600 -308.2340 c3        1 A1X     -0.170000
      9 CAH      -180.6290  468.0650 -308.5230 c1        1 A1X      0.461000
     10 OAI      -180.1970  469.1110 -308.7500 o         1 A1X      0.130000
     11 NAK       187.0440 -470.0020  311.1840 n3        1 A1X     -0.211000
     12 NAL       188.1750 -470.6430  311.7230 n4        1 A1X     -0.009000
     13 CAN       187.2670 -468.6790  310.5910 c3        1 A1X     -0.137000
     14 CAO       187.3060 -467.4850  311.5480 c3        1 A1X     -0.145000
     15 CAP       188.4290 -467.5920  312.5550 c3        1 A1X     -0.226500
     16 CAM       187.4490 -466.2200  310.7230 c3        1 A1X     -0.226500
     17 HAB      -183.1440  462.7260 -307.6910 h1        1 A1X      0.124500
     18 HABA     -182.4790  462.7920 -305.9690 h1        1 A1X      0.124500
     19 HAA      -180.7840  462.3440 -308.5470 hc        1 A1X      0.102000
     20 HAAA     -181.2620  461.0570 -307.3610 hc        1 A1X      0.102000
     21 HAAB     -180.1560  462.4000 -306.8430 hc        1 A1X      0.102000
     22 HAF      -182.1730  467.0420 -306.3000 h1        1 A1X      0.154000
     23 HOAJ     -179.8560  466.6720 -305.3310 ho        1 A1X      0.286000
     24 HAG      -182.1720  466.6220 -308.7020 hc        1 A1X      0.225000
     25 HAGA     -180.4560  465.9850 -308.6930 hc        1 A1X      0.225000
     26 HNAL      187.8760 -471.5630  312.0840 hn        1 A1X      0.261000
     27 HNAA      188.6600 -470.1160  312.4700 hn        1 A1X      0.261000
     28 HAN       188.1950 -468.6870  309.9520 h1        1 A1X      0.149000
     29 HANA      186.3780 -468.5690  309.8960 h1        1 A1X      0.149000
     30 HAO       186.3260 -467.4310  312.1050 hc        1 A1X      0.113000
     31 HAP       188.5950 -466.5980  313.0440 hc        1 A1X      0.092000
     32 HAPA      188.1800 -468.3180  313.3680 hc        1 A1X      0.092000
     33 HAPB      189.3870 -467.8900  312.0650 hc        1 A1X      0.092000
     34 HAM       186.6290 -466.1490  309.9680 hc        1 A1X      0.092000
     35 HAMA      187.3920 -465.3240  311.3890 hc        1 A1X      0.092000
     36 HAMB      188.4300 -466.2020  310.1910 hc        1 A1X      0.092000
     37 HAK1      186.3370 -469.9260  311.9140 hn        1 A1X      0.209000
     38 HAL3      188.8390 -470.7980  310.9450 hn        1 A1X      0.261000
@<TRIPOS>BOND
     1    1    2 1   
     2    2    3 1   
     3    2    6 1   
     4    3    4 1   
     5    4    5 1   
     6    4   17 1   
     7    4   18 1   
     8    5   19 1   
     9    5   20 1   
    10    5   21 1   
    11    6    7 1   
    12    6    8 1   
    13    6   22 1   
    14    7   23 1   
    15    8    9 1   
    16    8   24 1   
    17    8   25 1   
    18    9   10 1   
    19   11   12 1   
    20   11   13 1   
    21   11   37 1   
    22   12   26 1   
    23   12   27 1   
    24   12   38 1   
    25   13   14 1   
    26   13   28 1   
    27   13   29 1   
    28   14   15 1   
    29   14   16 1   
    30   14   30 1   
    31   15   31 1   
    32   15   32 1   
    33   15   33 1   
    34   16   34 1   
    35   16   35 1   
    36   16   36 1   
@<TRIPOS>SUBSTRUCTURE
     1 A1X         1 TEMP              0 ****  ****    0 ROOT
