@<TRIPOS>MOLECULE
A20
   16    15     1     0     0
SMALL
bcc


@<TRIPOS>ATOM
      1 OAD         1.2560    0.8830    1.0530 o         1 A20     -0.752867
      2 SAH         1.2500    0.0740   -0.1100 s6        1 A20      1.426800
      3 OAB         1.2190    0.8120   -1.3180 o         1 A20     -0.752867
      4 OAC         2.2190   -0.9580   -0.0940 o         1 A20     -0.752867
      5 CAG        -0.3040   -0.7990   -0.0600 c3        1 A20     -0.287600
      6 CAF        -1.4780    0.1340   -0.0700 c3        1 A20     -0.075400
      7 CAE        -2.8020   -0.6260   -0.0270 c3        1 A20      0.141800
      8 NAA        -4.0030    0.1810   -0.0320 n3        1 A20     -0.909800
      9 H1         -0.3550   -1.4880   -0.9350 h1        1 A20      0.062700
     10 H2         -0.3270   -1.4350    0.8570 h1        1 A20      0.062700
     11 H3         -1.4060    0.8230    0.8150 hc        1 A20      0.046700
     12 H4         -1.4330    0.7690   -0.9950 hc        1 A20      0.046700
     13 H5         -2.8520   -1.3190   -0.9130 h1        1 A20      0.040700
     14 H6         -2.8240   -1.2650    0.9010 h1        1 A20      0.040700
     15 H7         -4.0040    0.7970    0.7590 hn        1 A20      0.330800
     16 H8         -4.0280    0.7490   -0.8580 hn        1 A20      0.330800
@<TRIPOS>BOND
     1    1    2 1   
     2    2    3 1   
     3    2    4 1   
     4    2    5 1   
     5    5    6 1   
     6    5    9 1   
     7    5   10 1   
     8    6    7 1   
     9    6   11 1   
    10    6   12 1   
    11    7    8 1   
    12    7   13 1   
    13    7   14 1   
    14    8   15 1   
    15    8   16 1   
@<TRIPOS>SUBSTRUCTURE
     1 A20         1 TEMP              0 ****  ****    0 ROOT
