@<TRIPOS>MOLECULE
A20
   16    13     1     0     0
SMALL
bcc


@<TRIPOS>ATOM
      1 OAD        -3.2720   -1.5850    0.7540 o         1 A20     -1.075500
      2 SAH        -1.7620   -1.5850    0.7540 ss        1 A20      2.856000
      3 OAB        -1.4690   -1.5850    2.2350 o         1 A20     -1.075500
      4 OAC        -1.2140   -2.8240    0.0860 os        1 A20     -1.076000
      5 CAG        -1.1190   -0.1300   -0.0300 c2        1 A20     -0.827000
      6 CAF         0.3890   -0.1180    0.0900 c3        1 A20     -0.154000
      7 CAE         0.9380    1.1240   -0.5770 c3        1 A20     -0.095000
      8 NAA         2.3590    1.1350   -0.4650 n3        1 A20     -0.342000
      9 H1         -1.4860    0.6630    0.4050 ha        1 A20      0.102000
     10 H2         -1.3700   -0.1300   -0.9730 ha        1 A20      0.102000
     11 H3          0.7570   -0.9100   -0.3450 hc        1 A20      0.086000
     12 H4          0.6400   -0.1190    1.0330 hc        1 A20      0.086000
     13 H5          0.5710    1.9170   -0.1410 h1        1 A20      0.080000
     14 H6          0.6860    1.1250   -1.5200 h1        1 A20      0.080000
     15 H7          2.6230    1.8800   -0.0090 hn        1 A20      0.126000
     16 H8          2.7300    1.1410   -1.2980 hn        1 A20      0.126000
@<TRIPOS>BOND
     1    1    2 1   
     2    2    3 1   
     3    5    6 1   
     4    5    9 1   
     5    5   10 1   
     6    6    7 1   
     7    6   11 1   
     8    6   12 1   
     9    7    8 1   
    10    7   13 1   
    11    7   14 1   
    12    8   15 1   
    13    8   16 1   
@<TRIPOS>SUBSTRUCTURE
     1 A20         1 TEMP              0 ****  ****    0 ROOT
