@<TRIPOS>MOLECULE
A21
   33    32     1     0     0
SMALL
bcc


@<TRIPOS>ATOM
      1 F3         -5.5070   -0.1270   -1.4600 f         1 A21     -0.152667
      2 C2         -4.3140   -0.6940   -1.1520 c3        1 A21      0.444000
      3 F4         -4.5070   -1.9570   -0.7850 f         1 A21     -0.152667
      4 F1         -3.5340   -0.6610   -2.1950 f         1 A21     -0.152667
      5 C8         -3.6680    0.0670   -0.0120 c3        1 A21     -0.284000
      6 C13        -3.1790    1.6660   -0.3270 c2        1 A21      0.281000
      7 O2         -3.8430    2.5130   -0.7390 o         1 A21     -0.240000
      8 N2         -1.6030    1.6060   -0.3940 n2        1 A21     -0.284000
      9 C4         -4.7460   -0.1040    1.0410 c3        1 A21     -0.206000
     10 S1         -2.1010   -0.6640    0.3140 ss        1 A21      0.158000
     11 C11        -1.0720    0.4360   -0.1010 c2        1 A21      0.078000
     12 N3          0.2940    0.3560    0.3520 n3        1 A21     -0.285000
     13 C1          1.3290    0.4100   -0.5600 c3        1 A21      0.071000
     14 C3          1.6960    1.8650   -0.8310 c3        1 A21     -0.229000
     15 C6          2.5590   -0.3250    0.0090 c2        1 A21     -0.142000
     16 C18         3.1410   -1.3320   -0.7100 c2        1 A21      0.113000
     17 F2          2.6840   -1.6250   -1.9310 f         1 A21     -0.096000
     18 C22         3.1450    0.1080    1.2400 c1        1 A21     -0.102000
     19 C21         4.3080   -0.4960    1.7080 c1        1 A21     -0.118000
     20 C9          4.8960   -1.5110    0.9850 c1        1 A21     -0.118000
     21 C19         4.3130   -1.9410   -0.2400 c1        1 A21     -0.164000
     22 H4         -4.9290   -1.0120    1.1520 hc        1 A21      0.110333
     23 H4A        -5.5920    0.3810    0.7460 hc        1 A21      0.110333
     24 H4B        -4.4630    0.2360    1.8150 hc        1 A21      0.110333
     25 H1          1.0570   -0.0070   -1.3780 h1        1 A21      0.143000
     26 H3          1.5830    2.3750   -0.0390 hc        1 A21      0.093333
     27 H3A         1.1420    2.2050   -1.5000 hc        1 A21      0.093333
     28 H3B         2.6120    1.9160   -1.1160 hc        1 A21      0.093333
     29 H22         2.7230    0.8350    1.7590 ha        1 A21      0.137000
     30 H21         4.7110   -0.1960    2.5580 ha        1 A21      0.142500
     31 H9          5.7030   -1.9310    1.3100 ha        1 A21      0.142500
     32 H19         4.6960   -2.6060   -0.7170 ha        1 A21      0.155000
     33 H12         0.4660    0.2160    1.1960 hn        1 A21      0.251000
@<TRIPOS>BOND
     1    1    2 1   
     2    2    3 1   
     3    2    4 1   
     4    2    5 1   
     5    5    6 1   
     6    5    9 1   
     7    5   10 1   
     8    6    7 1   
     9    6    8 1   
    10    8   11 1   
    11    9   22 1   
    12    9   23 1   
    13    9   24 1   
    14   10   11 1   
    15   11   12 1   
    16   12   13 1   
    17   12   33 1   
    18   13   14 1   
    19   13   15 1   
    20   13   25 1   
    21   14   26 1   
    22   14   27 1   
    23   14   28 1   
    24   15   16 1   
    25   15   18 1   
    26   16   17 1   
    27   16   21 1   
    28   18   29 1   
    29   19   20 1   
    30   19   30 1   
    31   20   31 1   
    32   21   32 1   
@<TRIPOS>SUBSTRUCTURE
     1 A21         1 TEMP              0 ****  ****    0 ROOT
