@<TRIPOS>MOLECULE
A21
   34    35     1     0     0
SMALL
bcc


@<TRIPOS>ATOM
      1 F3          0.4410   -2.3650    1.2480 f         1 A21     -0.203300
      2 C2          1.3190   -1.4960    0.6580 c3        1 A21      0.661900
      3 F4          2.3400   -2.2720    0.1880 f         1 A21     -0.203300
      4 F1          0.6760   -1.0240   -0.4540 f         1 A21     -0.203300
      5 C8          1.8160   -0.3480    1.6180 c3        1 A21     -0.149900
      6 C13         2.4310   -0.9730    2.8970 c         1 A21      0.683500
      7 O2          3.4230   -1.6830    2.9060 o         1 A21     -0.356100
      8 N2          1.7120   -0.6100    4.0990 ne        1 A21     -0.567100
      9 C4          2.8470    0.4890    0.8980 c3        1 A21     -0.104100
     10 S1          0.4580    0.7000    2.1930 ss        1 A21     -0.073300
     11 C11         0.7220    0.2020    3.8360 c2        1 A21      0.512100
     12 N3         -0.1530    0.7260    4.8890 n4        1 A21     -0.724000
     13 C1         -1.0830   -0.3380    5.4960 c3        1 A21      0.211800
     14 C3         -1.4110    0.0360    6.9350 c3        1 A21     -0.134100
     15 C6         -2.3090   -0.4730    4.6540 ca        1 A21     -0.232300
     16 C18        -2.5500   -1.6670    3.9360 ca        1 A21      0.173900
     17 F2         -1.6500   -2.6750    3.9720 f         1 A21     -0.119900
     18 C22        -3.2610    0.5550    4.5980 ca        1 A21     -0.097000
     19 C21        -4.4210    0.4080    3.8480 ca        1 A21     -0.128000
     20 C9         -4.6560   -0.7780    3.1440 ca        1 A21     -0.053000
     21 C19        -3.7320   -1.8150    3.1830 ca        1 A21     -0.149000
     22 H4          3.1850    1.3420    1.5340 hc        1 A21      0.090700
     23 H4A         3.7360   -0.1490    0.6490 hc        1 A21      0.090700
     24 H4B         2.4200    0.8890   -0.0560 hc        1 A21      0.090700
     25 H1         -0.4980   -1.3120    5.4990 hx        1 A21      0.140700
     26 H3         -1.9420    1.0160    7.0090 hc        1 A21      0.084367
     27 H3A        -0.4920    0.0610    7.5700 hc        1 A21      0.084367
     28 H3B        -2.0920   -0.7570    7.3410 hc        1 A21      0.084367
     29 H22        -3.1010    1.4830    5.1690 ha        1 A21      0.135000
     30 H21        -5.1630    1.2220    3.8140 ha        1 A21      0.165000
     31 H9         -5.5830   -0.8940    2.5560 ha        1 A21      0.170000
     32 H19        -3.9080   -2.7560    2.6370 ha        1 A21      0.180000
     33 H12        -0.7300    1.4770    4.4860 hn        1 A21      0.469800
     34 H32         0.4260    1.1150    5.6500 hn        1 A21      0.469800
@<TRIPOS>BOND
     1    1    2 1   
     2    2    3 1   
     3    2    4 1   
     4    2    5 1   
     5    5    6 1   
     6    5    9 1   
     7    5   10 1   
     8    6    7 2   
     9    6    8 1   
    10    8   11 2   
    11    9   22 1   
    12    9   23 1   
    13    9   24 1   
    14   10   11 1   
    15   11   12 1   
    16   12   13 1   
    17   12   33 1   
    18   12   34 1   
    19   13   14 1   
    20   13   15 1   
    21   13   25 1   
    22   14   26 1   
    23   14   27 1   
    24   14   28 1   
    25   15   16 ar  
    26   15   18 ar  
    27   16   17 1   
    28   16   21 ar  
    29   18   19 ar  
    30   18   29 1   
    31   19   20 ar  
    32   19   30 1   
    33   20   21 ar  
    34   20   31 1   
    35   21   32 1   
@<TRIPOS>SUBSTRUCTURE
     1 A21         1 TEMP              0 ****  ****    0 ROOT
