@<TRIPOS>MOLECULE
A21
   34    35     1     0     0
SMALL
bcc


@<TRIPOS>ATOM
      1 F3          0.4360   -2.3890    1.2680 f         1 A21     -0.203300
      2 C2          1.3390   -1.5380    0.6890 c3        1 A21      0.661900
      3 F4          2.3530   -2.3350    0.2370 f         1 A21     -0.203300
      4 F1          0.7230   -1.0570   -0.4340 f         1 A21     -0.203300
      5 C8          1.8440   -0.3980    1.6550 c3        1 A21     -0.149900
      6 C13         2.4270   -1.0320    2.9440 c         1 A21      0.683500
      7 O2          3.4050   -1.7610    2.9690 o         1 A21     -0.356100
      8 N2          1.6970   -0.6520    4.1350 ne        1 A21     -0.567100
      9 C4          2.9010    0.4170    0.9490 c3        1 A21     -0.104100
     10 S1          0.4970    0.6770    2.2070 ss        1 A21     -0.073300
     11 C11         0.7270    0.1780    3.8540 c2        1 A21      0.512100
     12 N3         -0.1540    0.7210    4.8930 ny        1 A21     -0.724000
     13 C1         -1.1130   -0.3230    5.4890 c3        1 A21      0.211800
     14 C3         -1.4560    0.0610    6.9210 c3        1 A21     -0.134100
     15 C6         -2.3280   -0.4380    4.6290 ca        1 A21     -0.232300
     16 C18        -2.5800   -1.6300    3.9110 ca        1 A21      0.173900
     17 F2         -1.7000   -2.6540    3.9630 f         1 A21     -0.119900
     18 C22        -3.2600    0.6070    4.5550 ca        1 A21     -0.097000
     19 C21        -4.4110    0.4790    3.7880 ca        1 A21     -0.128000
     20 C9         -4.6570   -0.7050    3.0840 ca        1 A21     -0.053000
     21 C19        -3.7530   -1.7580    3.1400 ca        1 A21     -0.149000
     22 H4          3.2470    1.2650    1.5890 hc        1 A21      0.090700
     23 H4A         3.7820   -0.2380    0.7150 hc        1 A21      0.090700
     24 H4B         2.4970    0.8230   -0.0130 hc        1 A21      0.090700
     25 H1         -0.5460   -1.3080    5.5030 hx        1 A21      0.140700
     26 H3         -2.1570   -0.7180    7.3200 hc        1 A21      0.084367
     27 H3A        -1.9690    1.0510    6.9840 hc        1 A21      0.084367
     28 H3B        -0.5460    0.0710    7.5710 hc        1 A21      0.084367
     29 H22        -3.0910    1.5340    5.1260 ha        1 A21      0.135000
     30 H21        -5.1370    1.3070    3.7410 ha        1 A21      0.165000
     31 H9         -5.5770   -0.8050    2.4830 ha        1 A21      0.170000
     32 H19        -3.9380   -2.6980    2.5940 ha        1 A21      0.180000
     33 H12        -0.7100    1.4820    4.4800 hn        1 A21      0.469800
     34 H32         0.4210    1.1010    5.6620 hn        1 A21      0.469800
@<TRIPOS>BOND
     1    1    2 1   
     2    2    3 1   
     3    2    4 1   
     4    2    5 1   
     5    5    6 1   
     6    5    9 1   
     7    5   10 1   
     8    6    7 2   
     9    6    8 1   
    10    8   11 2   
    11    9   22 1   
    12    9   23 1   
    13    9   24 1   
    14   10   11 1   
    15   11   12 1   
    16   12   13 1   
    17   12   33 1   
    18   12   34 1   
    19   13   14 1   
    20   13   15 1   
    21   13   25 1   
    22   14   26 1   
    23   14   27 1   
    24   14   28 1   
    25   15   16 ar  
    26   15   18 ar  
    27   16   17 1   
    28   16   21 ar  
    29   18   19 ar  
    30   18   29 1   
    31   19   20 ar  
    32   19   30 1   
    33   20   21 ar  
    34   20   31 1   
    35   21   32 1   
@<TRIPOS>SUBSTRUCTURE
     1 A21         1 TEMP              0 ****  ****    0 ROOT
