@<TRIPOS>MOLECULE
A21
   34    35     1     0     0
SMALL
bcc


@<TRIPOS>ATOM
      1 F3          0.4730   -2.3450    1.2440 f         1 A21     -0.203300
      2 C2          1.3420   -1.4630    0.6600 c3        1 A21      0.661900
      3 F4          2.3750   -2.2250    0.1910 f         1 A21     -0.203300
      4 F1          0.6970   -0.9960   -0.4530 f         1 A21     -0.203300
      5 C8          1.8230   -0.3140    1.6260 c3        1 A21     -0.149900
      6 C13         2.4410   -0.9350    2.9050 c         1 A21      0.683500
      7 O2          3.4410   -1.6340    2.9140 o         1 A21     -0.356100
      8 N2          1.7140   -0.5860    4.1060 ne        1 A21     -0.567100
      9 C4          2.8450    0.5390    0.9130 c3        1 A21     -0.104100
     10 S1          0.4500    0.7160    2.2000 ss        1 A21     -0.073300
     11 C11         0.7150    0.2150    3.8420 c2        1 A21      0.512100
     12 N3         -0.1700    0.7250    4.8950 n4        1 A21     -0.724000
     13 C1         -1.0900   -0.3520    5.4940 c3        1 A21      0.211800
     14 C3         -1.4270    0.0120    6.9340 c3        1 A21     -0.134100
     15 C6         -2.3120   -0.4970    4.6480 ca        1 A21     -0.232300
     16 C18        -2.5380   -1.6900    3.9240 ca        1 A21      0.173900
     17 F2         -1.6270   -2.6880    3.9580 f         1 A21     -0.119900
     18 C22        -3.2750    0.5210    4.5930 ca        1 A21     -0.097000
     19 C21        -4.4320    0.3640    3.8400 ca        1 A21     -0.128000
     20 C9         -4.6520   -0.8210    3.1300 ca        1 A21     -0.053000
     21 C19        -3.7160   -1.8480    3.1670 ca        1 A21     -0.149000
     22 H4          3.7430   -0.0880    0.6640 hc        1 A21      0.090700
     23 H4A         2.4170    0.9370   -0.0420 hc        1 A21      0.090700
     24 H4B         3.1710    1.3930    1.5530 hc        1 A21      0.090700
     25 H1         -0.4950   -1.3190    5.4940 hx        1 A21      0.140700
     26 H3         -2.0990   -0.7910    7.3340 hc        1 A21      0.084367
     27 H3A        -0.5090    0.0440    7.5720 hc        1 A21      0.084367
     28 H3B        -1.9680    0.9850    7.0100 hc        1 A21      0.084367
     29 H22        -3.1270    1.4480    5.1700 ha        1 A21      0.135000
     30 H21        -5.1830    1.1710    3.8080 ha        1 A21      0.165000
     31 H9         -5.5760   -0.9450    2.5390 ha        1 A21      0.170000
     32 H19        -3.8800   -2.7890    2.6160 ha        1 A21      0.180000
     33 H12         0.4020    1.1170    5.6590 hn        1 A21      0.469800
     34 H32        -0.7540    1.4710    4.4930 hn        1 A21      0.469800
@<TRIPOS>BOND
     1    1    2 1   
     2    2    3 1   
     3    2    4 1   
     4    2    5 1   
     5    5    6 1   
     6    5    9 1   
     7    5   10 1   
     8    6    7 2   
     9    6    8 1   
    10    8   11 2   
    11    9   22 1   
    12    9   23 1   
    13    9   24 1   
    14   10   11 1   
    15   11   12 1   
    16   12   13 1   
    17   12   33 1   
    18   12   34 1   
    19   13   14 1   
    20   13   15 1   
    21   13   25 1   
    22   14   26 1   
    23   14   27 1   
    24   14   28 1   
    25   15   16 ar  
    26   15   18 ar  
    27   16   17 1   
    28   16   21 ar  
    29   18   19 ar  
    30   18   29 1   
    31   19   20 ar  
    32   19   30 1   
    33   20   21 ar  
    34   20   31 1   
    35   21   32 1   
@<TRIPOS>SUBSTRUCTURE
     1 A21         1 TEMP              0 ****  ****    0 ROOT
