@<TRIPOS>MOLECULE
A21
   33    34     1     0     0
SMALL
bcc


@<TRIPOS>ATOM
      1 F3         -2.3630   -1.9000    0.1590 f         1 A21     -0.224300
      2 C2         -3.2700   -0.9030   -0.0860 c3        1 A21      0.656900
      3 F4         -4.0330   -1.3770   -1.1220 f         1 A21     -0.224300
      4 F1         -4.1180   -0.9290    0.9930 f         1 A21     -0.224300
      5 C8         -2.6430    0.5030   -0.3650 c3        1 A21     -0.151900
      6 C13        -1.6190    0.3940   -1.5480 c         1 A21      0.707500
      7 O2         -1.9850    0.0640   -2.6740 o         1 A21     -0.472100
      8 N2         -0.2950    0.7170   -1.1880 ne        1 A21     -0.692100
      9 C4         -3.7390    1.4720   -0.7360 c3        1 A21     -0.088100
     10 S1         -1.7020    1.1220    1.0250 ss        1 A21     -0.245300
     11 C11        -0.1850    1.1040    0.0760 c2        1 A21      0.730100
     12 N3          0.9400    1.5660    0.7010 nh        1 A21     -0.782200
     13 C1          2.2680    1.4590    0.1130 c3        1 A21      0.259800
     14 C3          3.1950    2.5490    0.6640 c3        1 A21     -0.100100
     15 C6          2.9050    0.1080    0.3390 ca        1 A21     -0.160300
     16 C18         3.3500   -0.6680   -0.7520 ca        1 A21      0.154900
     17 F2          3.2270   -0.2130   -2.0200 f         1 A21     -0.127900
     18 C22         3.0690   -0.3950    1.6330 ca        1 A21     -0.101000
     19 C21         3.6510   -1.6410    1.8490 ca        1 A21     -0.143000
     20 C9          4.0830   -2.4070    0.7650 ca        1 A21     -0.094000
     21 C19         3.9400   -1.9290   -0.5320 ca        1 A21     -0.164000
     22 H4         -4.5180    1.5010    0.0650 hc        1 A21      0.071367
     23 H4A        -3.3220    2.4980   -0.8780 hc        1 A21      0.071367
     24 H4B        -4.2180    1.1410   -1.6940 hc        1 A21      0.071367
     25 H1          2.1600    1.6270   -1.0050 h1        1 A21      0.111700
     26 H3          4.1830    2.4600    0.1520 hc        1 A21      0.051367
     27 H3A         2.7750    3.5630    0.4630 hc        1 A21      0.051367
     28 H3B         3.3510    2.4310    1.7630 hc        1 A21      0.051367
     29 H22         2.7380    0.2050    2.4950 ha        1 A21      0.129000
     30 H21         3.7690   -2.0230    2.8740 ha        1 A21      0.140000
     31 H9          4.5400   -3.3940    0.9350 ha        1 A21      0.142000
     32 H19         4.2760   -2.5220   -1.3960 ha        1 A21      0.154000
     33 H12         0.9060    1.5990    1.6980 hn        1 A21      0.438800
@<TRIPOS>BOND
     1    1    2 1   
     2    2    3 1   
     3    2    4 1   
     4    2    5 1   
     5    5    6 1   
     6    5    9 1   
     7    5   10 1   
     8    6    7 2   
     9    6    8 1   
    10    8   11 2   
    11    9   22 1   
    12    9   23 1   
    13    9   24 1   
    14   10   11 1   
    15   11   12 1   
    16   12   13 1   
    17   12   33 1   
    18   13   14 1   
    19   13   15 1   
    20   13   25 1   
    21   14   26 1   
    22   14   27 1   
    23   14   28 1   
    24   15   16 ar  
    25   15   18 ar  
    26   16   17 1   
    27   16   21 ar  
    28   18   19 ar  
    29   18   29 1   
    30   19   20 ar  
    31   19   30 1   
    32   20   21 ar  
    33   20   31 1   
    34   21   32 1   
@<TRIPOS>SUBSTRUCTURE
     1 A21         1 TEMP              0 ****  ****    0 ROOT
