@<TRIPOS>MOLECULE
A23
   37    40     1     0     0
SMALL
bcc


@<TRIPOS>ATOM
      1 PC         -3.9520   -0.3430   -0.1920 p5        1 A23      1.583500
      2 O1C        -4.8040   -1.5170   -0.3110 o         1 A23     -0.801300
      3 O2C        -4.9260    0.8970    0.0990 oh        1 A23     -0.760400
      4 P           2.1190    0.1500   -3.8180 p5        1 A23      1.308900
      5 OP1         2.2290    1.6210   -4.0940 o         1 A23     -0.918500
      6 OP2         3.3630   -0.6770   -3.8930 o         1 A23     -0.918500
      7 OP3         0.8130   -0.4770   -4.2290 o         1 A23     -0.918500
      8 O5'         1.7820    0.1950   -2.0660 os        1 A23     -0.546200
      9 C5'         0.6170    0.8450   -1.8060 c3        1 A23      0.231400
     10 C4'        -0.5570   -0.1370   -1.5400 c3        1 A23      0.057100
     11 O4'        -0.2150   -1.1780   -0.5960 os        1 A23     -0.377600
     12 C3'        -1.7280    0.6320   -0.9070 c3        1 A23      0.111100
     13 O3'        -2.9970    0.1800   -1.3610 os        1 A23     -0.534200
     14 C2'        -1.6440    0.3110    0.6160 c3        1 A23      0.094100
     15 O2'        -2.8780   -0.2530    1.0100 os        1 A23     -0.538200
     16 C1'        -0.5210   -0.7820    0.7290 c3        1 A23      0.245800
     17 N9          0.6600   -0.3380    1.4440 na        1 A23     -0.283000
     18 C8          1.9750   -0.1550    0.9350 cc        1 A23      0.486700
     19 N7          2.8770    0.1070    1.8970 nd        1 A23     -0.599100
     20 C5          2.1610    0.0870    3.1020 ca        1 A23     -0.192200
     21 C6          2.5450    0.2770    4.4630 ca        1 A23      0.690200
     22 N6          3.8500    0.6660    4.7680 nh        1 A23     -0.930500
     23 N1          1.6060    0.1340    5.4520 nb        1 A23     -0.802000
     24 C2          0.3300   -0.1440    5.0600 ca        1 A23      0.635900
     25 N3         -0.1850   -0.3250    3.8250 nb        1 A23     -0.711000
     26 C4          0.7520   -0.2100    2.8360 ca        1 A23      0.418800
     27 HOC2       -5.8510    0.6670    0.1290 ho        1 A23      0.463000
     28 H5'         0.3070    1.5000   -2.6710 h1        1 A23     -0.003800
     29 H5''        0.7270    1.4820   -0.8730 h1        1 A23     -0.003800
     30 H4'        -0.7960   -0.6890   -2.4960 h1        1 A23      0.180700
     31 H3'        -1.6570    1.7290   -1.1390 h1        1 A23      0.101700
     32 H2'        -1.4420    1.2070    1.2570 h1        1 A23      0.098700
     33 H1'        -0.9210   -1.6980    1.2590 h2        1 A23      0.091700
     34 H8          2.1790   -0.2250   -0.1740 h5        1 A23      0.192800
     35 HN61        4.1700    0.4630    5.6850 hn        1 A23      0.409300
     36 HN62        4.5080    0.4970    4.0400 hn        1 A23      0.409300
     37 H2         -0.3960   -0.2390    5.8940 h5        1 A23      0.027100
@<TRIPOS>BOND
     1    1    2 2   
     2    1    3 1   
     3    1   13 1   
     4    1   15 1   
     5    3   27 1   
     6    4    5 1   
     7    4    6 1   
     8    4    7 1   
     9    4    8 1   
    10    8    9 1   
    11    9   10 1   
    12    9   28 1   
    13    9   29 1   
    14   10   11 1   
    15   10   12 1   
    16   10   30 1   
    17   11   16 1   
    18   12   13 1   
    19   12   14 1   
    20   12   31 1   
    21   14   15 1   
    22   14   16 1   
    23   14   32 1   
    24   16   17 1   
    25   16   33 1   
    26   17   18 1   
    27   17   26 1   
    28   18   19 2   
    29   18   34 1   
    30   19   20 1   
    31   20   21 ar  
    32   20   26 ar  
    33   21   22 1   
    34   21   23 ar  
    35   22   35 1   
    36   22   36 1   
    37   23   24 ar  
    38   24   25 ar  
    39   24   37 1   
    40   25   26 ar  
@<TRIPOS>SUBSTRUCTURE
     1 A23         1 TEMP              0 ****  ****    0 ROOT
