@<TRIPOS>MOLECULE
A23
   37    34     1     0     0
SMALL
bcc


@<TRIPOS>ATOM
      1 PC         -1.7160    1.6190   -2.6080 p3        1 A23      2.498000
      2 O1C        -2.3560    1.1880   -3.8670 o         1 A23     -1.115000
      3 O2C        -2.3770    3.0610   -2.5210 o         1 A23     -0.776000
      4 P           5.4140    1.6820   -1.2370 p3        1 A23      2.544000
      5 OP1         5.6320    2.3420    0.1070 o         1 A23     -0.997000
      6 OP2         6.5690    0.7200   -1.5280 os        1 A23     -1.186000
      7 OP3         5.3560    2.7410   -2.3130 o         1 A23     -0.997000
      8 O5'         4.0400    0.8700   -1.2140 os        1 A23     -0.745000
      9 C5'         2.8180    1.5830   -0.9070 c3        1 A23      0.035000
     10 C4'         1.6330    0.7270   -1.2830 c3        1 A23      0.030000
     11 O4'         1.3360   -0.1020   -0.3020 os        1 A23     -0.314000
     12 C3'         0.3550    1.6150   -1.4620 c3        1 A23     -0.419000
     13 O3'        -0.0260    1.6140   -2.6350 os        1 A23     -0.662000
     14 C2'        -0.7750    0.9060   -0.6240 c3        1 A23      0.036000
     15 O2'        -1.9690    0.7880   -1.5050 os        1 A23     -0.712000
     16 C1'        -0.2920   -0.2670   -0.3250 c3        1 A23      0.109000
     17 N9         -0.7530   -0.6770    0.9340 n3        1 A23     -0.153000
     18 C8         -0.5420   -0.0370    2.1110 c1        1 A23     -0.007000
     19 N7         -1.0830   -0.7930    3.1050 n2        1 A23     -0.169000
     20 C5         -1.6340   -1.9120    2.5350 c1        1 A23     -0.215000
     21 C6         -2.3890   -2.9540    3.0700 c1        1 A23      0.170000
     22 N6         -2.9280   -3.1700    4.3630 n3        1 A23     -0.325000
     23 N1         -2.9170   -3.8900    2.2560 n1        1 A23     -0.278000
     24 C2         -2.7110   -3.8170    0.9000 c1        1 A23     -0.024000
     25 N3         -1.9710   -2.7960    0.3740 n1        1 A23     -0.174000
     26 C4         -1.4320   -1.8410    1.2000 c1        1 A23      0.048000
     27 HOC2       -2.2660    3.4860   -3.2980 ho        1 A23      0.242000
     28 H5'         2.7870    1.7790    0.0460 h1        1 A23      0.065000
     29 H5''        2.7910    2.4190   -1.4130 h1        1 A23      0.065000
     30 H4'         1.8190    0.2290   -2.1020 h1        1 A23      0.112000
     31 H3'         0.5140    2.5430   -1.1370 h1        1 A23      0.267000
     32 H2'        -0.9850    1.4200    0.1890 h1        1 A23      0.107000
     33 H1'        -0.5510   -0.9170   -1.0050 h2        1 A23      0.132000
     34 H8         -0.1200    0.8490    2.2200 DU        1 A23      0.244000
     35 HN61       -3.5410   -3.8400    4.4980 hn        1 A23      0.199000
     36 HN62       -2.6380   -2.6740    5.0630 hn        1 A23      0.199000
     37 H2         -3.0930   -4.4940    0.3120 ha        1 A23      0.165000
@<TRIPOS>BOND
     1    1    2 1   
     2    1   13 1   
     3    1   15 1   
     4    3   27 1   
     5    4    5 1   
     6    4    7 1   
     7    4    8 1   
     8    8    9 1   
     9    9   10 1   
    10    9   28 1   
    11    9   29 1   
    12   10   11 1   
    13   10   12 1   
    14   10   30 1   
    15   11   16 1   
    16   12   13 1   
    17   12   14 1   
    18   12   31 1   
    19   14   15 1   
    20   14   16 1   
    21   14   32 1   
    22   16   17 1   
    23   16   33 1   
    24   17   18 1   
    25   17   26 1   
    26   18   19 1   
    27   19   20 1   
    28   20   26 1   
    29   21   22 1   
    30   21   23 1   
    31   22   35 1   
    32   22   36 1   
    33   24   25 1   
    34   24   37 1   
@<TRIPOS>SUBSTRUCTURE
     1 A23         1 TEMP              0 ****  ****    0 ROOT
