@<TRIPOS>MOLECULE
A24
   59    59     1     0     0
SMALL
bcc


@<TRIPOS>ATOM
      1 C1          0.8320    3.5850    1.6890 c3        1 A24      0.155000
      2 O1          1.9070    3.1890    0.8670 os        1 A24     -0.231000
      3 C2          1.0010    5.0240    2.0390 c3        1 A24      0.024000
      4 O2          1.2130    5.7880    0.8110 oh        1 A24     -0.312000
      5 C3          2.1500    5.2510    2.9470 c3        1 A24     -0.049000
      6 O3          2.1470    6.6570    3.3810 oh        1 A24     -0.336000
      7 C4          2.1030    4.3750    4.1450 c3        1 A24     -0.018000
      8 O4          0.9810    4.7870    4.9850 oh        1 A24     -0.317000
      9 C5          1.9280    2.9280    3.7880 c3        1 A24     -0.004000
     10 O5          0.7980    2.7070    2.8940 os        1 A24     -0.288000
     11 C6          1.7200    2.1260    5.0660 c3        1 A24     -0.007000
     12 O6          2.0720    0.7730    4.8350 oh        1 A24     -0.323000
     13 C1'         1.3970    2.4120   -0.2680 c2        1 A24      0.067000
     14 C2'         1.3870    2.9720   -1.5560 c2        1 A24     -0.070000
     15 C3'         0.9480    2.2150   -2.6430 c1        1 A24     -0.115000
     16 C4'         0.5170    0.8960   -2.4490 c1        1 A24     -0.078000
     17 C5'         0.5280    0.3440   -1.1750 c1        1 A24     -0.100000
     18 C6'         0.9720    1.1120   -0.0770 c1        1 A24     -0.099000
     19 N1'         0.9850    2.7770   -3.9800 no        1 A24      0.569000
     20 O1'         1.3100    4.1140   -4.1640 o         1 A24     -0.353000
     21 O2'         0.6620    2.1060   -4.9190 o         1 A24     -0.353000
     22 C7'        -0.0090   -1.0980   -0.9470 c2        1 A24      0.341000
     23 O3'         0.0010   -1.5750    0.1570 o         1 A24     -0.350000
     24 N2'        -0.4310   -1.9230   -2.1010 n         1 A24     -0.371000
     25 O1B        -3.5780   -7.5750   -2.5970 os        1 A24     -0.271000
     26 C2B        -4.2010   -6.3400   -2.9200 c3        1 A24     -0.024000
     27 C3B        -3.1730   -5.2170   -3.2040 c3        1 A24     -0.103000
     28 N4'        -2.2120   -5.0920   -2.1620 n3        1 A24     -0.253000
     29 C5B        -1.5920   -6.3330   -1.8380 c3        1 A24     -0.103000
     30 C6B        -2.6170   -7.4490   -1.5600 c3        1 A24     -0.024000
     31 C7B        -1.1670   -4.1000   -2.5490 c3        1 A24     -0.090000
     32 C8'        -1.5150   -2.7660   -1.9870 c3        1 A24     -0.031000
     33 H11        -0.0230    3.4730    1.1820 h2        1 A24      0.146000
     34 H21         0.1920    5.3390    2.4720 h1        1 A24      0.117000
     35 HO21        0.7250    6.5190    0.8330 ho        1 A24      0.226000
     36 H31         2.9560    5.0760    2.4710 h1        1 A24      0.119000
     37 HO31        2.9840    6.9090    3.5880 ho        1 A24      0.216000
     38 H41         2.9430    4.4810    4.6570 h1        1 A24      0.088000
     39 HO41        1.2790    5.3380    5.6430 ho        1 A24      0.217000
     40 H51         2.7660    2.6040    3.3370 h1        1 A24      0.113000
     41 H61         2.2910    2.4970    5.7840 h1        1 A24      0.106500
     42 H62         0.7630    2.1790    5.3420 h1        1 A24      0.106500
     43 HO1         1.7080    0.2500    5.4840 ho        1 A24      0.214000
     44 H2'1        1.6810    3.8670   -1.6880 ha        1 A24      0.190000
     45 H4'1        0.2070    0.3590   -3.2150 ha        1 A24      0.171000
     46 H6'1        0.9800    0.7230    0.8170 ha        1 A24      0.186000
     47 HN21        0.0280   -1.8790   -2.8810 hn        1 A24      0.224000
     48 H2A1       -4.7780   -6.4720   -3.7390 h1        1 A24      0.094500
     49 H2'2       -4.7610   -6.0700   -2.1850 h1        1 A24      0.094500
     50 H3'1       -3.6450   -4.3730   -3.3000 h1        1 A24      0.080250
     51 H3'2       -2.7150   -5.4120   -4.0270 h1        1 A24      0.080250
     52 H5'1       -1.0010   -6.6180   -2.6160 h1        1 A24      0.080250
     53 H5'2       -1.0390   -6.2110   -1.0550 h1        1 A24      0.080250
     54 H6A1       -2.1410   -8.2990   -1.4660 h1        1 A24      0.094500
     55 H6'2       -3.0810   -7.2480   -0.7190 h1        1 A24      0.094500
     56 H7'1       -0.2760   -4.3950   -2.1850 h1        1 A24      0.077000
     57 H7'2       -1.1170   -4.0400   -3.5170 h1        1 A24      0.077000
     58 H8'1       -2.2400   -2.4060   -2.4600 h1        1 A24      0.112000
     59 H8'2       -1.7500   -2.8620   -1.0670 h1        1 A24      0.112000
@<TRIPOS>BOND
     1    1    2 1   
     2    1    3 1   
     3    1   10 1   
     4    1   33 1   
     5    2   13 1   
     6    3    4 1   
     7    3    5 1   
     8    3   34 1   
     9    4   35 1   
    10    5    6 1   
    11    5    7 1   
    12    5   36 1   
    13    6   37 1   
    14    7    8 1   
    15    7    9 1   
    16    7   38 1   
    17    8   39 1   
    18    9   10 1   
    19    9   11 1   
    20    9   40 1   
    21   11   12 1   
    22   11   41 1   
    23   11   42 1   
    24   12   43 1   
    25   13   14 1   
    26   13   18 1   
    27   14   15 1   
    28   14   44 1   
    29   15   19 1   
    30   16   17 1   
    31   16   45 1   
    32   17   22 1   
    33   18   46 1   
    34   19   20 1   
    35   19   21 1   
    36   22   23 1   
    37   22   24 1   
    38   24   32 1   
    39   24   47 1   
    40   25   26 1   
    41   25   30 1   
    42   26   27 1   
    43   26   48 1   
    44   26   49 1   
    45   27   28 1   
    46   27   50 1   
    47   27   51 1   
    48   28   29 1   
    49   28   31 1   
    50   29   30 1   
    51   29   52 1   
    52   29   53 1   
    53   30   54 1   
    54   30   55 1   
    55   31   32 1   
    56   31   56 1   
    57   31   57 1   
    58   32   58 1   
    59   32   59 1   
@<TRIPOS>SUBSTRUCTURE
     1 A24         1 TEMP              0 ****  ****    0 ROOT
