@<TRIPOS>MOLECULE
A24
   59    61     1     0     0
SMALL
bcc


@<TRIPOS>ATOM
      1 C1         -3.4460    0.7470    0.8580 c3        1 A24      0.308900
      2 O1         -3.2280   -0.6010    0.4270 os        1 A24     -0.374900
      3 C2         -4.9240    0.8330    1.2790 c3        1 A24      0.091100
      4 O2         -5.2340   -0.1080    2.2820 oh        1 A24     -0.585800
      5 C3         -5.8450    0.6610    0.0630 c3        1 A24      0.076100
      6 O3         -7.1900    0.9480    0.4030 oh        1 A24     -0.602800
      7 C4         -5.4490    1.6560   -1.0400 c3        1 A24      0.127100
      8 O4         -5.6620    2.9930   -0.6240 oh        1 A24     -0.593800
      9 C5         -3.9640    1.4770   -1.3760 c3        1 A24      0.104100
     10 O5         -3.1140    1.5730   -0.2240 os        1 A24     -0.427600
     11 C6         -3.4730    2.5760   -2.3250 c3        1 A24      0.142400
     12 O6         -2.1410    2.3390   -2.7250 oh        1 A24     -0.595800
     13 C1'        -1.9270   -1.0680    0.4830 ca        1 A24      0.111100
     14 C2'        -1.7980   -2.4540    0.6680 ca        1 A24     -0.078000
     15 C3'        -0.5090   -3.0020    0.6780 ca        1 A24     -0.157200
     16 C4'         0.6320   -2.1990    0.5140 ca        1 A24     -0.076000
     17 C5'         0.4700   -0.8270    0.3270 ca        1 A24     -0.118600
     18 C6'        -0.8040   -0.2500    0.3100 ca        1 A24     -0.093000
     19 N1'        -0.3450   -4.4700    0.8730 no        1 A24      0.314200
     20 O1'         0.7620   -4.9350    0.8490 o         1 A24     -0.201000
     21 O2'        -1.3230   -5.1450    1.0440 o         1 A24     -0.201000
     22 C7'         1.6470    0.0860    0.1680 c         1 A24      0.668700
     23 O3'         1.6530    1.2120    0.7030 o         1 A24     -0.593100
     24 N2'         2.6810   -0.3500   -0.6320 n         1 A24     -0.559900
     25 O1B         8.8390    1.7490    0.2760 os        1 A24     -0.413600
     26 C2B         8.8180    0.3920   -0.1490 c3        1 A24      0.126400
     27 C3B         7.4760   -0.2790    0.1670 c3        1 A24      0.130300
     28 N4'         6.3390    0.4740   -0.3520 n3        1 A24     -0.724600
     29 C5B         6.4100    1.8850    0.0100 c3        1 A24      0.130300
     30 C6B         7.7780    2.5050   -0.2950 c3        1 A24      0.126400
     31 C7B         5.0750   -0.1410    0.0240 c3        1 A24      0.144800
     32 C8'         3.8900    0.4050   -0.8110 c3        1 A24      0.085000
     33 H11        -2.7510    1.0430    1.6930 h2        1 A24      0.108700
     34 H21        -5.1030    1.8410    1.7530 h1        1 A24      0.117700
     35 HO21       -5.0070   -0.9850    1.9400 ho        1 A24      0.417000
     36 H31        -5.7700   -0.3930   -0.3250 h1        1 A24      0.060700
     37 HO31       -7.3690    0.5040    1.2440 ho        1 A24      0.427000
     38 H41        -6.0650    1.4500   -1.9600 h1        1 A24      0.062700
     39 HO41       -6.5800    3.0450   -0.3240 ho        1 A24      0.426000
     40 H51        -3.8170    0.4590   -1.8330 h1        1 A24      0.070700
     41 H61        -3.5730    3.5770   -1.8270 h1        1 A24      0.068700
     42 H62        -4.0770    2.5490   -3.2700 h1        1 A24      0.068700
     43 HO1        -1.5920    2.4050   -1.9330 ho        1 A24      0.411000
     44 H2'1       -2.6930   -3.0860    0.7960 ha        1 A24      0.185000
     45 H4'1        1.6350   -2.6600    0.5500 ha        1 A24      0.173000
     46 H6'1       -0.9140    0.8390    0.1620 ha        1 A24      0.186000
     47 HN21        2.6630   -1.2760   -0.9870 hn        1 A24      0.314500
     48 H2'2        9.0390    0.3390   -1.2480 h1        1 A24      0.054950
     49 H3'1        7.4040   -0.4220    1.2840 h1        1 A24      0.042950
     50 H3'2        7.4650   -1.2960   -0.3150 h1        1 A24      0.042950
     51 H5'1        5.6320    2.4330   -0.5910 h1        1 A24      0.042950
     52 H5'2        6.1810    2.0440    1.1040 h1        1 A24      0.042950
     53 H6A1        7.8610    3.5130    0.1890 h1        1 A24      0.054950
     54 H6'2        7.9350    2.5940   -1.4030 h1        1 A24      0.054950
     55 H7'1        4.8430    0.0060    1.1190 h1        1 A24      0.038700
     56 H7'2        5.1700   -1.2500   -0.1580 h1        1 A24      0.038700
     57 H8'1        4.1580    0.3750   -1.9050 h1        1 A24      0.073700
     58 H8'2        3.6920    1.4760   -0.5190 h1        1 A24      0.073700
     59 H2A1        9.6400   -0.0980    0.4350 h1        1 A24      0.054950
@<TRIPOS>BOND
     1    1    2 1   
     2    1    3 1   
     3    1   10 1   
     4    1   33 1   
     5    2   13 1   
     6    3    4 1   
     7    3    5 1   
     8    3   34 1   
     9    4   35 1   
    10    5    6 1   
    11    5    7 1   
    12    5   36 1   
    13    6   37 1   
    14    7    8 1   
    15    7    9 1   
    16    7   38 1   
    17    8   39 1   
    18    9   10 1   
    19    9   11 1   
    20    9   40 1   
    21   11   12 1   
    22   11   41 1   
    23   11   42 1   
    24   12   43 1   
    25   13   14 ar  
    26   13   18 ar  
    27   14   15 ar  
    28   14   44 1   
    29   15   16 ar  
    30   15   19 1   
    31   16   17 ar  
    32   16   45 1   
    33   17   18 ar  
    34   17   22 1   
    35   18   46 1   
    36   19   20 1   
    37   19   21 1   
    38   22   23 2   
    39   22   24 1   
    40   24   32 1   
    41   24   47 1   
    42   25   26 1   
    43   25   30 1   
    44   26   27 1   
    45   26   48 1   
    46   26   59 1   
    47   27   28 1   
    48   27   49 1   
    49   27   50 1   
    50   28   29 1   
    51   28   31 1   
    52   29   30 1   
    53   29   51 1   
    54   29   52 1   
    55   30   53 1   
    56   30   54 1   
    57   31   32 1   
    58   31   55 1   
    59   31   56 1   
    60   32   57 1   
    61   32   58 1   
@<TRIPOS>SUBSTRUCTURE
     1 A24         1 TEMP              0 ****  ****    0 ROOT
