@<TRIPOS>MOLECULE
A24
   59    61     1     0     0
SMALL
bcc


@<TRIPOS>ATOM
      1 C1          0.1030   -0.0740    0.3340 c3        1 A24      0.303900
      2 O1         -0.7530   -0.8610    1.1630 os        1 A24     -0.348900
      3 C2          1.5550   -0.4780    0.6500 c3        1 A24      0.090100
      4 O2          1.7680   -1.8690    0.5190 oh        1 A24     -0.586800
      5 C3          1.9090   -0.1170    2.1010 c3        1 A24      0.115100
      6 O3          3.2900   -0.3130    2.3420 oh        1 A24     -0.606800
      7 C4          1.6290    1.3780    2.3350 c3        1 A24      0.124100
      8 O4          2.4780    2.1900    1.5450 oh        1 A24     -0.594800
      9 C5          0.1740    1.6900    1.9680 c3        1 A24      0.105100
     10 O5         -0.1710    1.2690    0.6400 os        1 A24     -0.430600
     11 C6         -0.0930    3.1990    1.9890 c3        1 A24      0.141400
     12 O6         -1.4600    3.4730    1.7750 oh        1 A24     -0.595800
     13 C1'        -2.0490   -1.0460    0.7150 ca        1 A24      0.106100
     14 C2'        -2.6600   -2.2370    1.1420 ca        1 A24     -0.074000
     15 C3'        -3.9910   -2.4650    0.7720 ca        1 A24     -0.159200
     16 C4'        -4.7060   -1.5410   -0.0090 ca        1 A24     -0.078000
     17 C5'        -4.0720   -0.3660   -0.4140 ca        1 A24     -0.119600
     18 C6'        -2.7440   -0.1080   -0.0560 ca        1 A24     -0.099000
     19 N1'        -4.6650   -3.7180    1.2110 no        1 A24      0.314200
     20 O1'        -5.8170   -3.8890    0.9160 o         1 A24     -0.201500
     21 O2'        -4.0400   -4.5220    1.8480 o         1 A24     -0.201500
     22 C7'        -4.7700    0.6440   -1.2680 c         1 A24      0.669700
     23 O3'        -4.1660    1.2180   -2.1970 o         1 A24     -0.595100
     24 N2'        -6.0770    0.9450   -0.9500 n         1 A24     -0.559900
     25 O1B       -10.3120    3.1000   -5.4860 os        1 A24     -0.414600
     26 C2B       -10.9640    2.2780   -4.5260 c3        1 A24      0.126400
     27 C3B        -9.9790    1.3360   -3.8250 c3        1 A24      0.130300
     28 N4'        -8.8400    2.0460   -3.2520 n3        1 A24     -0.724600
     29 C5B        -8.2270    2.9560   -4.2120 c3        1 A24      0.130300
     30 C6B        -9.2530    3.8560   -4.9110 c3        1 A24      0.126400
     31 C7B        -7.8810    1.1250   -2.6570 c3        1 A24      0.144800
     32 C8'        -6.8740    1.8500   -1.7310 c3        1 A24      0.085000
     33 H11        -0.1420   -0.1880   -0.7590 h2        1 A24      0.092700
     34 H21         2.2260    0.0920   -0.0540 h1        1 A24      0.080700
     35 HO21        1.4910   -2.1190   -0.3710 ho        1 A24      0.413000
     36 H31         1.2970   -0.7470    2.8040 h1        1 A24      0.075700
     37 HO31        3.4820   -1.2350    2.1250 ho        1 A24      0.431000
     38 H41         1.7950    1.6140    3.4240 h1        1 A24      0.063700
     39 HO41        3.3840    1.8970    1.7220 ho        1 A24      0.426000
     40 H51        -0.5030    1.1530    2.6900 h1        1 A24      0.072700
     41 H61         0.1350    3.6030    3.0100 h1        1 A24      0.068200
     42 H62         0.5450    3.7050    1.2180 h1        1 A24      0.068200
     43 HO1        -1.6740    3.1690    0.8830 ho        1 A24      0.410000
     44 H2'1       -2.0980   -2.9620    1.7550 ha        1 A24      0.190000
     45 H4'1       -5.7470   -1.7610   -0.3030 ha        1 A24      0.173000
     46 H6'1       -2.2580    0.8280   -0.3830 ha        1 A24      0.184000
     47 HN21       -6.5370    0.4210   -0.2440 hn        1 A24      0.314500
     48 H2'2      -11.7060    1.6840   -5.1220 h1        1 A24      0.054950
     49 H3'1      -10.5200    0.8180   -2.9850 h1        1 A24      0.042700
     50 H3'2       -9.6480    0.5500   -4.5650 h1        1 A24      0.042700
     51 H5'1       -7.5060    3.6130   -3.6510 h1        1 A24      0.042700
     52 H5'2       -7.6460    2.3960   -5.0020 h1        1 A24      0.042700
     53 H6A1       -8.7770    4.3780   -5.7810 h1        1 A24      0.054950
     54 H6'2       -9.6750    4.6070   -4.1930 h1        1 A24      0.054950
     55 H7'1       -8.4630    0.3750   -2.0500 h1        1 A24      0.038200
     56 H7'2       -7.3030    0.5540   -3.4420 h1        1 A24      0.038200
     57 H8'1       -7.4370    2.5190   -1.0180 h1        1 A24      0.073200
     58 H8'2       -6.1860    2.4890   -2.3550 h1        1 A24      0.073200
     59 H2A1      -11.4970    2.9230   -3.7780 h1        1 A24      0.054950
@<TRIPOS>BOND
     1    1    2 1   
     2    1    3 1   
     3    1   10 1   
     4    1   33 1   
     5    2   13 1   
     6    3    4 1   
     7    3    5 1   
     8    3   34 1   
     9    4   35 1   
    10    5    6 1   
    11    5    7 1   
    12    5   36 1   
    13    6   37 1   
    14    7    8 1   
    15    7    9 1   
    16    7   38 1   
    17    8   39 1   
    18    9   10 1   
    19    9   11 1   
    20    9   40 1   
    21   11   12 1   
    22   11   41 1   
    23   11   42 1   
    24   12   43 1   
    25   13   14 ar  
    26   13   18 ar  
    27   14   15 ar  
    28   14   44 1   
    29   15   16 ar  
    30   15   19 1   
    31   16   17 ar  
    32   16   45 1   
    33   17   18 ar  
    34   17   22 1   
    35   18   46 1   
    36   19   20 1   
    37   19   21 1   
    38   22   23 2   
    39   22   24 1   
    40   24   32 1   
    41   24   47 1   
    42   25   26 1   
    43   25   30 1   
    44   26   27 1   
    45   26   48 1   
    46   26   59 1   
    47   27   28 1   
    48   27   49 1   
    49   27   50 1   
    50   28   29 1   
    51   28   31 1   
    52   29   30 1   
    53   29   51 1   
    54   29   52 1   
    55   30   53 1   
    56   30   54 1   
    57   31   32 1   
    58   31   55 1   
    59   31   56 1   
    60   32   57 1   
    61   32   58 1   
@<TRIPOS>SUBSTRUCTURE
     1 A24         1 TEMP              0 ****  ****    0 ROOT
