@<TRIPOS>MOLECULE
A24
   60    62     1     0     0
SMALL
bcc


@<TRIPOS>ATOM
      1 C1         -0.0640   -0.1270    0.3270 c3        1 A24      0.302900
      2 O1         -1.0260   -0.8800    1.0810 os        1 A24     -0.333900
      3 C2          1.1290    0.1490    1.2630 c3        1 A24      0.093100
      4 O2          1.6130   -1.0360    1.8530 oh        1 A24     -0.577800
      5 C3          0.7040    1.0750    2.4150 c3        1 A24      0.115100
      6 O3          1.8360    1.4970    3.1500 oh        1 A24     -0.597800
      7 C4          0.0650    2.3490    1.8350 c3        1 A24      0.123100
      8 O4          0.9980    3.0990    1.0800 oh        1 A24     -0.595800
      9 C5         -1.1000    1.9660    0.9130 c3        1 A24      0.144100
     10 O5         -0.7160    1.0330   -0.1100 os        1 A24     -0.426600
     11 C6         -1.6280    3.1920    0.1660 c3        1 A24      0.137400
     12 O6         -2.9330    2.8710   -0.2980 oh        1 A24     -0.625800
     13 C1'        -2.0570   -1.4740    0.3980 ca        1 A24      0.146100
     14 C2'        -2.6710   -2.5480    1.0770 ca        1 A24     -0.041000
     15 C3'        -3.7800   -3.1640    0.4880 ca        1 A24     -0.149200
     16 C4'        -4.2850   -2.7410   -0.7520 ca        1 A24     -0.086000
     17 C5'        -3.6590   -1.6740   -1.3990 ca        1 A24     -0.171600
     18 C6'        -2.5380   -1.0380   -0.8430 ca        1 A24     -0.096000
     19 N1'        -4.4570   -4.3000    1.1890 no        1 A24      0.317200
     20 O1'        -5.4620   -4.7380    0.7000 o         1 A24     -0.174500
     21 O2'        -3.9780   -4.7170    2.2010 o         1 A24     -0.174500
     22 C7'        -4.1320   -1.1920   -2.7020 c         1 A24      0.581700
     23 O3'        -3.4910   -0.9160   -3.7020 o         1 A24     -0.396100
     24 N2'        -5.6350   -0.9830   -2.8130 ny        1 A24     -0.680800
     25 O1B        -9.3160    4.5160   -2.8130 os        1 A24     -0.395600
     26 C2B        -9.1900    3.8770   -1.5510 c3        1 A24      0.125900
     27 C3B        -8.9100    2.3750   -1.7100 c3        1 A24      0.135300
     28 N4'        -7.7770    2.1160   -2.5910 n3        1 A24     -0.746600
     29 C5B        -7.8430    2.8640   -3.8410 c3        1 A24      0.135300
     30 C6B        -8.1550    4.3500   -3.6150 c3        1 A24      0.125900
     31 C7B        -7.5030    0.7080   -2.7800 c3        1 A24      0.168800
     32 C8'        -5.9790    0.4600   -2.6300 c3        1 A24      0.089800
     33 H11         0.2410   -0.6750   -0.6070 h2        1 A24      0.091700
     34 H21         1.9220    0.6610    0.6460 h1        1 A24      0.090700
     35 HO21        2.1040   -1.5180    1.1740 ho        1 A24      0.417000
     36 H31        -0.0230    0.5360    3.0820 h1        1 A24      0.074700
     37 HO31        2.2520    0.6990    3.5060 ho        1 A24      0.436000
     38 H41        -0.3250    2.9790    2.6850 h1        1 A24      0.071700
     39 HO41        1.7560    3.2650    1.6590 ho        1 A24      0.436000
     40 H51        -1.9130    1.4910    1.5310 h1        1 A24      0.070700
     41 H61        -0.9570    3.4310   -0.7010 h1        1 A24      0.061200
     42 H62        -1.6650    4.0620    0.8730 h1        1 A24      0.061200
     43 HO1        -3.3020    3.6900   -0.6480 ho        1 A24      0.411000
     44 H2'1       -2.2730   -2.8820    2.0550 ha        1 A24      0.213000
     45 H4'1       -5.1390   -3.2810   -1.1970 ha        1 A24      0.169000
     46 H6'1       -2.0570   -0.1920   -1.3670 ha        1 A24      0.202000
     47 HN21       -5.9520   -1.2840   -3.7430 hn        1 A24      0.457300
     48 H3'1       -9.8480    1.8760   -2.0910 h1        1 A24      0.047200
     49 H3'2       -8.6690    1.9490   -0.6960 h1        1 A24      0.047200
     50 H5'1       -8.6270    2.4370   -4.5330 h1        1 A24      0.047200
     51 H5'2       -6.8430    2.7790   -4.3490 h1        1 A24      0.047200
     52 H6A1       -7.2830    4.8700   -3.1370 h1        1 A24      0.067950
     53 H6'2       -8.4130    4.8400   -4.5910 h1        1 A24      0.067950
     54 H7'1       -7.8280    0.3430   -3.7990 h1        1 A24      0.052700
     55 H7'2       -8.0450    0.0950   -2.0050 h1        1 A24      0.052700
     56 H8'1       -5.6330    0.7780   -1.6050 hx        1 A24      0.120200
     57 H8'2       -5.4080    1.0480   -3.4050 hx        1 A24      0.120200
     58 H2A1      -10.1850    4.0290   -1.0560 h1        1 A24      0.067950
     59 H2'2       -6.1200   -1.5410   -2.1030 hn        1 A24      0.457300
     60 H2'3       -8.3790    4.3690   -0.9530 h1        1 A24      0.067950
@<TRIPOS>BOND
     1    1    2 1   
     2    1    3 1   
     3    1   10 1   
     4    1   33 1   
     5    2   13 1   
     6    3    4 1   
     7    3    5 1   
     8    3   34 1   
     9    4   35 1   
    10    5    6 1   
    11    5    7 1   
    12    5   36 1   
    13    6   37 1   
    14    7    8 1   
    15    7    9 1   
    16    7   38 1   
    17    8   39 1   
    18    9   10 1   
    19    9   11 1   
    20    9   40 1   
    21   11   12 1   
    22   11   41 1   
    23   11   42 1   
    24   12   43 1   
    25   13   14 ar  
    26   13   18 ar  
    27   14   15 ar  
    28   14   44 1   
    29   15   16 ar  
    30   15   19 1   
    31   16   17 ar  
    32   16   45 1   
    33   17   18 ar  
    34   17   22 1   
    35   18   46 1   
    36   19   20 1   
    37   19   21 1   
    38   22   23 2   
    39   22   24 1   
    40   24   32 1   
    41   24   47 1   
    42   24   59 1   
    43   25   26 1   
    44   25   30 1   
    45   26   27 1   
    46   26   58 1   
    47   26   60 1   
    48   27   28 1   
    49   27   48 1   
    50   27   49 1   
    51   28   29 1   
    52   28   31 1   
    53   29   30 1   
    54   29   50 1   
    55   29   51 1   
    56   30   52 1   
    57   30   53 1   
    58   31   32 1   
    59   31   54 1   
    60   31   55 1   
    61   32   56 1   
    62   32   57 1   
@<TRIPOS>SUBSTRUCTURE
     1 A24         1 TEMP              0 ****  ****    0 ROOT
