@<TRIPOS>MOLECULE
A24
   60    62     1     0     0
SMALL
bcc


@<TRIPOS>ATOM
      1 C1         -0.0540   -0.1100    0.3050 c3        1 A24      0.302900
      2 O1         -1.0070   -0.8890    1.0440 os        1 A24     -0.333900
      3 C2          1.1370    0.1590    1.2460 c3        1 A24      0.093100
      4 O2          1.6340   -1.0340    1.8100 oh        1 A24     -0.577800
      5 C3          0.7030    1.0560    2.4170 c3        1 A24      0.115100
      6 O3          1.8310    1.4740    3.1600 oh        1 A24     -0.597800
      7 C4          0.0500    2.3350    1.8650 c3        1 A24      0.123100
      8 O4          0.9740    3.1100    1.1250 oh        1 A24     -0.595800
      9 C5         -1.1120    1.9580    0.9350 c3        1 A24      0.144100
     10 O5         -0.7190    1.0520   -0.1070 os        1 A24     -0.426600
     11 C6         -1.6530    3.1940    0.2140 c3        1 A24      0.137400
     12 O6         -2.9540    2.8690   -0.2570 oh        1 A24     -0.625800
     13 C1'        -2.0330   -1.4790    0.3490 ca        1 A24      0.146100
     14 C2'        -2.6350   -2.5740    1.0050 ca        1 A24     -0.041000
     15 C3'        -3.7380   -3.1890    0.4050 ca        1 A24     -0.149200
     16 C4'        -4.2490   -2.7450   -0.8250 ca        1 A24     -0.086000
     17 C5'        -3.6350   -1.6580   -1.4500 ca        1 A24     -0.171600
     18 C6'        -2.5200   -1.0220   -0.8820 ca        1 A24     -0.096000
     19 N1'        -4.4010   -4.3470    1.0820 no        1 A24      0.317200
     20 O1'        -5.4030   -4.7850    0.5850 o         1 A24     -0.174500
     21 O2'        -3.9160   -4.7810    2.0850 o         1 A24     -0.174500
     22 C7'        -4.1150   -1.1530   -2.7410 c         1 A24      0.581700
     23 O3'        -3.4790   -0.8500   -3.7370 o         1 A24     -0.396100
     24 N2'        -5.6200   -0.9560   -2.8450 n4        1 A24     -0.680800
     25 O1B        -9.3550    4.5050   -2.7320 os        1 A24     -0.395600
     26 C2B        -9.2090    3.8490   -1.4800 c3        1 A24      0.125900
     27 C3B        -8.9160    2.3530   -1.6630 c3        1 A24      0.135300
     28 N4'        -7.7900    2.1180   -2.5610 n3        1 A24     -0.746600
     29 C5B        -7.8770    2.8830   -3.7990 c3        1 A24      0.135300
     30 C6B        -8.2010    4.3630   -3.5480 c3        1 A24      0.125900
     31 C7B        -7.5040    0.7160   -2.7740 c3        1 A24      0.168800
     32 C8'        -5.9770    0.4800   -2.6350 c3        1 A24      0.089800
     33 H11         0.2560   -0.6360   -0.6410 h2        1 A24      0.091700
     34 H21         1.9240    0.6920    0.6400 h1        1 A24      0.090700
     35 HO21        2.1300   -1.4950    1.1220 ho        1 A24      0.417000
     36 H31        -0.0180    0.4950    3.0730 h1        1 A24      0.074700
     37 HO31        2.2560    0.6730    3.4990 ho        1 A24      0.436000
     38 H41        -0.3460    2.9420    2.7280 h1        1 A24      0.071700
     39 HO41        1.7310    3.2720    1.7070 ho        1 A24      0.436000
     40 H51        -1.9190    1.4620    1.5430 h1        1 A24      0.069700
     41 H61        -1.6990    4.0490    0.9400 h1        1 A24      0.061200
     42 H62        -0.9850    3.4590   -0.6470 h1        1 A24      0.061200
     43 HO1        -3.3320    3.6910   -0.5900 ho        1 A24      0.411000
     44 H2'1       -2.2320   -2.9250    1.9760 ha        1 A24      0.213000
     45 H4'1       -5.0970   -3.2850   -1.2810 ha        1 A24      0.169000
     46 H6'1       -2.0480   -0.1600   -1.3890 ha        1 A24      0.202000
     47 HN21       -5.9370   -1.2430   -3.7800 hn        1 A24      0.457300
     48 H3'1       -8.6590    1.9140   -0.6590 h1        1 A24      0.046950
     49 H3'2       -9.8520    1.8500   -2.0420 h1        1 A24      0.046950
     50 H5'1       -6.8810    2.8160   -4.3180 h1        1 A24      0.046950
     51 H5'2       -8.6640    2.4590   -4.4890 h1        1 A24      0.046950
     52 H6A1       -7.3300    4.8840   -3.0720 h1        1 A24      0.067950
     53 H6'2       -8.4750    4.8640   -4.5140 h1        1 A24      0.067950
     54 H7'1       -8.0360    0.0860   -2.0050 h1        1 A24      0.052700
     55 H7'2       -7.8310    0.3640   -3.7960 h1        1 A24      0.052700
     56 H8'1       -5.4160    1.0870   -3.4020 hx        1 A24      0.120200
     57 H8'2       -5.6290    0.7830   -1.6060 hx        1 A24      0.120200
     58 H2A1       -8.3960    4.3410   -0.8830 h1        1 A24      0.067950
     59 H2'2       -6.0980   -1.5320   -2.1440 hn        1 A24      0.457300
     60 H2'3      -10.2000    3.9840   -0.9730 h1        1 A24      0.067950
@<TRIPOS>BOND
     1    1    2 1   
     2    1    3 1   
     3    1   10 1   
     4    1   33 1   
     5    2   13 1   
     6    3    4 1   
     7    3    5 1   
     8    3   34 1   
     9    4   35 1   
    10    5    6 1   
    11    5    7 1   
    12    5   36 1   
    13    6   37 1   
    14    7    8 1   
    15    7    9 1   
    16    7   38 1   
    17    8   39 1   
    18    9   10 1   
    19    9   11 1   
    20    9   40 1   
    21   11   12 1   
    22   11   41 1   
    23   11   42 1   
    24   12   43 1   
    25   13   14 ar  
    26   13   18 ar  
    27   14   15 ar  
    28   14   44 1   
    29   15   16 ar  
    30   15   19 1   
    31   16   17 ar  
    32   16   45 1   
    33   17   18 ar  
    34   17   22 1   
    35   18   46 1   
    36   19   20 1   
    37   19   21 1   
    38   22   23 2   
    39   22   24 1   
    40   24   32 1   
    41   24   47 1   
    42   24   59 1   
    43   25   26 1   
    44   25   30 1   
    45   26   27 1   
    46   26   58 1   
    47   26   60 1   
    48   27   28 1   
    49   27   48 1   
    50   27   49 1   
    51   28   29 1   
    52   28   31 1   
    53   29   30 1   
    54   29   50 1   
    55   29   51 1   
    56   30   52 1   
    57   30   53 1   
    58   31   32 1   
    59   31   54 1   
    60   31   55 1   
    61   32   56 1   
    62   32   57 1   
@<TRIPOS>SUBSTRUCTURE
     1 A24         1 TEMP              0 ****  ****    0 ROOT
