@<TRIPOS>MOLECULE
A25
   43    45     1     0     0
SMALL
bcc


@<TRIPOS>ATOM
      1 C1         -0.0610   -0.2850    0.1260 ca        1 A25     -0.169000
      2 C2          1.3340   -0.1980   -0.0230 ca        1 A25      0.211100
      3 C3          2.1250    0.2290    1.0790 ca        1 A25     -0.143400
      4 C4          1.5210    0.5170    2.3240 ca        1 A25     -0.084000
      5 C5          0.1410    0.4150    2.4460 ca        1 A25      0.008400
      6 C6         -0.6490    0.0120    1.3450 ca        1 A25      0.003000
      7 CL7        -0.5960    0.7720    3.9160 cl        1 A25      0.024600
      8 O8          2.0290   -0.5050   -1.1560 os        1 A25     -0.379900
      9 C9          1.3050   -0.5100   -2.4150 c3        1 A25      0.139400
     10 N10         3.5650    0.3970    0.8970 n4        1 A25     -0.456200
     11 C11         4.3450   -0.8090    1.3200 c         1 A25      0.494100
     12 N12         5.8200   -0.6320    1.5830 n4        1 A25     -0.625500
     13 O13         3.8640   -1.9200    1.4460 o         1 A25     -0.280100
     14 C14         6.5370    0.1550    0.5560 ca        1 A25      0.293900
     15 N15         6.0530    0.0570   -0.7330 nb        1 A25     -0.793000
     16 C16         6.7950    0.6690   -1.6770 ca        1 A25      0.606300
     17 C17         8.0010    1.4360   -1.3190 ca        1 A25      0.386900
     18 N18         8.4040    1.5320   -0.0660 nb        1 A25     -0.558000
     19 C19         7.6910    0.8810    0.9030 ca        1 A25      0.350900
     20 O20         6.5090    0.6870   -2.9930 os        1 A25     -0.405100
     21 C21         5.5820   -0.2610   -3.5900 c3        1 A25      0.131400
     22 C22         4.4990    0.5290   -4.2980 c3        1 A25     -0.111400
     23 C23         2.3840   -0.5560   -3.4800 c3        1 A25     -0.099400
     24 C24         3.2400    0.6950   -3.4770 c3        1 A25     -0.073400
     25 H12         5.9640   -0.1880    2.5040 hn        1 A25      0.503300
     26 H19         8.0980    0.9690    1.9290 h4        1 A25      0.080100
     27 H17         8.5850    1.9450   -2.1170 h4        1 A25      0.114100
     28 H211        5.1710   -0.9830   -2.8460 h1        1 A25      0.086200
     29 H212        6.2350   -0.8030   -4.3320 h1        1 A25      0.086200
     30 H221        4.9040    1.5420   -4.5750 hc        1 A25      0.093700
     31 H222        4.2560   -0.0000   -5.2600 hc        1 A25      0.093700
     32 H241        3.5160    0.9600   -2.4210 hc        1 A25      0.039700
     33 H242        2.6440    1.5530   -3.8900 hc        1 A25      0.039700
     34 H231        3.0240   -1.4640   -3.3200 hc        1 A25      0.081700
     35 H232        1.8750   -0.6720   -4.4750 hc        1 A25      0.081700
     36 H91         0.6610   -1.4280   -2.4410 h1        1 A25      0.077700
     37 H92         0.6810    0.4170   -2.4850 h1        1 A25      0.077700
     38 H1         -0.6820   -0.6030   -0.7290 ha        1 A25      0.193000
     39 H6         -1.7480   -0.0700    1.4620 ha        1 A25      0.204000
     40 H4          2.1250    0.8330    3.1910 ha        1 A25      0.165000
     41 H10         3.7330    0.5280   -0.1290 hn        1 A25      0.504800
     42 H102        3.8740    1.2320    1.4130 hn        1 A25      0.504800
     43 H122        6.2370   -1.5870    1.6090 hn        1 A25      0.503300
@<TRIPOS>BOND
     1    1    2 ar  
     2    1    6 ar  
     3    1   38 1   
     4    2    3 ar  
     5    2    8 1   
     6    3    4 ar  
     7    3   10 1   
     8    4    5 ar  
     9    4   40 1   
    10    5    6 ar  
    11    5    7 1   
    12    6   39 1   
    13    8    9 1   
    14    9   23 1   
    15    9   36 1   
    16    9   37 1   
    17   10   11 1   
    18   10   41 1   
    19   10   42 1   
    20   11   12 1   
    21   11   13 2   
    22   12   14 1   
    23   12   25 1   
    24   12   43 1   
    25   14   15 ar  
    26   14   19 ar  
    27   15   16 ar  
    28   16   17 ar  
    29   16   20 1   
    30   17   18 ar  
    31   17   27 1   
    32   18   19 ar  
    33   19   26 1   
    34   20   21 1   
    35   21   22 1   
    36   21   28 1   
    37   21   29 1   
    38   22   24 1   
    39   22   30 1   
    40   22   31 1   
    41   23   24 1   
    42   23   34 1   
    43   23   35 1   
    44   24   32 1   
    45   24   33 1   
@<TRIPOS>SUBSTRUCTURE
     1 A25         1 TEMP              0 ****  ****    0 ROOT
