@<TRIPOS>MOLECULE
A25
   41    38     1     0     0
SMALL
bcc


@<TRIPOS>ATOM
      1 C1         -3.4710    0.2720    1.0220 c1        1 A25     -0.133000
      2 C2         -2.0850    0.2720    1.0220 c1        1 A25      0.009000
      3 C3         -1.3920    0.2720    2.2230 c1        1 A25      0.081000
      4 C4         -2.0860    0.2720    3.4230 c1        1 A25     -0.133000
      5 C5         -3.4720    0.2720    3.4220 c1        1 A25     -0.051000
      6 C6         -4.1650    0.2720    2.2220 c1        1 A25     -0.133000
      7 CL7        -4.3440    0.2280    4.9310 cl        1 A25     -0.008000
      8 O8         -1.3820    0.1860   -0.1950 os        1 A25     -0.238000
      9 C9         -2.0860    0.7140   -1.3020 c3        1 A25     -0.019000
     10 N10         0.0240    0.3630    2.2230 n         1 A25     -0.300000
     11 C11         0.5800   -0.9200    2.4540 c2        1 A25      0.418000
     12 N12         1.9720   -0.7950    2.7050 n         1 A25     -0.321000
     13 O13        -0.0670   -1.7670    3.0360 o         1 A25     -0.385000
     14 C14         2.6790   -0.8120    1.4720 c2        1 A25      0.134000
     15 N15         2.2010   -0.0570    0.3840 n2        1 A25     -0.247000
     16 C16         2.9560   -0.1240   -0.8030 c1        1 A25      0.133000
     17 C17         4.1040   -0.8980   -0.8680 c1        1 A25     -0.170000
     18 N18         4.5190   -1.6010    0.1990 n1        1 A25     -0.048000
     19 C19         3.8330   -1.5700    1.3550 c1        1 A25     -0.205000
     20 O20         2.5450    0.6060   -1.9300 os        1 A25     -0.196000
     21 C21         1.7990   -0.2340   -2.7910 c3        1 A25     -0.020000
     22 C22         0.8660    0.6090   -3.6330 c3        1 A25     -0.183000
     23 C23        -1.3540    0.3630   -2.5790 c3        1 A25     -0.166000
     24 C24        -0.1570    1.2740   -2.7400 c3        1 A25     -0.159000
     25 H12         2.3380   -1.1790    3.4460 hn        1 A25      0.266000
     26 H19         4.1510   -2.0880    2.1190 ha        1 A25      0.175000
     27 H17         4.6160   -0.9330   -1.6990 ha        1 A25      0.190000
     28 H211        1.2770   -0.8640   -2.2590 h1        1 A25      0.112500
     29 H212        2.4080   -0.7260   -3.3730 h1        1 A25      0.112500
     30 H221        0.4100    0.0390   -4.2820 hc        1 A25      0.094500
     31 H222        1.3800    1.2920   -4.1040 hc        1 A25      0.094500
     32 H241        0.2390    1.4480   -1.8660 hc        1 A25      0.090500
     33 H242       -0.4410    2.1160   -3.1430 hc        1 A25      0.090500
     34 H231       -1.9540    0.4770   -3.3400 hc        1 A25      0.094500
     35 H232       -1.0530   -0.5650   -2.5380 hc        1 A25      0.094500
     36 H91        -2.1460    1.6840   -1.2170 h1        1 A25      0.081500
     37 H92        -2.9850    0.3330   -1.3270 h1        1 A25      0.081500
     38 H1         -3.9600    0.2720    0.1770 ha        1 A25      0.148000
     39 H6         -5.1410    0.2720    2.2220 ha        1 A25      0.148000
     40 H4         -1.5980    0.2720    4.2680 ha        1 A25      0.187000
     41 H10         0.4440    0.9480    1.6640 hn        1 A25      0.278000
@<TRIPOS>BOND
     1    1    6 1   
     2    1   38 1   
     3    2    3 1   
     4    2    8 1   
     5    3   10 1   
     6    4    5 1   
     7    4   40 1   
     8    5    7 1   
     9    6   39 1   
    10    8    9 1   
    11    9   23 1   
    12    9   36 1   
    13    9   37 1   
    14   10   11 1   
    15   10   41 1   
    16   11   12 1   
    17   11   13 1   
    18   12   14 1   
    19   12   25 1   
    20   14   15 1   
    21   14   19 1   
    22   15   16 1   
    23   16   20 1   
    24   17   18 1   
    25   17   27 1   
    26   19   26 1   
    27   20   21 1   
    28   21   22 1   
    29   21   28 1   
    30   21   29 1   
    31   22   24 1   
    32   22   30 1   
    33   22   31 1   
    34   23   24 1   
    35   23   34 1   
    36   23   35 1   
    37   24   32 1   
    38   24   33 1   
@<TRIPOS>SUBSTRUCTURE
     1 A25         1 TEMP              0 ****  ****    0 ROOT
