@<TRIPOS>MOLECULE
A25
   41    43     1     0     0
SMALL
bcc


@<TRIPOS>ATOM
      1 C1         -1.0140   -1.4910   -0.6730 ca        1 A25     -0.137000
      2 C2         -1.9690   -1.9620   -1.5780 ca        1 A25      0.057100
      3 C3         -1.7870   -1.8020   -2.9820 ca        1 A25      0.060600
      4 C4         -0.6200   -1.1500   -3.4290 ca        1 A25     -0.122000
      5 C5          0.3220   -0.6920   -2.5070 ca        1 A25      0.024400
      6 C6          0.1360   -0.8570   -1.1320 ca        1 A25     -0.127000
      7 CL7         1.7260    0.0820   -3.0730 cl        1 A25     -0.085400
      8 O8         -3.1700   -2.4970   -1.1300 os        1 A25     -0.345900
      9 C9         -3.0500   -3.6370   -0.2720 c3        1 A25      0.128400
     10 N10        -2.7390   -2.3350   -3.8710 n         1 A25     -0.429100
     11 C11        -3.0660   -1.7110   -5.0760 c         1 A25      0.781100
     12 N12        -4.1960   -2.1260   -5.8320 n         1 A25     -0.542400
     13 O13        -2.4200   -0.7480   -5.5500 o         1 A25     -0.615100
     14 C14        -4.7270   -3.4140   -5.9490 ca        1 A25      0.466900
     15 N15        -4.2670   -4.4490   -5.1780 nb        1 A25     -0.768000
     16 C16        -4.8630   -5.6490   -5.3770 ca        1 A25      0.565300
     17 C17        -5.9200   -5.8460   -6.3270 ca        1 A25      0.230900
     18 N18        -6.3680   -4.8270   -7.0710 nb        1 A25     -0.575000
     19 C19        -5.7920   -3.6260   -6.9000 ca        1 A25      0.197900
     20 O20        -4.4780   -6.7870   -4.7160 os        1 A25     -0.440100
     21 C21        -3.5180   -6.7120   -3.6490 c3        1 A25      0.131400
     22 C22        -4.2330   -6.6960   -2.3090 c3        1 A25     -0.107400
     23 C23        -2.9460   -4.9260   -1.0670 c3        1 A25     -0.114400
     24 C24        -4.2810   -5.3340   -1.6530 c3        1 A25     -0.079400
     25 H12        -4.3700   -1.5300   -6.6190 hn        1 A25      0.344500
     26 H19        -6.1790   -2.8050   -7.5250 h4        1 A25      0.039100
     27 H17        -6.3790   -6.8380   -6.4630 h4        1 A25      0.052100
     28 H211       -2.8120   -5.8540   -3.7650 h1        1 A25      0.071200
     29 H212       -2.9530   -7.6780   -3.7790 h1        1 A25      0.071200
     30 H221       -3.7160   -7.4190   -1.6240 hc        1 A25      0.057700
     31 H222       -5.2830   -7.0690   -2.4550 hc        1 A25      0.057700
     32 H241       -5.0490   -5.3590   -0.8340 hc        1 A25      0.050200
     33 H242       -4.6140   -4.5590   -2.3930 hc        1 A25      0.050200
     34 H231       -2.5700   -5.7330   -0.3840 hc        1 A25      0.053200
     35 H232       -2.1920   -4.7950   -1.8880 hc        1 A25      0.053200
     36 H91        -4.0020   -3.6040    0.3270 h1        1 A25      0.057200
     37 H92        -2.1710   -3.5300    0.4140 h1        1 A25      0.057200
     38 H1         -1.1830   -1.6100    0.4070 ha        1 A25      0.146000
     39 H6          0.8830   -0.4830   -0.4170 ha        1 A25      0.151000
     40 H4         -0.4570   -0.9890   -4.5090 ha        1 A25      0.184000
     41 H10        -3.3980   -2.9590   -3.4500 hn        1 A25      0.349500
@<TRIPOS>BOND
     1    1    2 ar  
     2    1    6 ar  
     3    1   38 1   
     4    2    3 ar  
     5    2    8 1   
     6    3    4 ar  
     7    3   10 1   
     8    4    5 ar  
     9    4   40 1   
    10    5    6 ar  
    11    5    7 1   
    12    6   39 1   
    13    8    9 1   
    14    9   23 1   
    15    9   36 1   
    16    9   37 1   
    17   10   11 1   
    18   10   41 1   
    19   11   12 1   
    20   11   13 2   
    21   12   14 1   
    22   12   25 1   
    23   14   15 ar  
    24   14   19 ar  
    25   15   16 ar  
    26   16   17 ar  
    27   16   20 1   
    28   17   18 ar  
    29   17   27 1   
    30   18   19 ar  
    31   19   26 1   
    32   20   21 1   
    33   21   22 1   
    34   21   28 1   
    35   21   29 1   
    36   22   24 1   
    37   22   30 1   
    38   22   31 1   
    39   23   24 1   
    40   23   34 1   
    41   23   35 1   
    42   24   32 1   
    43   24   33 1   
@<TRIPOS>SUBSTRUCTURE
     1 A25         1 TEMP              0 ****  ****    0 ROOT
