@<TRIPOS>MOLECULE
A25
   41    43     1     0     0
SMALL
bcc


@<TRIPOS>ATOM
      1 C1         -0.2160    0.0210    0.0930 ca        1 A25     -0.137000
      2 C2          1.1330    0.3600   -0.0450 ca        1 A25      0.057100
      3 C3          2.1110   -0.1580    0.8520 ca        1 A25      0.060600
      4 C4          1.6770   -1.0150    1.8830 ca        1 A25     -0.122000
      5 C5          0.3260   -1.3430    1.9980 ca        1 A25      0.024400
      6 C6         -0.6260   -0.8320    1.1120 ca        1 A25     -0.127000
      7 Cl7        -0.1700   -2.3870    3.2460 cl        1 A25     -0.085400
      8 O8          1.5390    1.2950   -0.9870 os        1 A25     -0.345900
      9 C9          1.2180    0.9740   -2.3460 c3        1 A25      0.128400
     10 N10         3.4690    0.1560    0.6560 ns        1 A25     -0.429100
     11 C11         4.3560    0.3290    1.7200 c         1 A25      0.781100
     12 N12         5.6470    0.8860    1.5120 ns        1 A25     -0.542400
     13 O13         4.0740    0.0400    2.9050 o         1 A25     -0.615100
     14 C14         6.4690    0.7600    0.3880 ca        1 A25      0.466900
     15 N15         6.0190    0.1660   -0.7620 nb        1 A25     -0.768000
     16 C16         6.9040    0.1070   -1.7860 ca        1 A25      0.565300
     17 C17         8.2360    0.6350   -1.6960 ca        1 A25      0.230900
     18 N18         8.6640    1.2190   -0.5700 nb        1 A25     -0.575000
     19 C19         7.8100    1.2870    0.4640 ca        1 A25      0.197900
     20 O20         6.6150   -0.5000   -2.9810 os        1 A25     -0.440100
     21 C21         5.2820   -0.9600   -3.2540 c3        1 A25      0.131400
     22 C22         4.5400    0.0670   -4.0910 c3        1 A25     -0.107400
     23 C23         2.2830    0.0970   -2.9780 c3        1 A25     -0.114400
     24 C24         3.5320    0.8840   -3.3140 c3        1 A25     -0.079400
     25 H12         6.1380    1.0450    2.3720 hn        1 A25      0.344500
     26 H19         8.1880    1.7730    1.3780 h4        1 A25      0.039100
     27 H17         8.9280    0.5660   -2.5490 h4        1 A25      0.052100
     28 H211        4.7240   -1.2350   -2.3260 h1        1 A25      0.071200
     29 H212        5.4780   -1.8900   -3.8590 h1        1 A25      0.071200
     30 H221        4.0160   -0.4700   -4.9260 hc        1 A25      0.057700
     31 H222        5.2900    0.7600   -4.5610 hc        1 A25      0.057700
     32 H241        3.2480    1.7790   -3.9290 hc        1 A25      0.050200
     33 H242        3.9940    1.2690   -2.3660 hc        1 A25      0.050200
     34 H231        2.5370   -0.7420   -2.2780 hc        1 A25      0.053200
     35 H232        1.8590   -0.3550   -3.9140 hc        1 A25      0.053200
     36 H91         0.2150    0.4790   -2.4130 h1        1 A25      0.057200
     37 H92         1.1750    1.9830   -2.8410 h1        1 A25      0.057200
     38 H1         -0.9570    0.4470   -0.6000 ha        1 A25      0.146000
     39 H6         -1.6890   -1.0930    1.2200 ha        1 A25      0.151000
     40 H4          2.4050   -1.4180    2.6100 ha        1 A25      0.184000
     41 H10         3.6740    0.5830   -0.2260 hn        1 A25      0.349500
@<TRIPOS>BOND
     1    1    2 ar  
     2    1    6 ar  
     3    1   38 1   
     4    2    3 ar  
     5    2    8 1   
     6    3    4 ar  
     7    3   10 1   
     8    4    5 ar  
     9    4   40 1   
    10    5    6 ar  
    11    5    7 1   
    12    6   39 1   
    13    8    9 1   
    14    9   23 1   
    15    9   36 1   
    16    9   37 1   
    17   10   11 1   
    18   10   41 1   
    19   11   12 1   
    20   11   13 2   
    21   12   14 1   
    22   12   25 1   
    23   14   15 ar  
    24   14   19 ar  
    25   15   16 ar  
    26   16   17 ar  
    27   16   20 1   
    28   17   18 ar  
    29   17   27 1   
    30   18   19 ar  
    31   19   26 1   
    32   20   21 1   
    33   21   22 1   
    34   21   28 1   
    35   21   29 1   
    36   22   24 1   
    37   22   30 1   
    38   22   31 1   
    39   23   24 1   
    40   23   34 1   
    41   23   35 1   
    42   24   32 1   
    43   24   33 1   
@<TRIPOS>SUBSTRUCTURE
     1 A25         1 TEMP              0 ****  ****    0 ROOT
