@<TRIPOS>MOLECULE
A26
   29    29     1     0     0
SMALL
bcc


@<TRIPOS>ATOM
      1 C1          0.1400    0.5210   -0.3550 ca        1 A26     -0.105500
      2 C2          1.3630   -0.0360    0.0110 ca        1 A26     -0.060000
      3 C3          1.6390   -0.2900    1.3570 ca        1 A26     -0.120300
      4 C4          0.7010    0.0080    2.3460 ca        1 A26     -0.060000
      5 C5         -0.5280    0.5670    1.9980 ca        1 A26     -0.105500
      6 C6         -0.8030    0.8240    0.6440 ca        1 A26     -0.027400
      7 C11         2.9950   -0.8870    1.7520 c3        1 A26      0.688200
      8 F12         3.9540    0.0610    2.0000 f         1 A26     -0.215633
      9 F13         2.9520   -1.6550    2.8870 f         1 A26     -0.215633
     10 F14         3.5410   -1.7020    0.7930 f         1 A26     -0.215633
     11 N15        -2.0820    1.4330    0.2620 n4        1 A26     -0.546200
     12 C16        -2.9130    0.5040   -0.6270 c         1 A26      0.594300
     13 C17        -3.8520   -0.3710    0.0420 ce        1 A26     -0.222900
     14 C18        -3.9670   -0.3300    1.4500 cg        1 A26      0.163500
     15 C19        -4.6350   -1.2480   -0.6970 c2        1 A26      0.317900
     16 O20        -4.4690   -1.2320   -2.0350 oh        1 A26     -0.438100
     17 C21        -5.6290   -2.1670   -0.0990 c3        1 A26     -0.148900
     18 O25        -2.6890    0.6340   -1.8240 o         1 A26     -0.431100
     19 N26        -4.0610   -0.2960    2.6100 n1        1 A26     -0.299800
     20 H11        -0.0750    0.7130   -1.4220 ha        1 A26      0.173000
     21 H21         2.1110   -0.2810   -0.7640 ha        1 A26      0.188000
     22 H41         0.9290   -0.2020    3.4070 ha        1 A26      0.188000
     23 H51        -1.2580    0.7950    2.7930 ha        1 A26      0.173000
     24 HN11       -2.6100    1.6840    1.1050 hn        1 A26      0.466300
     25 HO20       -5.0700   -1.8760   -2.4580 ho        1 A26      0.475000
     26 H211       -5.4300   -2.3420    0.9890 hc        1 A26      0.107033
     27 H212       -6.6550   -1.7210   -0.2000 hc        1 A26      0.107033
     28 H213       -5.6210   -3.1570   -0.6250 hc        1 A26      0.107033
     29 H152       -1.8780    2.2890   -0.2740 hn        1 A26      0.466300
@<TRIPOS>BOND
     1    1    2 ar  
     2    1    6 ar  
     3    1   20 1   
     4    2    3 ar  
     5    2   21 1   
     6    3    4 ar  
     7    3    7 1   
     8    4    5 ar  
     9    4   22 1   
    10    5    6 ar  
    11    5   23 1   
    12    6   11 1   
    13    7    8 1   
    14    7    9 1   
    15    7   10 1   
    16   11   12 1   
    17   11   24 1   
    18   11   29 1   
    19   12   13 1   
    20   12   18 2   
    21   13   14 1   
    22   13   15 2   
    23   14   19 3   
    24   15   16 1   
    25   15   17 1   
    26   16   25 1   
    27   17   26 1   
    28   17   27 1   
    29   17   28 1   
@<TRIPOS>SUBSTRUCTURE
     1 A26         1 TEMP              0 ****  ****    0 ROOT
