@<TRIPOS>MOLECULE
A26
   28    28     1     0     0
SMALL
bcc


@<TRIPOS>ATOM
      1 C1          0.2120   -0.1080   -0.1200 ca        1 A26     -0.181500
      2 C2          1.5910   -0.0250    0.0430 ca        1 A26     -0.052000
      3 C3          2.1560   -0.0170    1.3180 ca        1 A26     -0.205300
      4 C4          1.3350   -0.0930    2.4450 ca        1 A26     -0.052000
      5 C5         -0.0430   -0.1760    2.3000 ca        1 A26     -0.181500
      6 C6         -0.6340   -0.1850    1.0090 ca        1 A26      0.108600
      7 C11         3.6630    0.0900    1.4840 c3        1 A26      0.692200
      8 F12         4.1310    1.3790    1.5900 f         1 A26     -0.239633
      9 F13         4.1620   -0.5340    2.6030 f         1 A26     -0.239633
     10 F14         4.3950   -0.4430    0.4510 f         1 A26     -0.239633
     11 N15        -2.0270   -0.2770    0.9220 ns        1 A26     -0.468100
     12 C16        -2.8080   -0.2420   -0.2310 c         1 A26      0.707300
     13 C17        -4.2820   -0.3390   -0.0010 ce        1 A26     -0.169900
     14 C18        -4.8290    0.4710    1.0210 cg        1 A26      0.199500
     15 C19        -5.0680   -1.1430   -0.7720 c2        1 A26      0.208900
     16 O20        -4.4480   -1.9450   -1.6890 oh        1 A26     -0.461100
     17 C21        -6.5460   -1.2270   -0.6700 c3        1 A26     -0.121900
     18 O25        -2.3360   -0.1390   -1.3740 o         1 A26     -0.558100
     19 N26        -5.2600    1.1470    1.8660 n1        1 A26     -0.361800
     20 H11        -0.2050   -0.1130   -1.1410 ha        1 A26      0.161000
     21 H21         2.2420    0.0300   -0.8460 ha        1 A26      0.151500
     22 H41         1.7840   -0.0910    3.4510 ha        1 A26      0.151500
     23 H51        -0.6700   -0.2340    3.2030 ha        1 A26      0.161000
     24 HN11       -2.5090   -0.3470    1.7930 hn        1 A26      0.325500
     25 HO20       -5.1270   -2.3870   -2.2230 ho        1 A26      0.434000
     26 H211       -6.9350   -0.5990    0.1690 hc        1 A26      0.077367
     27 H212       -6.8600   -2.2880   -0.4960 hc        1 A26      0.077367
     28 H213       -7.0100   -0.8690   -1.6250 hc        1 A26      0.077367
@<TRIPOS>BOND
     1    1    2 ar  
     2    1    6 ar  
     3    1   20 1   
     4    2    3 ar  
     5    2   21 1   
     6    3    4 ar  
     7    3    7 1   
     8    4    5 ar  
     9    4   22 1   
    10    5    6 ar  
    11    5   23 1   
    12    6   11 1   
    13    7    8 1   
    14    7    9 1   
    15    7   10 1   
    16   11   12 1   
    17   11   24 1   
    18   12   13 1   
    19   12   18 2   
    20   13   14 1   
    21   13   15 2   
    22   14   19 3   
    23   15   16 1   
    24   15   17 1   
    25   16   25 1   
    26   17   26 1   
    27   17   27 1   
    28   17   28 1   
@<TRIPOS>SUBSTRUCTURE
     1 A26         1 TEMP              0 ****  ****    0 ROOT
