@<TRIPOS>MOLECULE
A26
   28    24     1     0     0
SMALL
bcc


@<TRIPOS>ATOM
      1 C1          1.5070   -0.6720   -0.8430 c1        1 A26     -0.168000
      2 C2          2.8890   -0.7760   -0.8750 c1        1 A26     -0.052000
      3 C3          3.6080   -0.8250    0.3090 c1        1 A26     -0.198000
      4 C4          2.9450   -0.7700    1.5250 c1        1 A26     -0.123500
      5 C5          1.5630   -0.6660    1.5570 c1        1 A26     -0.123500
      6 C6          0.8440   -0.6170    0.3730 c1        1 A26      0.116000
      7 C11         5.1180   -0.9100    0.2750 c3        1 A26      0.471000
      8 F12         5.6180   -0.4530    1.4300 f         1 A26     -0.168333
      9 F13         5.4900   -2.1850    0.1010 f         1 A26     -0.168333
     10 F14         5.5840   -0.1670   -0.7380 f         1 A26     -0.168333
     11 N15        -0.5740   -0.5570    0.4050 n         1 A26     -0.322000
     12 C16        -1.2430    0.6280    0.0030 c2        1 A26      0.382000
     13 C17        -2.7510    0.7160    0.1040 c2        1 A26     -0.184000
     14 C18        -3.4410    0.3960    1.4110 c1        1 A26     -0.093000
     15 C19        -3.4770    1.0790   -0.9710 c1        1 A26      0.169000
     16 O20        -2.8350    1.3770   -2.1870 o         1 A26     -0.216000
     17 C21        -4.9840    1.1670   -0.8700 c3        1 A26     -0.244000
     18 O25        -0.6020    1.5900   -0.3700 o         1 A26     -0.319000
     19 N26        -3.9620    0.1540    2.3970 n1        1 A26     -0.036000
     20 H11         1.0010   -0.6380   -1.6770 ha        1 A26      0.182000
     21 H21         3.3560   -0.8150   -1.7310 ha        1 A26      0.153000
     22 H41         3.4510   -0.8040    2.3590 ha        1 A26      0.145000
     23 H51         1.0960   -0.6280    2.4130 ha        1 A26      0.145000
     24 HN11       -1.0540   -1.2750    0.6980 hn        1 A26      0.239000
     25 HO20       -3.2150    2.0920   -2.5550 ho        1 A26      0.233000
     26 H211       -5.3090    0.4960   -0.2330 hc        1 A26      0.116667
     27 H212       -5.2390    2.0610   -0.5600 hc        1 A26      0.116667
     28 H213       -5.3810    1.0010   -1.7500 hc        1 A26      0.116667
@<TRIPOS>BOND
     1    1    6 1   
     2    1   20 1   
     3    2    3 1   
     4    2   21 1   
     5    3    7 1   
     6    4    5 1   
     7    4   22 1   
     8    5   23 1   
     9    6   11 1   
    10    7    8 1   
    11    7    9 1   
    12    7   10 1   
    13   11   12 1   
    14   11   24 1   
    15   12   13 1   
    16   12   18 1   
    17   13   14 1   
    18   13   15 1   
    19   14   19 1   
    20   15   17 1   
    21   16   25 1   
    22   17   26 1   
    23   17   27 1   
    24   17   28 1   
@<TRIPOS>SUBSTRUCTURE
     1 A26         1 TEMP              0 ****  ****    0 ROOT
