@<TRIPOS>MOLECULE
A26
   28    28     1     0     0
SMALL
bcc


@<TRIPOS>ATOM
      1 C1          0.2120   -0.0830   -0.1500 ca        1 A26     -0.181500
      2 C2          1.5890    0.0070    0.0180 ca        1 A26     -0.052000
      3 C3          2.1520   -0.0160    1.2950 ca        1 A26     -0.205300
      4 C4          1.3290   -0.1300    2.4170 ca        1 A26     -0.052000
      5 C5         -0.0480   -0.2200    2.2670 ca        1 A26     -0.181500
      6 C6         -0.6360   -0.1980    0.9750 ca        1 A26      0.108600
      7 C11         3.6580    0.1000    1.4680 c3        1 A26      0.692200
      8 F12         4.1140    1.3890    1.6080 f         1 A26     -0.239633
      9 F13         4.1590   -0.5490    2.5710 f         1 A26     -0.239633
     10 F14         4.3960   -0.4000    0.4220 f         1 A26     -0.239633
     11 N15        -2.0280   -0.3000    0.8820 n         1 A26     -0.468100
     12 C16        -2.8060   -0.2390   -0.2720 c         1 A26      0.707300
     13 C17        -4.2800   -0.3560   -0.0480 ce        1 A26     -0.169900
     14 C18        -4.8370    0.4190    0.9960 cg        1 A26      0.199500
     15 C19        -5.0570   -1.1450   -0.8440 c2        1 A26      0.208900
     16 O20        -4.4270   -1.9130   -1.7830 oh        1 A26     -0.461100
     17 C21        -6.5350   -1.2460   -0.7480 c3        1 A26     -0.121900
     18 O25        -2.3330   -0.0980   -1.4100 o         1 A26     -0.558100
     19 N26        -5.2760    1.0660    1.8590 n1        1 A26     -0.361800
     20 H11        -0.2030   -0.0630   -1.1710 ha        1 A26      0.161000
     21 H21         2.2420    0.0920   -0.8660 ha        1 A26      0.151500
     22 H41         1.7760   -0.1520    3.4240 ha        1 A26      0.151500
     23 H51        -0.6760   -0.3080    3.1670 ha        1 A26      0.161000
     24 HN11       -2.5120   -0.3990    1.7490 hn        1 A26      0.325500
     25 HO20       -5.1010   -2.3460   -2.3310 ho        1 A26      0.434000
     26 H211       -6.9310   -0.6450    0.1070 hc        1 A26      0.077367
     27 H212       -6.8380   -2.3140   -0.6050 hc        1 A26      0.077367
     28 H213       -6.9990   -0.8650   -1.6940 hc        1 A26      0.077367
@<TRIPOS>BOND
     1    1    2 ar  
     2    1    6 ar  
     3    1   20 1   
     4    2    3 ar  
     5    2   21 1   
     6    3    4 ar  
     7    3    7 1   
     8    4    5 ar  
     9    4   22 1   
    10    5    6 ar  
    11    5   23 1   
    12    6   11 1   
    13    7    8 1   
    14    7    9 1   
    15    7   10 1   
    16   11   12 1   
    17   11   24 1   
    18   12   13 1   
    19   12   18 2   
    20   13   14 1   
    21   13   15 2   
    22   14   19 3   
    23   15   16 1   
    24   15   17 1   
    25   16   25 1   
    26   17   26 1   
    27   17   27 1   
    28   17   28 1   
@<TRIPOS>SUBSTRUCTURE
     1 A26         1 TEMP              0 ****  ****    0 ROOT
