@<TRIPOS>MOLECULE
A26
   28    28     1     0     0
SMALL
bcc


@<TRIPOS>ATOM
      1 C1         -0.7680    0.7780   -0.5210 ca        1 A26     -0.181500
      2 C2         -2.1550    0.8670   -0.5200 ca        1 A26     -0.052000
      3 C3         -2.9320   -0.1500    0.0360 ca        1 A26     -0.205300
      4 C4         -2.3140   -1.2700    0.5980 ca        1 A26     -0.052000
      5 C5         -0.9300   -1.3750    0.6040 ca        1 A26     -0.181500
      6 C6         -0.1270   -0.3480    0.0410 ca        1 A26      0.108600
      7 C11        -4.4480   -0.0510    0.0180 c3        1 A26      0.692200
      8 F12        -5.0390   -0.6090   -1.0910 f         1 A26     -0.239633
      9 F13        -5.0760   -0.6700    1.0730 f         1 A26     -0.239633
     10 F14        -4.9400    1.2320    0.0440 f         1 A26     -0.239633
     11 N15         1.2640   -0.5030    0.0820 n         1 A26     -0.468100
     12 C16         2.2260    0.3470   -0.4600 c         1 A26      0.707300
     13 C17         3.6400   -0.1010   -0.2760 ce        1 A26     -0.169900
     14 C18         3.9290   -1.4570   -0.5560 cg        1 A26      0.199500
     15 C19         4.6160    0.7730    0.1040 c2        1 A26      0.208900
     16 O20         4.2370    2.0470    0.4220 oh        1 A26     -0.461100
     17 C21         6.0560    0.4320    0.2200 c3        1 A26     -0.121900
     18 O25         1.9510    1.4010   -1.0540 o         1 A26     -0.558100
     19 N26         4.1460   -2.5760   -0.7930 n1        1 A26     -0.361800
     20 H11        -0.1810    1.5980   -0.9680 ha        1 A26      0.161000
     21 H21        -2.6450    1.7520   -0.9590 ha        1 A26      0.151500
     22 H41        -2.9290   -2.0700    1.0410 ha        1 A26      0.151500
     23 H51        -0.4660   -2.2670    1.0520 ha        1 A26      0.161000
     24 HN11        1.5920   -1.3330    0.5260 hn        1 A26      0.325500
     25 HO20        5.0350    2.5770    0.5820 ho        1 A26      0.434000
     26 H211        6.2370   -0.6530    0.0240 hc        1 A26      0.077367
     27 H212        6.6440    1.0290   -0.5230 hc        1 A26      0.077367
     28 H213        6.4270    0.6750    1.2480 hc        1 A26      0.077367
@<TRIPOS>BOND
     1    1    2 ar  
     2    1    6 ar  
     3    1   20 1   
     4    2    3 ar  
     5    2   21 1   
     6    3    4 ar  
     7    3    7 1   
     8    4    5 ar  
     9    4   22 1   
    10    5    6 ar  
    11    5   23 1   
    12    6   11 1   
    13    7    8 1   
    14    7    9 1   
    15    7   10 1   
    16   11   12 1   
    17   11   24 1   
    18   12   13 1   
    19   12   18 2   
    20   13   14 1   
    21   13   15 2   
    22   14   19 3   
    23   15   16 1   
    24   15   17 1   
    25   16   25 1   
    26   17   26 1   
    27   17   27 1   
    28   17   28 1   
@<TRIPOS>SUBSTRUCTURE
     1 A26         1 TEMP              0 ****  ****    0 ROOT
