@<TRIPOS>MOLECULE
A27
   49    52     1     0     0
SMALL
bcc


@<TRIPOS>ATOM
      1 C1          0.1650    0.0220   -0.1520 ca        1 A27     -0.132000
      2 C2          1.5510    0.1240   -0.0430 ca        1 A27     -0.117000
      3 C3          2.1790   -0.0760    1.1940 cp        1 A27     -0.039000
      4 C4          1.4000   -0.3880    2.3170 ca        1 A27     -0.117000
      5 C5          0.0150   -0.4920    2.2020 ca        1 A27     -0.132000
      6 C6         -0.6050   -0.2870    0.9700 ca        1 A27     -0.128000
      7 C12         3.6410   -0.0090    1.2910 cp        1 A27     -0.060000
      8 C13         4.2940    0.9430    2.1150 cq        1 A27      0.020000
      9 C14         5.6880    0.9590    2.2270 ca        1 A27     -0.136000
     10 C15         6.4250    0.0300    1.4900 ca        1 A27     -0.045200
     11 C16         5.7630   -0.9220    0.6370 ca        1 A27     -0.230900
     12 C17         4.3800   -0.9370    0.5500 ca        1 A27     -0.057000
     13 C20         3.5460    1.9550    2.8650 cq        1 A27     -0.086000
     14 C21         2.6190    2.7850    2.2210 ca        1 A27     -0.075000
     15 C22         1.9410    3.7730    2.9290 ca        1 A27     -0.188000
     16 C23         2.1910    3.9300    4.3000 ca        1 A27      0.130100
     17 C24         3.1160    3.1060    4.9610 ca        1 A27     -0.188000
     18 C25         3.7880    2.1290    4.2370 ca        1 A27     -0.075000
     19 O30         1.5590    4.8820    5.0660 oh        1 A27     -0.496100
     20 N31         7.8040   -0.2690    1.4380 na        1 A27     -0.003100
     21 N32         8.0640   -1.2360    0.5330 nc        1 A27     -0.519100
     22 C33         6.8760   -1.7010    0.0500 cd        1 A27      0.422500
     23 N34         6.6710   -2.7550   -0.8330 n         1 A27     -0.475400
     24 C35         7.6330   -3.3280   -1.6670 c         1 A27      0.663100
     25 C36         7.1580   -4.5350   -2.4600 c3        1 A27     -0.152400
     26 C37         8.2610   -5.0590   -3.3560 c3        1 A27     -0.075400
     27 C40         7.7990   -6.2590   -4.1400 c3        1 A27     -0.095100
     28 O46         8.7820   -2.8770   -1.7620 o         1 A27     -0.547100
     29 H1         -0.3210    0.1840   -1.1250 ha        1 A27      0.133000
     30 H2          2.1580    0.3640   -0.9290 ha        1 A27      0.137500
     31 H4          1.8870   -0.5460    3.2910 ha        1 A27      0.137500
     32 H5         -0.5890   -0.7360    3.0880 ha        1 A27      0.133000
     33 H6         -1.6980   -0.3690    0.8820 ha        1 A27      0.132000
     34 H14         6.1860    1.6940    2.8750 ha        1 A27      0.148000
     35 H17         3.8620   -1.6690   -0.0870 ha        1 A27      0.137000
     36 H21         2.4200    2.6470    1.1470 ha        1 A27      0.141500
     37 H22         1.2160    4.4220    2.4190 ha        1 A27      0.144000
     38 H24         3.2960    3.2440    6.0360 ha        1 A27      0.144000
     39 H25         4.5180    1.4800    4.7450 ha        1 A27      0.141500
     40 HO30        0.9510    5.3720    4.4930 ho        1 A27      0.420000
     41 HN34        5.7490   -3.1260   -0.8360 hn        1 A27      0.323500
     42 H36         6.8340   -5.3390   -1.7470 hc        1 A27      0.063200
     43 H36A        6.2690   -4.2470   -3.0820 hc        1 A27      0.063200
     44 H37         8.5900   -4.2440   -4.0530 hc        1 A27      0.060700
     45 H37A        9.1520   -5.3260   -2.7280 hc        1 A27      0.060700
     46 H40         7.4920   -7.0870   -3.4560 hc        1 A27      0.035033
     47 H40A        8.6260   -6.6300   -4.7930 hc        1 A27      0.035033
     48 H40B        6.9280   -5.9990   -4.7890 hc        1 A27      0.035033
     49 HN31        8.5060    0.4320    1.5530 hn        1 A27      0.307700
@<TRIPOS>BOND
     1    1    2 ar  
     2    1    6 ar  
     3    1   29 1   
     4    2    3 ar  
     5    2   30 1   
     6    3    4 ar  
     7    3    7 1   
     8    4    5 ar  
     9    4   31 1   
    10    5    6 ar  
    11    5   32 1   
    12    6   33 1   
    13    7    8 1   
    14    7   12 ar  
    15    8    9 2   
    16    8   13 1   
    17    9   10 ar  
    18    9   34 1   
    19   10   11 ar  
    20   10   20 1   
    21   11   12 ar  
    22   11   22 1   
    23   12   35 1   
    24   13   14 1   
    25   13   18 2   
    26   14   15 ar  
    27   14   36 1   
    28   15   16 ar  
    29   15   37 1   
    30   16   17 ar  
    31   16   19 1   
    32   17   18 ar  
    33   17   38 1   
    34   18   39 1   
    35   19   40 1   
    36   20   21 1   
    37   20   49 1   
    38   21   22 2   
    39   22   23 1   
    40   23   24 1   
    41   23   41 1   
    42   24   25 1   
    43   24   28 2   
    44   25   26 1   
    45   25   42 1   
    46   25   43 1   
    47   26   27 1   
    48   26   44 1   
    49   26   45 1   
    50   27   46 1   
    51   27   47 1   
    52   27   48 1   
@<TRIPOS>SUBSTRUCTURE
     1 A27         1 TEMP              0 ****  ****    0 ROOT
