@<TRIPOS>MOLECULE
A27
   49    52     1     0     0
SMALL
bcc


@<TRIPOS>ATOM
      1 C1         -2.0670   -3.8140   -0.7300 ca        1 A27     -0.132000
      2 C2         -1.3840   -2.6020   -0.8120 ca        1 A27     -0.117000
      3 C3         -1.5430   -1.6330    0.1880 cp        1 A27     -0.039000
      4 C4         -2.3890   -1.8990    1.2740 ca        1 A27     -0.117000
      5 C5         -3.0670   -3.1140    1.3520 ca        1 A27     -0.132000
      6 C6         -2.9080   -4.0720    0.3510 ca        1 A27     -0.128000
      7 C12        -0.7870   -0.3780    0.1170 cp        1 A27     -0.059000
      8 C13        -1.4340    0.8820    0.0360 cq        1 A27      0.020000
      9 C14        -0.6950    2.0690    0.0150 ca        1 A27     -0.136000
     10 C15         0.6990    1.9840    0.0500 ca        1 A27     -0.045200
     11 C16         1.3550    0.7050    0.1100 ca        1 A27     -0.230900
     12 C17         0.6080   -0.4620    0.1480 ca        1 A27     -0.057000
     13 C20        -2.8930    0.9960   -0.0450 cq        1 A27     -0.086000
     14 C21        -3.6140    0.2900   -1.0170 ca        1 A27     -0.075000
     15 C22        -4.9940    0.4330   -1.1190 ca        1 A27     -0.188000
     16 C23        -5.6630    1.2910   -0.2330 ca        1 A27      0.130100
     17 C24        -4.9550    2.0050    0.7480 ca        1 A27     -0.188000
     18 C25        -3.5760    1.8540    0.8300 ca        1 A27     -0.075000
     19 O30        -7.0240    1.4830   -0.2700 oh        1 A27     -0.496100
     20 N31         1.7130    2.9650    0.1210 na        1 A27     -0.003100
     21 N32         2.9410    2.4050    0.0910 nc        1 A27     -0.519100
     22 C33         2.7950    1.0500    0.1290 cd        1 A27      0.422500
     23 N34         3.7960    0.0880    0.2040 n         1 A27     -0.475400
     24 C35         5.1470    0.2820   -0.0900 c         1 A27      0.663100
     25 C36         6.0410   -0.9180    0.1740 c3        1 A27     -0.152400
     26 C37         7.4740   -0.6170   -0.2130 c3        1 A27     -0.075400
     27 C40         8.3680   -1.8000    0.0530 c3        1 A27     -0.095100
     28 O46         5.5800    1.3510   -0.5440 o         1 A27     -0.547100
     29 H1         -1.9390   -4.5680   -1.5210 ha        1 A27      0.133000
     30 H2         -0.7170   -2.4000   -1.6640 ha        1 A27      0.137500
     31 H4         -2.5180   -1.1420    2.0620 ha        1 A27      0.137500
     32 H5         -3.7290   -3.3150    2.2070 ha        1 A27      0.133000
     33 H6         -3.4450   -5.0300    0.4150 ha        1 A27      0.132000
     34 H14        -1.2040    3.0420   -0.0380 ha        1 A27      0.148000
     35 H17         1.0990   -1.4450    0.2080 ha        1 A27      0.137000
     36 H21        -3.0820   -0.3900   -1.7010 ha        1 A27      0.141500
     37 H22        -5.5550   -0.1210   -1.8840 ha        1 A27      0.144000
     38 H24        -5.4990    2.6700    1.4330 ha        1 A27      0.144000
     39 H25        -3.0130    2.4120    1.5940 ha        1 A27      0.141500
     40 HO30       -7.3840    0.9340   -0.9820 ho        1 A27      0.420000
     41 HN34        3.4950   -0.8070    0.5160 hn        1 A27      0.323500
     42 H36         5.9900   -1.1820    1.2640 hc        1 A27      0.063700
     43 H36A        5.6680   -1.7990   -0.4120 hc        1 A27      0.063700
     44 H37         7.5140   -0.3380   -1.2990 hc        1 A27      0.060700
     45 H37A        7.8330    0.2770    0.3630 hc        1 A27      0.060700
     46 H40         9.4180   -1.5590   -0.2380 hc        1 A27      0.035033
     47 H40A        8.3560   -2.0710    1.1370 hc        1 A27      0.035033
     48 H40B        8.0350   -2.6900   -0.5350 hc        1 A27      0.035033
     49 HN31        1.6210    3.8580   -0.3140 hn        1 A27      0.307700
@<TRIPOS>BOND
     1    1    2 ar  
     2    1    6 ar  
     3    1   29 1   
     4    2    3 ar  
     5    2   30 1   
     6    3    4 ar  
     7    3    7 1   
     8    4    5 ar  
     9    4   31 1   
    10    5    6 ar  
    11    5   32 1   
    12    6   33 1   
    13    7    8 1   
    14    7   12 ar  
    15    8    9 2   
    16    8   13 1   
    17    9   10 ar  
    18    9   34 1   
    19   10   11 ar  
    20   10   20 1   
    21   11   12 ar  
    22   11   22 1   
    23   12   35 1   
    24   13   14 1   
    25   13   18 2   
    26   14   15 ar  
    27   14   36 1   
    28   15   16 ar  
    29   15   37 1   
    30   16   17 ar  
    31   16   19 1   
    32   17   18 ar  
    33   17   38 1   
    34   18   39 1   
    35   19   40 1   
    36   20   21 1   
    37   20   49 1   
    38   21   22 2   
    39   22   23 1   
    40   23   24 1   
    41   23   41 1   
    42   24   25 1   
    43   24   28 2   
    44   25   26 1   
    45   25   42 1   
    46   25   43 1   
    47   26   27 1   
    48   26   44 1   
    49   26   45 1   
    50   27   46 1   
    51   27   47 1   
    52   27   48 1   
@<TRIPOS>SUBSTRUCTURE
     1 A27         1 TEMP              0 ****  ****    0 ROOT
