@<TRIPOS>MOLECULE
A27
   49    52     1     0     0
SMALL
bcc


@<TRIPOS>ATOM
      1 C1          0.1660    0.0110   -0.1490 ca        1 A27     -0.132000
      2 C2          1.5510    0.1130   -0.0420 ca        1 A27     -0.117000
      3 C3          2.1790   -0.0770    1.1970 cp        1 A27     -0.039000
      4 C4          1.4010   -0.3770    2.3230 ca        1 A27     -0.117000
      5 C5          0.0150   -0.4810    2.2090 ca        1 A27     -0.132000
      6 C6         -0.6040   -0.2870    0.9750 ca        1 A27     -0.128000
      7 C12         3.6410   -0.0100    1.2930 cp        1 A27     -0.059000
      8 C13         4.2960    0.9430    2.1150 cq        1 A27      0.020000
      9 C14         5.6900    0.9590    2.2260 ca        1 A27     -0.136000
     10 C15         6.4250    0.0280    1.4900 ca        1 A27     -0.045200
     11 C16         5.7630   -0.9250    0.6390 ca        1 A27     -0.230900
     12 C17         4.3800   -0.9390    0.5530 ca        1 A27     -0.057000
     13 C20         3.5490    1.9570    2.8630 cq        1 A27     -0.086000
     14 C21         2.6230    2.7880    2.2180 ca        1 A27     -0.075000
     15 C22         1.9470    3.7780    2.9240 ca        1 A27     -0.188000
     16 C23         2.1960    3.9360    4.2950 ca        1 A27      0.130100
     17 C24         3.1200    3.1110    4.9580 ca        1 A27     -0.188000
     18 C25         3.7910    2.1320    4.2350 ca        1 A27     -0.075000
     19 O30         1.5660    4.8900    5.0600 oh        1 A27     -0.496100
     20 N31         7.8050   -0.2720    1.4380 na        1 A27     -0.003100
     21 N32         8.0640   -1.2400    0.5340 nc        1 A27     -0.519100
     22 C33         6.8750   -1.7050    0.0520 cd        1 A27      0.422500
     23 N34         6.6690   -2.7600   -0.8290 ns        1 A27     -0.475400
     24 C35         7.6290   -3.3320   -1.6660 c         1 A27      0.663100
     25 C36         7.1550   -4.5410   -2.4560 c3        1 A27     -0.152400
     26 C37         8.2530   -5.0560   -3.3630 c3        1 A27     -0.075400
     27 C40         7.7920   -6.2590   -4.1430 c3        1 A27     -0.095100
     28 O46         8.7770   -2.8770   -1.7660 o         1 A27     -0.547100
     29 H1         -0.3200    0.1640   -1.1240 ha        1 A27      0.133000
     30 H2          2.1580    0.3440   -0.9300 ha        1 A27      0.137500
     31 H4          1.8880   -0.5270    3.2980 ha        1 A27      0.137500
     32 H5         -0.5890   -0.7170    3.0970 ha        1 A27      0.133000
     33 H6         -1.6980   -0.3690    0.8880 ha        1 A27      0.132000
     34 H14         6.1880    1.6940    2.8730 ha        1 A27      0.148000
     35 H17         3.8610   -1.6720   -0.0830 ha        1 A27      0.137000
     36 H21         2.4260    2.6490    1.1430 ha        1 A27      0.141500
     37 H22         1.2230    4.4280    2.4130 ha        1 A27      0.144000
     38 H24         3.2990    3.2510    6.0330 ha        1 A27      0.144000
     39 H25         4.5190    1.4820    4.7450 ha        1 A27      0.141500
     40 HO30        0.9600    5.3810    4.4850 ho        1 A27      0.420000
     41 HN34        5.7480   -3.1330   -0.8290 hn        1 A27      0.323500
     42 H36         6.2580   -4.2600   -3.0690 hc        1 A27      0.063700
     43 H36A        6.8450   -5.3480   -1.7400 hc        1 A27      0.063700
     44 H37         8.5690   -4.2380   -4.0640 hc        1 A27      0.060700
     45 H37A        9.1520   -5.3160   -2.7440 hc        1 A27      0.060700
     46 H40         6.9120   -6.0060   -4.7820 hc        1 A27      0.035033
     47 H40A        8.6150   -6.6240   -4.8050 hc        1 A27      0.035033
     48 H40B        7.5000   -7.0900   -3.4560 hc        1 A27      0.035033
     49 HN31        8.5070    0.4290    1.5510 hn        1 A27      0.307700
@<TRIPOS>BOND
     1    1    2 ar  
     2    1    6 ar  
     3    1   29 1   
     4    2    3 ar  
     5    2   30 1   
     6    3    4 ar  
     7    3    7 1   
     8    4    5 ar  
     9    4   31 1   
    10    5    6 ar  
    11    5   32 1   
    12    6   33 1   
    13    7    8 1   
    14    7   12 ar  
    15    8    9 2   
    16    8   13 1   
    17    9   10 ar  
    18    9   34 1   
    19   10   11 ar  
    20   10   20 1   
    21   11   12 ar  
    22   11   22 1   
    23   12   35 1   
    24   13   14 1   
    25   13   18 2   
    26   14   15 ar  
    27   14   36 1   
    28   15   16 ar  
    29   15   37 1   
    30   16   17 ar  
    31   16   19 1   
    32   17   18 ar  
    33   17   38 1   
    34   18   39 1   
    35   19   40 1   
    36   20   21 1   
    37   20   49 1   
    38   21   22 2   
    39   22   23 1   
    40   23   24 1   
    41   23   41 1   
    42   24   25 1   
    43   24   28 2   
    44   25   26 1   
    45   25   42 1   
    46   25   43 1   
    47   26   27 1   
    48   26   44 1   
    49   26   45 1   
    50   27   46 1   
    51   27   47 1   
    52   27   48 1   
@<TRIPOS>SUBSTRUCTURE
     1 A27         1 TEMP              0 ****  ****    0 ROOT
