@<TRIPOS>MOLECULE
A27
   50    53     1     0     0
SMALL
bcc


@<TRIPOS>ATOM
      1 C1         -0.2800    0.4720    0.1940 ca        1 A27     -0.125500
      2 C2          1.1070    0.3790    0.0910 ca        1 A27     -0.112000
      3 C3          1.8700   -0.0080    1.2010 cp        1 A27     -0.078000
      4 C4          1.2310   -0.3050    2.4120 ca        1 A27     -0.112000
      5 C5         -0.1580   -0.2140    2.5070 ca        1 A27     -0.125500
      6 C6         -0.9130    0.1750    1.4010 ca        1 A27     -0.109000
      7 C12         3.3260   -0.1440    1.0760 cp        1 A27      0.011000
      8 C13         4.2200    0.7200    1.7760 cq        1 A27      0.052000
      9 C14         5.6020    0.5490    1.6800 ca        1 A27     -0.118000
     10 C15         6.0830   -0.4850    0.8700 ca        1 A27     -0.046200
     11 C16         5.1840   -1.3480    0.1470 ca        1 A27     -0.182900
     12 C17         3.8070   -1.1660    0.2600 ca        1 A27     -0.096000
     13 C20         3.7320    1.8200    2.6080 cq        1 A27     -0.125000
     14 C21         2.8010    2.7410    2.1100 ca        1 A27     -0.064000
     15 C22         2.3750    3.8100    2.8920 ca        1 A27     -0.187500
     16 C23         2.8790    3.9550    4.1930 ca        1 A27      0.156100
     17 C24         3.8110    3.0350    4.7090 ca        1 A27     -0.187500
     18 C25         4.2320    1.9810    3.9110 ca        1 A27     -0.064000
     19 O30         2.5080    4.9780    5.0260 oh        1 A27     -0.483100
     20 N31         7.3880   -0.9250    0.5580 na        1 A27      0.045900
     21 N32         7.3960   -1.9520   -0.2630 nc        1 A27     -0.453100
     22 C33         6.0820   -2.2550   -0.5530 cd        1 A27      0.309800
     23 N34         5.6660   -3.3340   -1.4210 n4        1 A27     -0.578800
     24 C35         6.4060   -4.6430   -1.1310 c         1 A27      0.560100
     25 C36         7.3000   -5.1350   -2.2290 c3        1 A27     -0.157400
     26 C37         8.4440   -4.1890   -2.5350 c3        1 A27     -0.082400
     27 C40         9.3730   -4.8070   -3.5510 c3        1 A27     -0.102100
     28 O46         6.1600   -5.1620   -0.0590 o         1 A27     -0.387100
     29 H1         -0.8750    0.7830   -0.6780 ha        1 A27      0.145000
     30 H2          1.6050    0.6170   -0.8610 ha        1 A27      0.137000
     31 H4          1.8240   -0.6050    3.2880 ha        1 A27      0.137000
     32 H5         -0.6550   -0.4480    3.4610 ha        1 A27      0.145000
     33 H6         -2.0090    0.2480    1.4810 ha        1 A27      0.146000
     34 H14         6.2880    1.2170    2.2220 ha        1 A27      0.168000
     35 H17         3.1020   -1.8190   -0.2750 ha        1 A27      0.143000
     36 H21         2.3990    2.6150    1.0920 ha        1 A27      0.140000
     37 H22         1.6470    4.5320    2.4940 ha        1 A27      0.155000
     38 H24         4.1900    3.1660    5.7330 ha        1 A27      0.155000
     39 H25         4.9600    1.2580    4.3100 ha        1 A27      0.140000
     40 HO30        1.8660    5.5350    4.5610 ho        1 A27      0.430000
     41 HN34        5.8250   -3.0580   -2.3980 hn        1 A27      0.465300
     42 H36         7.7120   -6.1290   -1.8900 hc        1 A27      0.111700
     43 H36A        6.6860   -5.3200   -3.1530 hc        1 A27      0.111700
     44 H37         9.0130   -3.9630   -1.5930 hc        1 A27      0.059700
     45 H37A        8.0520   -3.2160   -2.9330 hc        1 A27      0.059700
     46 H40         9.8140   -5.7570   -3.1600 hc        1 A27      0.056700
     47 H40A        8.8320   -5.0320   -4.5020 hc        1 A27      0.056700
     48 H40B       10.2080   -4.1000   -3.7780 hc        1 A27      0.056700
     49 HN31        8.2490   -0.5450    0.8960 hn        1 A27      0.358700
     50 H342        4.6570   -3.4670   -1.2610 hn        1 A27      0.465300
@<TRIPOS>BOND
     1    1    2 ar  
     2    1    6 ar  
     3    1   29 1   
     4    2    3 ar  
     5    2   30 1   
     6    3    4 ar  
     7    3    7 1   
     8    4    5 ar  
     9    4   31 1   
    10    5    6 ar  
    11    5   32 1   
    12    6   33 1   
    13    7    8 1   
    14    7   12 ar  
    15    8    9 2   
    16    8   13 1   
    17    9   10 ar  
    18    9   34 1   
    19   10   11 ar  
    20   10   20 1   
    21   11   12 ar  
    22   11   22 1   
    23   12   35 1   
    24   13   14 1   
    25   13   18 2   
    26   14   15 ar  
    27   14   36 1   
    28   15   16 ar  
    29   15   37 1   
    30   16   17 ar  
    31   16   19 1   
    32   17   18 ar  
    33   17   38 1   
    34   18   39 1   
    35   19   40 1   
    36   20   21 1   
    37   20   49 1   
    38   21   22 2   
    39   22   23 1   
    40   23   24 1   
    41   23   41 1   
    42   23   50 1   
    43   24   25 1   
    44   24   28 2   
    45   25   26 1   
    46   25   42 1   
    47   25   43 1   
    48   26   27 1   
    49   26   44 1   
    50   26   45 1   
    51   27   46 1   
    52   27   47 1   
    53   27   48 1   
@<TRIPOS>SUBSTRUCTURE
     1 A27         1 TEMP              0 ****  ****    0 ROOT
