@<TRIPOS>MOLECULE
A27
   49    37     1     0     0
SMALL
bcc


@<TRIPOS>ATOM
      1 C1         -4.2940    0.5880    1.5580 c1        1 A27     -0.132667
      2 C2         -2.9950    0.5980    1.5510 c1        1 A27     -0.096500
      3 C3         -2.3120    1.0050    0.4220 c1        1 A27     -0.068000
      4 C4         -3.0240    1.4100   -0.7230 c1        1 A27     -0.132667
      5 C5         -4.3570    1.4000   -0.7150 c1        1 A27     -0.132667
      6 C6         -5.0220    0.9990    0.3960 c1        1 A27     -0.132667
      7 C12        -0.8010    0.9820    0.4040 c1        1 A27     -0.020000
      8 C13         0.0910    2.0200    0.8600 c1        1 A27     -0.020000
      9 C14         1.4380    1.8520    0.7650 c1        1 A27     -0.096500
     10 C15         1.9760    0.6480    0.2130 c1        1 A27     -0.068000
     11 C16         1.1430   -0.3370   -0.2200 c1        1 A27     -0.068000
     12 C17        -0.2930   -0.1630   -0.1210 c1        1 A27     -0.096500
     13 C20        -0.2700    3.1900    1.4530 c1        1 A27     -0.068000
     14 C21        -0.6590    4.3150    0.6410 c1        1 A27     -0.132667
     15 C22        -1.0840    5.4990    1.2450 c1        1 A27     -0.132667
     16 C23        -1.1380    5.6050    2.7570 c1        1 A27      0.085000
     17 C24        -0.7760    4.5580    3.5140 c1        1 A27     -0.161000
     18 C25        -0.3200    3.2860    2.8630 c1        1 A27     -0.096500
     19 O30        -1.5860    6.7740    3.3600 oh        1 A27     -0.250000
     20 N31         3.2000    0.2300    0.0670 n1        1 A27     -0.180000
     21 N32         3.1600   -1.0430   -0.4690 n2        1 A27     -0.051000
     22 C33         1.9130   -1.3740   -0.6380 c1        1 A27      0.044000
     23 N34         1.5210   -2.6340   -1.3000 n2        1 A27     -0.314000
     24 C35         2.5350   -3.6310   -1.6510 c2        1 A27      0.307000
     25 C36         2.1160   -4.9230   -2.4680 c3        1 A27     -0.181000
     26 C37         3.2360   -5.9150   -2.4530 c3        1 A27     -0.154000
     27 C40         2.7920   -7.1900   -3.1940 c3        1 A27     -0.213000
     28 O46         3.6920   -3.4280   -1.4010 o         1 A27     -0.307000
     29 H1         -4.7430    0.3190    2.3020 ha        1 A27      0.135333
     30 H2         -2.4790    0.3050    2.3820 ha        1 A27      0.140750
     31 H4         -2.5560    1.6900   -1.4980 ha        1 A27      0.135333
     32 H5         -4.8280    1.6670   -1.4660 ha        1 A27      0.135333
     33 H6         -6.0640    0.9920    0.4020 ha        1 A27      0.135333
     34 H14         2.0340    2.5500    1.0740 ha        1 A27      0.140750
     35 H17        -0.9090   -0.8820   -0.4380 ha        1 A27      0.140750
     36 H21        -0.6280    4.2530   -0.2820 ha        1 A27      0.135333
     37 H22        -1.3360    6.2320    0.7100 ha        1 A27      0.135333
     38 H24        -0.8120    4.6270    4.4980 ha        1 A27      0.152000
     39 H25        -0.0680    2.5660    3.3850 ha        1 A27      0.140750
     40 HO30       -0.8440    7.5090    3.2930 ho        1 A27      0.219000
     41 HN34        0.6310   -2.8000   -1.4850 hn        1 A27      0.237000
     42 H36         1.9080   -4.6600   -3.4360 hc        1 A27      0.102500
     43 H36A        1.3430   -5.3120   -2.0730 hc        1 A27      0.102500
     44 H37         4.0050   -5.5310   -2.8970 hc        1 A27      0.100000
     45 H37A        3.4930   -6.1640   -1.4280 hc        1 A27      0.100000
     46 H40         3.4720   -7.8390   -3.1460 hc        1 A27      0.074333
     47 H40A        2.6110   -6.9810   -4.1230 hc        1 A27      0.074333
     48 H40B        1.9570   -7.5500   -2.7630 hc        1 A27      0.074333
     49 HN31        3.9330    0.6860    0.2730 DU        1 A27      0.259000
@<TRIPOS>BOND
     1    1    6 1   
     2    1   29 1   
     3    2    3 1   
     4    2   30 1   
     5    4    5 1   
     6    4   31 1   
     7    5   32 1   
     8    6   33 1   
     9    7    8 1   
    10    9   10 1   
    11    9   34 1   
    12   11   12 1   
    13   12   35 1   
    14   13   18 1   
    15   14   15 1   
    16   14   36 1   
    17   15   37 1   
    18   16   17 1   
    19   16   19 1   
    20   17   38 1   
    21   18   39 1   
    22   19   40 1   
    23   20   21 1   
    24   21   22 1   
    25   23   24 1   
    26   23   41 1   
    27   24   25 1   
    28   24   28 1   
    29   25   26 1   
    30   25   42 1   
    31   25   43 1   
    32   26   27 1   
    33   26   44 1   
    34   26   45 1   
    35   27   46 1   
    36   27   47 1   
    37   27   48 1   
@<TRIPOS>SUBSTRUCTURE
     1 A27         1 TEMP              0 ****  ****    0 ROOT
