@<TRIPOS>MOLECULE
A28
   38    40     1     0     0
SMALL
bcc


@<TRIPOS>ATOM
      1 C1          1.9700   -0.0170    0.0020 cp        1 A28     -0.075000
      2 C2          2.4190   -1.3710   -0.0410 ca        1 A28      0.139900
      3 C3          1.5070   -2.4500   -0.0240 ca        1 A28      0.070900
      4 C4          0.6050    0.2650    0.0590 ca        1 A28     -0.045000
      5 N5         -1.0120   -2.9480    0.1350 na        1 A28      0.002900
      6 N6         -2.1390   -2.2150    0.1350 nc        1 A28     -0.505100
      7 C7         -1.7830   -0.8940    0.1320 cd        1 A28      0.422500
      8 C8         -0.3110   -0.7780    0.0720 ca        1 A28     -0.228900
      9 C9          0.1310   -2.1460    0.0350 ca        1 A28     -0.053200
     10 C10         2.9240    1.0920   -0.0150 cp        1 A28     -0.044000
     11 C11         4.0400    1.0960    0.8310 ca        1 A28     -0.111500
     12 C12         4.9230    2.1750    0.8230 ca        1 A28     -0.130500
     13 C13         4.7030    3.2550   -0.0310 ca        1 A28     -0.121000
     14 C14         3.5960    3.2550   -0.8790 ca        1 A28     -0.130500
     15 C15         2.7080    2.1820   -0.8720 ca        1 A28     -0.111500
     16 F16         3.7390   -1.6530   -0.1100 f         1 A28     -0.117900
     17 F17         1.9380   -3.7300   -0.0680 f         1 A28     -0.120900
     18 N18        -2.6230    0.2110    0.1980 n         1 A28     -0.475400
     19 C19        -4.0000    0.2140   -0.0430 c         1 A28      0.664100
     20 C20        -4.6890    1.5480    0.1900 c3        1 A28     -0.151400
     21 O21        -4.6050   -0.7940   -0.4310 o         1 A28     -0.543100
     22 C22        -6.1660    1.4540   -0.1330 c3        1 A28     -0.076400
     23 C23        -6.8570    2.7720    0.1030 c3        1 A28     -0.095100
     24 H4          0.2640    1.3110    0.0950 ha        1 A28      0.145000
     25 H11         4.2220    0.2390    1.4970 ha        1 A28      0.137500
     26 H12         5.7970    2.1700    1.4910 ha        1 A28      0.135000
     27 H13         5.4020    4.1040   -0.0370 ha        1 A28      0.134000
     28 H14         3.4230    4.1030   -1.5580 ha        1 A28      0.135000
     29 H15         1.8400    2.1810   -1.5480 ha        1 A28      0.137500
     30 HN18       -2.1800    1.0610    0.4620 hn        1 A28      0.324500
     31 H20        -4.5540    1.8490    1.2630 hc        1 A28      0.064200
     32 H20A       -4.2100    2.3340   -0.4520 hc        1 A28      0.064200
     33 H22        -6.2920    1.1360   -1.2020 hc        1 A28      0.061200
     34 H22A       -6.6330    0.6530    0.5000 hc        1 A28      0.061200
     35 H23        -6.7600    3.0860    1.1700 hc        1 A28      0.035700
     36 H23A       -6.4170    3.5720   -0.5400 hc        1 A28      0.035700
     37 H23B       -7.9440    2.6820   -0.1410 hc        1 A28      0.035700
     38 HN5        -1.0640   -3.9010   -0.1530 hn        1 A28      0.329700
@<TRIPOS>BOND
     1    1    2 ar  
     2    1    4 ar  
     3    1   10 1   
     4    2    3 ar  
     5    2   16 1   
     6    3    9 ar  
     7    3   17 1   
     8    4    8 ar  
     9    4   24 1   
    10    5    6 1   
    11    5    9 1   
    12    5   38 1   
    13    6    7 2   
    14    7    8 1   
    15    7   18 1   
    16    8    9 ar  
    17   10   11 ar  
    18   10   15 ar  
    19   11   12 ar  
    20   11   25 1   
    21   12   13 ar  
    22   12   26 1   
    23   13   14 ar  
    24   13   27 1   
    25   14   15 ar  
    26   14   28 1   
    27   15   29 1   
    28   18   19 1   
    29   18   30 1   
    30   19   20 1   
    31   19   21 2   
    32   20   22 1   
    33   20   31 1   
    34   20   32 1   
    35   22   23 1   
    36   22   33 1   
    37   22   34 1   
    38   23   35 1   
    39   23   36 1   
    40   23   37 1   
@<TRIPOS>SUBSTRUCTURE
     1 A28         1 TEMP              0 ****  ****    0 ROOT
