@<TRIPOS>MOLECULE
A28
   38    40     1     0     0
SMALL
bcc


@<TRIPOS>ATOM
      1 C1          0.0400    0.0230    0.0400 cp        1 A28     -0.075000
      2 C2          1.4650    0.0240   -0.0320 ca        1 A28      0.139900
      3 C3          2.2610    0.0630    1.1350 ca        1 A28      0.070900
      4 C4         -0.5970    0.0580    1.2800 ca        1 A28     -0.045000
      5 N5          2.0650    0.2130    3.6950 na        1 A28      0.002900
      6 N6          1.0580    0.1810    4.5860 nc        1 A28     -0.505100
      7 C7         -0.1200    0.1430    3.8910 cd        1 A28      0.422500
      8 C8          0.1630    0.0940    2.4410 ca        1 A28     -0.228900
      9 C9          1.6000    0.1000    2.3790 ca        1 A28     -0.053200
     10 C10        -0.7740   -0.0170   -1.1750 cp        1 A28     -0.044000
     11 C11        -0.5070    0.8400   -2.2510 ca        1 A28     -0.111500
     12 C12        -1.3100    0.8090   -3.3900 ca        1 A28     -0.130500
     13 C13        -2.3840   -0.0780   -3.4670 ca        1 A28     -0.121000
     14 C14        -2.6530   -0.9370   -2.4020 ca        1 A28     -0.130500
     15 C15        -1.8550   -0.9070   -1.2600 ca        1 A28     -0.111500
     16 F16         2.0900   -0.0240   -1.2300 f         1 A28     -0.117900
     17 F17         3.6100    0.0600    1.0600 f         1 A28     -0.120900
     18 N18        -1.4100    0.1690    4.4050 ns        1 A28     -0.475400
     19 C19        -1.7730   -0.0830    5.7320 c         1 A28      0.664100
     20 C20        -3.2490    0.1050    6.0400 c3        1 A28     -0.151400
     21 O21        -0.9500   -0.4430    6.5850 o         1 A28     -0.543100
     22 C22        -3.5410   -0.2210    7.4900 c3        1 A28     -0.076400
     23 C23        -5.0020   -0.0320    7.8040 c3        1 A28     -0.095100
     24 H4         -1.6970    0.0620    1.3300 ha        1 A28      0.145000
     25 H11         0.3470    1.5320   -2.1970 ha        1 A28      0.137500
     26 H12        -1.0930    1.4860   -4.2290 ha        1 A28      0.135000
     27 H13        -3.0150   -0.1020   -4.3670 ha        1 A28      0.134000
     28 H14        -3.4950   -1.6420   -2.4620 ha        1 A28      0.135000
     29 H15        -2.0650   -1.5910   -0.4240 ha        1 A28      0.137500
     30 HN18       -2.1190    0.4100    3.7520 hn        1 A28      0.324500
     31 H20        -3.8570   -0.5610    5.3720 hc        1 A28      0.064200
     32 H20A       -3.5380    1.1680    5.8250 hc        1 A28      0.064200
     33 H22        -2.9140    0.4350    8.1510 hc        1 A28      0.061200
     34 H22A       -3.2330   -1.2790    7.7020 hc        1 A28      0.061200
     35 H23        -5.6340   -0.6990    7.1700 hc        1 A28      0.035700
     36 H23A       -5.3140    1.0250    7.6220 hc        1 A28      0.035700
     37 H23B       -5.1970   -0.2770    8.8770 hc        1 A28      0.035700
     38 HN5         2.9770   -0.0480    3.9980 hn        1 A28      0.329700
@<TRIPOS>BOND
     1    1    2 ar  
     2    1    4 ar  
     3    1   10 1   
     4    2    3 ar  
     5    2   16 1   
     6    3    9 ar  
     7    3   17 1   
     8    4    8 ar  
     9    4   24 1   
    10    5    6 1   
    11    5    9 1   
    12    5   38 1   
    13    6    7 2   
    14    7    8 1   
    15    7   18 1   
    16    8    9 ar  
    17   10   11 ar  
    18   10   15 ar  
    19   11   12 ar  
    20   11   25 1   
    21   12   13 ar  
    22   12   26 1   
    23   13   14 ar  
    24   13   27 1   
    25   14   15 ar  
    26   14   28 1   
    27   15   29 1   
    28   18   19 1   
    29   18   30 1   
    30   19   20 1   
    31   19   21 2   
    32   20   22 1   
    33   20   31 1   
    34   20   32 1   
    35   22   23 1   
    36   22   33 1   
    37   22   34 1   
    38   23   35 1   
    39   23   36 1   
    40   23   37 1   
@<TRIPOS>SUBSTRUCTURE
     1 A28         1 TEMP              0 ****  ****    0 ROOT
