@<TRIPOS>MOLECULE
A28
   39    41     1     0     0
SMALL
bcc


@<TRIPOS>ATOM
      1 C1         -0.1210    0.1990    0.1560 cp        1 A28      0.011000
      2 C2          1.2650    0.4430    0.4320 ca        1 A28      0.151900
      3 C3          1.6940    0.9040    1.6980 ca        1 A28      0.109900
      4 C4         -1.0810    0.4110    1.1410 ca        1 A28     -0.095000
      5 N5          0.7740    1.5600    4.0140 na        1 A28      0.062900
      6 N6         -0.4080    1.6230    4.5840 nc        1 A28     -0.445100
      7 C7         -1.3410    1.2140    3.6520 cd        1 A28      0.305800
      8 C8         -0.6850    0.8680    2.3960 ca        1 A28     -0.159900
      9 C9          0.7030    1.1160    2.6800 ca        1 A28     -0.080200
     10 C10        -0.5450   -0.2790   -1.1590 cp        1 A28     -0.092000
     11 C11        -0.0720    0.3260   -2.3320 ca        1 A28     -0.100000
     12 C12        -0.5080   -0.1260   -3.5760 ca        1 A28     -0.124000
     13 C13        -1.4080   -1.1880   -3.6610 ca        1 A28     -0.095000
     14 C14        -1.8770   -1.7980   -2.4970 ca        1 A28     -0.124000
     15 C15        -1.4520   -1.3460   -1.2500 ca        1 A28     -0.100000
     16 F16         2.1970    0.2280   -0.5170 f         1 A28     -0.086900
     17 F17         2.9940    1.1310    1.9640 f         1 A28     -0.094900
     18 N18        -2.7630    1.1540    3.8930 n4        1 A28     -0.584800
     19 C19        -3.1490   -0.0710    4.7340 c         1 A28      0.565100
     20 C20        -2.6930   -0.0640    6.1590 c3        1 A28     -0.145400
     21 O21        -3.7880   -0.9050    4.1190 o         1 A28     -0.404100
     22 C22        -3.6760   -0.8270    7.0320 c3        1 A28     -0.082400
     23 C23        -3.1570   -0.9190    8.4440 c3        1 A28     -0.102100
     24 H4         -2.1420    0.2170    0.9150 ha        1 A28      0.158000
     25 H11         0.6480    1.1560   -2.2700 ha        1 A28      0.137000
     26 H12        -0.1340    0.3550   -4.4930 ha        1 A28      0.149000
     27 H13        -1.7460   -1.5470   -4.6460 ha        1 A28      0.150000
     28 H14        -2.5810   -2.6420   -2.5620 ha        1 A28      0.149000
     29 H15        -1.8160   -1.8380   -0.3360 ha        1 A28      0.137000
     30 HN18       -3.0710    2.0070    4.3780 hn        1 A28      0.469300
     31 H20        -2.5610    0.9800    6.5510 hc        1 A28      0.109200
     32 H20A       -1.6840   -0.5680    6.1880 hc        1 A28      0.109200
     33 H22        -3.8330   -1.8570    6.6120 hc        1 A28      0.068200
     34 H22A       -4.6700   -0.3070    7.0240 hc        1 A28      0.068200
     35 H23        -3.8920   -1.4740    9.0780 hc        1 A28      0.055700
     36 H23A       -3.0090    0.0970    8.8830 hc        1 A28      0.055700
     37 H23B       -2.1830   -1.4660    8.4760 hc        1 A28      0.055700
     38 HN5         1.5990    1.8330    4.5130 hn        1 A28      0.370700
     39 H182       -3.2280    1.1010    2.9740 hn        1 A28      0.469300
@<TRIPOS>BOND
     1    1    2 ar  
     2    1    4 ar  
     3    1   10 1   
     4    2    3 ar  
     5    2   16 1   
     6    3    9 ar  
     7    3   17 1   
     8    4    8 ar  
     9    4   24 1   
    10    5    6 1   
    11    5    9 1   
    12    5   38 1   
    13    6    7 2   
    14    7    8 1   
    15    7   18 1   
    16    8    9 ar  
    17   10   11 ar  
    18   10   15 ar  
    19   11   12 ar  
    20   11   25 1   
    21   12   13 ar  
    22   12   26 1   
    23   13   14 ar  
    24   13   27 1   
    25   14   15 ar  
    26   14   28 1   
    27   15   29 1   
    28   18   19 1   
    29   18   30 1   
    30   18   39 1   
    31   19   20 1   
    32   19   21 2   
    33   20   22 1   
    34   20   31 1   
    35   20   32 1   
    36   22   23 1   
    37   22   33 1   
    38   22   34 1   
    39   23   35 1   
    40   23   36 1   
    41   23   37 1   
@<TRIPOS>SUBSTRUCTURE
     1 A28         1 TEMP              0 ****  ****    0 ROOT
