@<TRIPOS>MOLECULE
A28
   38    31     1     0     0
SMALL
bcc


@<TRIPOS>ATOM
      1 C1          0.8370   -0.2800   -2.4540 c1        1 A28     -0.059500
      2 C2          2.2150   -0.4170   -2.5120 c1        1 A28      0.105000
      3 C3          2.9570   -0.4900   -1.3380 c1        1 A28      0.036000
      4 C4          0.1960   -0.2160   -1.2220 c1        1 A28     -0.075000
      5 N5          2.7820   -0.4720    1.1990 n2        1 A28     -0.172000
      6 N6          1.7060   -0.3650    2.0570 n2        1 A28     -0.037000
      7 C7          0.5800   -0.2540    1.3080 c1        1 A28      0.043000
      8 C8          0.9500   -0.2910   -0.0290 c1        1 A28     -0.144000
      9 C9          2.3060   -0.4260   -0.0870 c2        1 A28     -0.008000
     10 C10         0.4540   -0.2630   -3.8030 c1        1 A28     -0.059500
     11 C11         0.1940   -1.4560   -4.4670 c1        1 A28     -0.125000
     12 C12        -0.1320   -1.4430   -5.8180 c1        1 A28     -0.125000
     13 C13        -0.1970   -0.2370   -6.5060 c1        1 A28     -0.125000
     14 C14         0.0620    0.9560   -5.8430 c1        1 A28     -0.125000
     15 C15         0.3880    0.9440   -4.4910 c1        1 A28     -0.075000
     16 F16         3.2260   -0.7220   -3.3420 f         1 A28     -0.083000
     17 F17         4.2950   -0.5900   -1.3650 f         1 A28     -0.086000
     18 N18         0.1290   -0.4450    2.6550 n2        1 A28     -0.310000
     19 C19        -0.9580    0.3360    3.1640 c2        1 A28      0.308000
     20 C20        -1.4010    0.1720    4.6210 c3        1 A28     -0.186000
     21 O21        -1.5000    1.1630    2.4520 o         1 A28     -0.305000
     22 C22        -2.4520    1.2370    4.9590 c3        1 A28     -0.158000
     23 C23        -3.0330    0.9590    6.3500 c3        1 A28     -0.214000
     24 H4         -0.7790   -0.1200   -1.1810 ha        1 A28      0.143500
     25 H11         0.2410   -2.3070   -3.9820 ha        1 A28      0.134250
     26 H12        -0.3150   -2.2850   -6.2870 ha        1 A28      0.134250
     27 H13        -0.4280   -0.2280   -7.4600 ha        1 A28      0.134250
     28 H14         0.0160    1.8080   -6.3280 ha        1 A28      0.134250
     29 H15         0.5720    1.7850   -4.0230 ha        1 A28      0.143500
     30 HN18        0.5200   -1.0860    3.1830 hn        1 A28      0.239000
     31 H20        -1.7890   -0.7220    4.7470 hc        1 A28      0.114500
     32 H20A       -0.6250    0.2790    5.2140 hc        1 A28      0.114500
     33 H22        -2.0330    2.1260    4.9500 hc        1 A28      0.087000
     34 H22A       -3.1730    1.2090    4.2920 hc        1 A28      0.087000
     35 H23        -2.3250    1.0500    7.0250 hc        1 A28      0.078333
     36 H23A       -3.7510    1.6040    6.5400 hc        1 A28      0.078333
     37 H23B       -3.3970    0.0470    6.3770 hc        1 A28      0.078333
     38 HN5         3.6600   -0.5590    1.4450 DU        1 A28      0.280000
@<TRIPOS>BOND
     1    1    4 1   
     2    2    3 1   
     3    2   16 1   
     4    3    9 1   
     5    4   24 1   
     6    5    6 1   
     7    5    9 1   
     8    6    7 1   
     9    7    8 1   
    10    8    9 1   
    11   10   15 1   
    12   11   12 1   
    13   11   25 1   
    14   12   26 1   
    15   13   14 1   
    16   13   27 1   
    17   14   28 1   
    18   15   29 1   
    19   18   19 1   
    20   18   30 1   
    21   19   20 1   
    22   19   21 1   
    23   20   22 1   
    24   20   31 1   
    25   20   32 1   
    26   22   23 1   
    27   22   33 1   
    28   22   34 1   
    29   23   35 1   
    30   23   36 1   
    31   23   37 1   
@<TRIPOS>SUBSTRUCTURE
     1 A28         1 TEMP              0 ****  ****    0 ROOT
