@<TRIPOS>MOLECULE
A29
   17    14     1     0     0
SMALL
bcc


@<TRIPOS>ATOM
      1 C8          1.3580   -1.7980    2.1340 c1        1 A29      0.334000
      2 O1          2.6170   -1.7980    2.1340 o         1 A29     -0.529000
      3 O2          0.7290   -1.7980    3.2240 os        1 A29     -0.554000
      4 C7          0.6020   -1.8140    0.8240 c2        1 A29      0.205000
      5 C1          0.1220   -0.5170    0.2120 c2        1 A29     -0.087000
      6 C2         -0.5710   -0.5310   -0.9890 c1        1 A29     -0.176000
      7 C3         -1.0110    0.6580   -1.5490 c1        1 A29      0.040000
      8 C4         -0.7570    1.8610   -0.9100 c1        1 A29     -0.162000
      9 C5         -0.0640    1.8760    0.2900 c1        1 A29     -0.128000
     10 C6          0.3750    0.6870    0.8510 c2        1 A29     -0.114000
     11 O3         -1.7390    0.6410   -2.7530 oh        1 A29     -0.275000
     12 O7          0.3560   -2.8710    0.2770 o         1 A29     -0.338000
     13 HA         -0.7490   -1.3790   -1.4390 ha        1 A29      0.141000
     14 H6          0.8630    0.6970    1.6970 ha        1 A29      0.186000
     15 H4         -1.0670    2.6980   -1.3050 ha        1 A29      0.128000
     16 H3         -1.1780    0.6670   -3.4390 ho        1 A29      0.209000
     17 H5          0.1140    2.7230    0.7410 ha        1 A29      0.120000
@<TRIPOS>BOND
     1    1    2 1   
     2    1    4 1   
     3    4    5 1   
     4    4   12 1   
     5    5    6 1   
     6    5   10 1   
     7    6   13 1   
     8    7    8 1   
     9    7   11 1   
    10    8   15 1   
    11    9   10 1   
    12    9   17 1   
    13   10   14 1   
    14   11   16 1   
@<TRIPOS>SUBSTRUCTURE
     1 A29         1 TEMP              0 ****  ****    0 ROOT
