@<TRIPOS>MOLECULE
A29
   17    17     1     0     0
SMALL
bcc


@<TRIPOS>ATOM
      1 C8         -0.0310    0.1600   -0.0180 c         1 A29      0.864600
      2 O1          0.8980   -0.5970    0.3730 o         1 A29     -0.806800
      3 O2         -0.4160    1.2140    0.5470 o         1 A29     -0.806800
      4 C7         -0.7420   -0.2350   -1.3270 c         1 A29      0.464700
      5 C1          0.0150    0.0230   -2.5880 ca        1 A29     -0.107600
      6 C2         -0.6700    0.3390   -3.7640 ca        1 A29     -0.176000
      7 C3          0.0550    0.5960   -4.9350 ca        1 A29      0.085100
      8 C4          1.4550    0.5310   -4.9480 ca        1 A29     -0.162000
      9 C5          2.1210    0.2080   -3.7670 ca        1 A29     -0.128000
     10 C6          1.4140   -0.0410   -2.5920 ca        1 A29     -0.114000
     11 O3         -0.5640    0.9190   -6.1300 oh        1 A29     -0.521100
     12 O7         -1.8720   -0.7370   -1.3750 o         1 A29     -0.577100
     13 HA         -1.7690    0.3760   -3.7580 ha        1 A29      0.141000
     14 H6          1.9350   -0.2890   -1.6490 ha        1 A29      0.186000
     15 H4          2.0020    0.7350   -5.8770 ha        1 A29      0.128000
     16 H3         -1.5160    0.9400   -5.9630 ho        1 A29      0.410000
     17 H5          3.2190    0.1540   -3.7640 ha        1 A29      0.120000
@<TRIPOS>BOND
     1    1    2 1   
     2    1    3 1   
     3    1    4 1   
     4    4    5 1   
     5    4   12 2   
     6    5    6 ar  
     7    5   10 ar  
     8    6    7 ar  
     9    6   13 1   
    10    7    8 ar  
    11    7   11 1   
    12    8    9 ar  
    13    8   15 1   
    14    9   10 ar  
    15    9   17 1   
    16   10   14 1   
    17   11   16 1   
@<TRIPOS>SUBSTRUCTURE
     1 A29         1 TEMP              0 ****  ****    0 ROOT
