@<TRIPOS>MOLECULE
A29
   17    17     1     0     0
SMALL
bcc


@<TRIPOS>ATOM
      1 C8          2.4160   -0.1480   -0.1850 c         1 A29      0.864600
      2 O1          2.7710   -1.1140    0.5440 o         1 A29     -0.806800
      3 O2          2.9330    0.1820   -1.2820 o         1 A29     -0.806800
      4 C7          1.2180    0.6880    0.3070 c         1 A29      0.464700
      5 C1         -0.1280    0.0620    0.1510 ca        1 A29     -0.107600
      6 C2         -1.2510    0.8610   -0.0750 ca        1 A29     -0.176000
      7 C3         -2.5040    0.2570   -0.2380 ca        1 A29      0.085100
      8 C4         -2.6510   -1.1350   -0.1660 ca        1 A29     -0.162000
      9 C5         -1.5210   -1.9170    0.0680 ca        1 A29     -0.128000
     10 C6         -0.2660   -1.3300    0.2220 ca        1 A29     -0.114000
     11 O3         -3.6530    0.9920   -0.4700 oh        1 A29     -0.521100
     12 O7          1.3220    1.8150    0.8060 o         1 A29     -0.577100
     13 HA         -1.1390    1.9540   -0.1180 ha        1 A29      0.141000
     14 H6          0.6380   -1.9440    0.3980 ha        1 A29      0.186000
     15 H4         -3.6430   -1.5860   -0.2940 ha        1 A29      0.128000
     16 H3         -3.3940    1.9230   -0.5080 ho        1 A29      0.410000
     17 H5         -1.6230   -3.0100    0.1270 ha        1 A29      0.120000
@<TRIPOS>BOND
     1    1    2 1   
     2    1    3 1   
     3    1    4 1   
     4    4    5 1   
     5    4   12 2   
     6    5    6 ar  
     7    5   10 ar  
     8    6    7 ar  
     9    6   13 1   
    10    7    8 ar  
    11    7   11 1   
    12    8    9 ar  
    13    8   15 1   
    14    9   10 ar  
    15    9   17 1   
    16   10   14 1   
    17   11   16 1   
@<TRIPOS>SUBSTRUCTURE
     1 A29         1 TEMP              0 ****  ****    0 ROOT
