@<TRIPOS>MOLECULE
A2C
   48    49     1     0     0
SMALL
bcc


@<TRIPOS>ATOM
      1 NAA        -0.1820   -3.1010    1.4780 n3        1 A2C     -0.313500
      2 CAB         0.5370   -2.2580    0.7050 c2        1 A2C      0.350000
      3 CAC         1.3530   -1.2090    1.3640 ca        1 A2C     -0.227000
      4 CAD         0.7730   -0.4110    2.3720 ca        1 A2C     -0.035000
      5 CAE         1.5210    0.5700    2.9870 ca        1 A2C     -0.160000
      6 CAF        10.9560    5.8090    4.7340 c3        1 A2C     -0.180000
      7 CAG         9.7750    6.6570    4.7400 c1        1 A2C     -0.208000
      8 CAH         8.5050    6.1480    4.5390 c2        1 A2C     -0.322000
      9 CAI         7.3920    7.1220    4.5190 c2        1 A2C      0.105000
     10 NAJ         6.1350    6.9420    4.3420 n2        1 A2C     -0.220000
     11 NAK         0.5420   -2.3330   -0.6460 n3        1 A2C     -0.313500
     12 CAL         2.6840   -1.0120    0.9930 ca        1 A2C     -0.011000
     13 CAM         3.4700   -0.0310    1.6140 ca        1 A2C     -0.165000
     14 CAN         2.8780    0.7710    2.6180 ca        1 A2C      0.207000
     15 OAO         3.4950    1.7620    3.3040 oh        1 A2C     -0.219000
     16 CAQ        10.6690    4.3990    4.3300 c2        1 A2C      0.279000
     17 CAR         9.2900    3.8260    4.4840 c3        1 A2C     -0.208000
     18 CAS         8.1930    4.8020    4.3890 c1        1 A2C     -0.126000
     19 NAT         7.8780    8.5240    4.7530 n4        1 A2C     -0.072000
     20 CAU         4.8660    0.0870    1.1680 c2        1 A2C      0.004000
     21 NAV         5.7190    0.8960    1.6930 n2        1 A2C     -0.239000
     22 CAW         7.0610    0.9840    1.1850 c3        1 A2C     -0.113000
     23 CAX         8.1320    0.9380    2.2940 c3        1 A2C     -0.042000
     24 NAY         8.1220    2.0960    3.1720 n3        1 A2C     -0.125000
     25 CAZ         9.2300    2.6700    3.5280 c1        1 A2C     -0.203000
     26 HNAA        0.0240   -3.0170   -1.1550 hn        1 A2C      0.278750
     27 HNAB       -0.1180   -3.0180    2.4720 hn        1 A2C      0.278750
     28 HAD        -0.2830   -0.5480    2.6600 ha        1 A2C      0.160000
     29 HAE         1.0880    1.2140    3.7710 ha        1 A2C      0.190000
     30 HAF        11.7460    6.2550    4.0570 hc        1 A2C      0.195000
     31 HAG        11.4080    5.8100    5.7740 hc        1 A2C      0.195000
     32 HNAJ        5.8540    5.9920    4.1970 hn        1 A2C      0.223000
     33 HNAK        1.0530   -1.6510   -1.1650 hn        1 A2C      0.278750
     34 HAL         3.1430   -1.6470    0.2140 ha        1 A2C      0.149000
     35 HOAO        4.4150    1.8740    3.0010 ho        1 A2C      0.270000
     36 HOAP       11.2700    2.8290    3.4230 ho        1 A2C      0.335000
     37 HAS         9.2110    3.4040    5.5440 hc        1 A2C      0.215000
     38 HNAT        8.9270    8.4440    4.8720 hn        1 A2C      0.270333
     39 HNAC        7.4520    8.9120    5.5960 hn        1 A2C      0.270333
     40 HAU         5.1190   -0.5960    0.3220 h4        1 A2C      0.122000
     41 HAW         7.1390    1.9600    0.6230 h1        1 A2C      0.115500
     42 HAWA        7.3240    0.1550    0.4620 h1        1 A2C      0.115500
     43 HAX         9.1400    0.8670    1.7930 h1        1 A2C      0.127500
     44 HAXA        7.9870    0.0190    2.9320 h1        1 A2C      0.127500
     45 HAZ         7.2160    2.4080    3.4780 hn        1 A2C      0.222000
     46 HAA3       -0.7750   -3.8110    1.1060 hn        1 A2C      0.278750
     47 HAT3        7.6530    9.1190    3.9550 hn        1 A2C      0.270333
     48 OAP        11.6160    3.7210    3.7490 oh        1 A2C     -0.128000
@<TRIPOS>BOND
     1    1    2 1   
     2    1   27 1   
     3    1   46 1   
     4    2    3 1   
     5    2   11 1   
     6    3    4 1   
     7    3   12 1   
     8    4    5 1   
     9    4   28 1   
    10    5   14 1   
    11    5   29 1   
    12    6    7 1   
    13    6   16 1   
    14    6   30 1   
    15    6   31 1   
    16    7    8 1   
    17    8    9 1   
    18    8   18 1   
    19    9   10 1   
    20    9   19 1   
    21   10   32 1   
    22   11   26 1   
    23   11   33 1   
    24   12   13 1   
    25   12   34 1   
    26   13   14 1   
    27   13   20 1   
    28   14   15 1   
    29   15   35 1   
    30   16   17 1   
    31   16   48 1   
    32   17   18 1   
    33   17   25 1   
    34   17   37 1   
    35   19   38 1   
    36   19   39 1   
    37   19   47 1   
    38   20   21 1   
    39   20   40 1   
    40   21   22 1   
    41   22   23 1   
    42   22   41 1   
    43   22   42 1   
    44   23   24 1   
    45   23   43 1   
    46   23   44 1   
    47   24   25 1   
    48   24   45 1   
    49   36   48 1   
@<TRIPOS>SUBSTRUCTURE
     1 A2C         1 TEMP              0 ****  ****    0 ROOT
