@<TRIPOS>MOLECULE
A2C
   46    34     1     0     0
SMALL
bcc


@<TRIPOS>ATOM
      1 NAA         0.6700    2.3110   -6.0790 n3        1 A2C     -0.393000
      2 CAB        -0.6410    1.9100   -5.9240 c1        1 A2C      0.129000
      3 CAC        -0.9630    0.6310   -5.1410 c1        1 A2C     -0.097000
      4 CAD        -0.7880   -0.6030   -5.7430 c1        1 A2C     -0.141500
      5 CAE        -1.1210   -1.7480   -5.0690 c1        1 A2C     -0.141500
      6 CAF         1.2020    1.9020    4.6660 c1        1 A2C     -0.222000
      7 CAG         0.7540    0.9410    5.5760 c1        1 A2C     -0.063000
      8 CAH         0.7830   -0.4000    5.2390 c1        1 A2C     -0.152000
      9 CAI         0.3060   -1.4370    6.2400 c1        1 A2C      0.119000
     10 NAJ        -0.9460   -1.6130    6.4290 n1        1 A2C     -0.301000
     11 NAK        -1.5790    2.5970   -6.4350 n1        1 A2C     -0.291000
     12 CAL        -1.4840    0.7120   -3.8340 c1        1 A2C     -0.040000
     13 CAM        -1.8200   -0.4440   -3.1540 c1        1 A2C     -0.012000
     14 CAN        -1.6440   -1.6740   -3.7600 c1        1 A2C     -0.012000
     15 OAO        -2.0370   -2.8600   -3.0890 o         1 A2C     -0.245000
     16 OAP         2.2870    2.4960    2.5230 oh        1 A2C     -0.244000
     17 CAQ         1.6830    1.5090    3.4050 c1        1 A2C      0.115000
     18 CAR         1.7130    0.1730    3.0660 c1        1 A2C     -0.136000
     19 CAS         1.2590   -0.7970    3.9900 c2        1 A2C     -0.045000
     20 NAT         1.2790   -2.2320    6.9930 n2        1 A2C     -0.332000
     21 CAU        -2.5580   -0.3560   -1.7340 c1        1 A2C     -0.006000
     22 NAV        -1.8540   -0.2820   -0.6370 n1        1 A2C     -0.187000
     23 CAW        -0.4450   -0.2790   -0.7110 c2        1 A2C     -0.095000
     24 CAX         0.1540   -0.2760    0.7210 c3        1 A2C     -0.098000
     25 NAY         1.5810   -0.4750    0.6370 n2        1 A2C     -0.186000
     26 CAZ         2.3540   -0.2770    1.7120 c2        1 A2C     -0.011000
     27 HNAA        1.4040    1.7860   -5.6610 hn        1 A2C      0.192000
     28 HNAB        0.8620    3.0230   -6.5880 hn        1 A2C      0.192000
     29 HAD        -0.4440   -0.6550   -6.6040 ha        1 A2C      0.143500
     30 HAE        -0.9890   -2.6700   -5.5190 ha        1 A2C      0.143500
     31 HAF         1.1790    2.8940    4.9180 ha        1 A2C      0.140000
     32 HAG         0.4080    1.2260    6.4880 ha        1 A2C      0.143000
     33 HNAJ       -1.5830   -1.0900    5.9350 DU        1 A2C      0.145000
     34 HNAK       -1.3910    3.3370   -6.8930 DU        1 A2C      0.145000
     35 HAL        -1.6030    1.5710   -3.4140 ha        1 A2C      0.158000
     36 HOAO       -2.7000   -3.2340   -3.5210 ho        1 A2C      0.223000
     37 HOAP        3.0700    2.8180    2.9050 ho        1 A2C      0.224000
     38 HAS         1.2780   -1.7130    3.7610 ha        1 A2C      0.160000
     39 HNAT        2.1980   -2.0460    6.9160 hn        1 A2C      0.193500
     40 HNAC        1.0330   -2.9030    7.3950 hn        1 A2C      0.193500
     41 HAU        -3.5950   -0.3590   -1.6860 ha        1 A2C      0.160000
     42 HAW        -0.1480    0.5200   -1.1910 ha        1 A2C      0.092000
     43 HAWA       -0.1270   -1.1140   -1.2100 ha        1 A2C      0.092000
     44 HAX        -0.0390    0.6130    1.1650 h1        1 A2C      0.095000
     45 HAXA       -0.2630   -1.0250    1.2670 h1        1 A2C      0.095000
     46 HAZ         3.3060   -0.4080    1.6500 h4        1 A2C      0.158000
@<TRIPOS>BOND
     1    1    2 1   
     2    1   27 1   
     3    1   28 1   
     4    2   11 1   
     5    3   12 1   
     6    4    5 1   
     7    4   29 1   
     8    5   30 1   
     9    6   17 1   
    10    6   31 1   
    11    7    8 1   
    12    7   32 1   
    13    8   19 1   
    14    9   10 1   
    15   12   35 1   
    16   13   14 1   
    17   15   36 1   
    18   16   17 1   
    19   16   37 1   
    20   18   19 1   
    21   18   26 1   
    22   19   38 1   
    23   20   39 1   
    24   20   40 1   
    25   21   22 1   
    26   21   41 1   
    27   23   24 1   
    28   23   42 1   
    29   23   43 1   
    30   24   25 1   
    31   24   44 1   
    32   24   45 1   
    33   25   26 1   
    34   26   46 1   
@<TRIPOS>SUBSTRUCTURE
     1 A2C         1 TEMP              0 ****  ****    0 ROOT
