@<TRIPOS>MOLECULE
A2C
   46    47     1     0     0
SMALL
bcc


@<TRIPOS>ATOM
      1 NAA        -7.3790    0.2910   -1.4870 nh        1 A2C     -0.927300
      2 CAB        -6.0540    0.7700   -1.5360 ce        1 A2C      0.651300
      3 CAC        -5.1670    0.2420   -0.4520 ca        1 A2C     -0.211900
      4 CAD        -5.5380    0.3860    0.8940 ca        1 A2C     -0.056500
      5 CAE        -4.7160   -0.0970    1.8960 ca        1 A2C     -0.202000
      6 CAF         5.2880    1.2560   -1.5610 ca        1 A2C     -0.202000
      7 CAG         4.8690    2.1550   -0.5850 ca        1 A2C     -0.056500
      8 CAH         4.0880    1.7120    0.4860 ca        1 A2C     -0.211900
      9 CAI         3.6640    2.6630    1.5630 ce        1 A2C      0.651300
     10 NAJ         3.8690    2.4660    2.8320 n2        1 A2C     -0.832600
     11 NAK        -5.5310    1.5400   -2.4430 n2        1 A2C     -0.832600
     12 CAL        -3.9650   -0.3750   -0.7790 ca        1 A2C     -0.044000
     13 CAM        -3.1100   -0.8760    0.2200 ca        1 A2C     -0.236900
     14 CAN        -3.4960   -0.7350    1.5670 ca        1 A2C      0.181100
     15 OAO        -2.7860   -1.1680    2.6490 oh        1 A2C     -0.495600
     16 CAQ         4.9160   -0.0930   -1.4660 ca        1 A2C      0.181100
     17 CAR         4.1110   -0.5510   -0.3990 ca        1 A2C     -0.236900
     18 CAS         3.7150    0.3670    0.5750 ca        1 A2C     -0.044000
     19 NAT         3.0730    3.8530    1.0830 nh        1 A2C     -0.927300
     20 CAU        -1.8650   -1.5060   -0.2340 ce        1 A2C      0.497300
     21 NAV        -0.9710   -1.9890    0.5570 n2        1 A2C     -0.624900
     22 CAW         0.2140   -2.6150    0.0360 c3        1 A2C      0.112300
     23 CAX         1.4960   -1.8560    0.4600 c3        1 A2C      0.112300
     24 NAY         2.6720   -2.5580    0.0260 n2        1 A2C     -0.624900
     25 CAZ         3.7550   -1.9760   -0.3260 ce        1 A2C      0.497300
     26 HNAA       -8.0750    0.8310   -1.9440 hn        1 A2C      0.399550
     27 HNAB       -7.6650   -0.1170   -0.6290 hn        1 A2C      0.399550
     28 HAD        -6.4770    0.8950    1.1610 ha        1 A2C      0.144000
     29 HAE        -4.9860    0.0070    2.9570 ha        1 A2C      0.149000
     30 HAF         5.9100    1.5990   -2.4000 ha        1 A2C      0.149000
     31 HAG         5.1610    3.2150   -0.6540 ha        1 A2C      0.144000
     32 HNAJ        4.3860    1.6390    3.0400 hn        1 A2C      0.388900
     33 HNAK       -6.1470    1.8740   -3.1530 hn        1 A2C      0.388900
     34 HAL        -3.6730   -0.4690   -1.8380 ha        1 A2C      0.150000
     35 HOAO       -1.9610   -1.5930    2.3570 ho        1 A2C      0.445000
     36 HOAP        5.8560   -0.5810   -3.0580 ho        1 A2C      0.445000
     37 HAS         3.1080    0.0230    1.4290 ha        1 A2C      0.150000
     38 HNAT        2.4860    3.7040    0.2930 hn        1 A2C      0.399550
     39 HNAC        2.6530    4.4290    1.7820 hn        1 A2C      0.399550
     40 HAU        -1.7660   -1.5300   -1.3460 h4        1 A2C      0.006800
     41 HAW         0.2420   -3.6550    0.4720 h1        1 A2C      0.053950
     42 HAWA        0.2080   -2.7150   -1.0890 h1        1 A2C      0.053950
     43 HAX         1.4390   -0.8010    0.0620 h1        1 A2C      0.053950
     44 HAXA        1.5240   -1.7940    1.5870 h1        1 A2C      0.053950
     45 HAZ         4.5770   -2.6540   -0.6530 h4        1 A2C      0.006800
     46 OAP         5.3080   -1.0270   -2.3940 oh        1 A2C     -0.495600
@<TRIPOS>BOND
     1    1    2 1   
     2    1   26 1   
     3    1   27 1   
     4    2    3 1   
     5    2   11 2   
     6    3    4 ar  
     7    3   12 ar  
     8    4    5 ar  
     9    4   28 1   
    10    5   14 ar  
    11    5   29 1   
    12    6    7 ar  
    13    6   16 ar  
    14    6   30 1   
    15    7    8 ar  
    16    7   31 1   
    17    8    9 1   
    18    8   18 ar  
    19    9   10 2   
    20    9   19 1   
    21   10   32 1   
    22   11   33 1   
    23   12   13 ar  
    24   12   34 1   
    25   13   14 ar  
    26   13   20 1   
    27   14   15 1   
    28   15   35 1   
    29   16   17 ar  
    30   16   46 1   
    31   17   18 ar  
    32   17   25 1   
    33   18   37 1   
    34   19   38 1   
    35   19   39 1   
    36   20   21 2   
    37   20   40 1   
    38   21   22 1   
    39   22   23 1   
    40   22   41 1   
    41   22   42 1   
    42   23   24 1   
    43   23   43 1   
    44   23   44 1   
    45   24   25 2   
    46   25   45 1   
    47   36   46 1   
@<TRIPOS>SUBSTRUCTURE
     1 A2C         1 TEMP              0 ****  ****    0 ROOT
