@<TRIPOS>MOLECULE
A2C
   48    48     1     0     0
SMALL
bcc


@<TRIPOS>ATOM
      1 NAA      -426.2590 -460.7610 -176.3880 n3        1 A2C     -0.322000
      2 CAB      -426.2640 -460.9680 -177.7260 c2        1 A2C      0.355000
      3 CAC      -427.2330 -461.9290 -178.2940 ca        1 A2C     -0.241000
      4 CAD      -427.4320 -463.1760 -177.6660 ca        1 A2C     -0.040000
      5 CAE      -428.3300 -464.0770 -178.1950 ca        1 A2C     -0.168000
      6 CAF       479.1110  505.5480  199.4740 c3        1 A2C     -0.195000
      7 CAG       477.6860  505.8940  199.3470 c2        1 A2C     -0.014000
      8 CAH       477.0200  506.6350  200.2710 c2        1 A2C     -0.175000
      9 CAI       475.5630  506.9650  200.0560 c2        1 A2C      0.084000
     10 NAJ       475.1410  507.8460  199.2090 n2        1 A2C     -0.231000
     11 NAK      -425.4130 -460.3240 -178.5610 n3        1 A2C     -0.322000
     12 CAL      -427.9520 -461.6050 -179.4500 ca        1 A2C     -0.016000
     13 CAM      -428.8770 -462.4980 -179.9980 ca        1 A2C     -0.149000
     14 CAN      -429.0680 -463.7520 -179.3660 ca        1 A2C      0.216000
     15 OAO      -429.9140 -464.7230 -179.7710 oh        1 A2C     -0.217000
     16 CAQ       479.7440  506.0780  200.7070 c2        1 A2C      0.269000
     17 CAR       479.0320  506.8400  201.6440 c2        1 A2C     -0.314000
     18 CAS       477.6870  507.1300  201.4490 c2        1 A2C      0.199000
     19 NAT       474.7040  506.2670  200.9370 n3        1 A2C     -0.327000
     20 CAU      -429.6000 -462.0640 -181.2050 c2        1 A2C     -0.036000
     21 NAV      -430.4600 -462.8060 -181.8060 n2        1 A2C     -0.205000
     22 CAW      -431.1560 -462.3770 -182.9730 c3        1 A2C     -0.152000
     23 CAX       476.8790  507.9300  202.4290 c3        1 A2C      0.016000
     24 NAY       477.5950  508.6370  203.3990 n2        1 A2C     -0.391000
     25 CAZ       478.1400  509.2660  204.2440 c1        1 A2C      0.221000
     26 HNAA     -424.7510 -459.6490 -178.2480 hn        1 A2C      0.274500
     27 HNAB     -426.9350 -461.2360 -175.8270 hn        1 A2C      0.274500
     28 HAD      -426.8570 -463.4510 -176.7670 ha        1 A2C      0.150000
     29 HAE      -428.4950 -465.0620 -177.7280 ha        1 A2C      0.186000
     30 HAF       479.2390  504.4190  199.4440 hc        1 A2C      0.212500
     31 HAG       479.6830  505.9270  198.5680 hc        1 A2C      0.212500
     32 HNAJ      475.8370  508.3610  198.7160 hn        1 A2C      0.170000
     33 HNAK     -425.4330 -460.5500 -179.5330 hn        1 A2C      0.274500
     34 HAL      -427.8140 -460.6230 -179.9340 ha        1 A2C      0.145000
     35 HOAO     -430.3970 -464.4570 -180.5800 ho        1 A2C      0.287000
     36 HOAP      481.4180  506.1320  201.6550 ho        1 A2C      0.289000
     37 HAS       479.5630  507.2060  202.5430 ha        1 A2C      0.196000
     38 HNAT      477.1770  505.5160  198.4390 ha        1 A2C      0.191000
     39 HNAC      473.7320  506.4850  200.8230 hn        1 A2C      0.207000
     40 HAU      -429.3320 -461.0360 -181.5420 h4        1 A2C      0.115000
     41 HAW      -430.8950 -461.3440 -183.3290 h1        1 A2C      0.105333
     42 HAWA     -432.2580 -462.4180 -182.7520 h1        1 A2C      0.105333
     43 HAX      -430.9340 -463.1110 -183.7960 h1        1 A2C      0.105333
     44 HAXA      476.2290  508.6580  201.8440 h1        1 A2C      0.170000
     45 HAZ       476.1710  507.1990  202.9430 h1        1 A2C      0.170000
     46 HAA3     -425.6140 -460.1530 -175.9330 hn        1 A2C      0.274500
     47 HAT3      474.8700  505.2830  200.9380 hn        1 A2C      0.207000
     48 OAP       481.0340  505.7630  200.8310 oh        1 A2C     -0.168000
@<TRIPOS>BOND
     1    1    2 1   
     2    1   27 1   
     3    1   46 1   
     4    2    3 1   
     5    2   11 1   
     6    3    4 1   
     7    3   12 1   
     8    4    5 1   
     9    4   28 1   
    10    5   14 1   
    11    5   29 1   
    12    6    7 1   
    13    6   16 1   
    14    6   30 1   
    15    6   31 1   
    16    7    8 1   
    17    7   38 1   
    18    8    9 1   
    19    8   18 1   
    20    9   10 1   
    21    9   19 1   
    22   10   32 1   
    23   11   26 1   
    24   11   33 1   
    25   12   13 1   
    26   12   34 1   
    27   13   14 1   
    28   13   20 1   
    29   14   15 1   
    30   15   35 1   
    31   16   17 1   
    32   16   48 1   
    33   17   18 1   
    34   17   37 1   
    35   18   23 1   
    36   19   39 1   
    37   19   47 1   
    38   20   21 1   
    39   20   40 1   
    40   21   22 1   
    41   22   41 1   
    42   22   42 1   
    43   22   43 1   
    44   23   24 1   
    45   23   44 1   
    46   23   45 1   
    47   24   25 1   
    48   36   48 1   
@<TRIPOS>SUBSTRUCTURE
     1 A2C         1 TEMP              0 ****  ****    0 ROOT
