@<TRIPOS>MOLECULE
A2E
   83    87     1     0     0
SMALL
bcc


@<TRIPOS>ATOM
      1 O11        -0.1770   -0.4240    0.0220 o         1 A2E     -0.552500
      2 C9          1.0390   -0.2050    0.0610 c         1 A2E      0.684700
      3 C8          1.8080    0.1930    1.2440 cc        1 A2E     -0.213200
      4 N10         1.7780   -0.3390   -1.1480 n         1 A2E     -0.427100
      5 C5          3.1310   -0.1640   -1.2030 cc        1 A2E      0.168400
      6 C6          3.8160   -0.2500   -2.5390 c3        1 A2E     -0.079200
      7 C4          3.8610    0.1150   -0.0490 cd        1 A2E     -0.336200
      8 C7          3.1490    0.3500    1.1780 cd        1 A2E     -0.069000
      9 C3          5.3400    0.2670   -0.0460 c3        1 A2E      0.234700
     10 C2          6.0060    0.1120   -1.4190 c3        1 A2E     -0.100400
     11 C1          5.0870    0.5720   -2.5270 c3        1 A2E     -0.074400
     12 N12         5.9290   -0.7440    0.9410 n4        1 A2E     -0.777000
     13 C13         7.3280   -0.4180    1.3310 c3        1 A2E      0.098800
     14 C14         7.9210   -1.4310    2.3060 c3        1 A2E     -0.108400
     15 C15         9.3330   -1.0160    2.6710 c3        1 A2E     -0.078400
     16 C16         9.9440   -1.9980    3.6500 c3        1 A2E     -0.079400
     17 C17        11.3520   -1.5840    4.0290 c3        1 A2E     -0.079400
     18 C18        11.9610   -2.5610    5.0130 c3        1 A2E     -0.079400
     19 C19        13.3660   -2.1450    5.3970 c3        1 A2E     -0.079400
     20 C20        13.9690   -3.1230    6.3850 c3        1 A2E     -0.077400
     21 C21        15.3750   -2.7010    6.7700 c3        1 A2E     -0.110400
     22 C22        15.9480   -3.7040    7.7620 c3        1 A2E      0.101800
     23 N23        17.3400   -3.3550    8.1930 n4        1 A2E     -0.631400
     24 C24        17.8940   -4.3410    9.1290 ca        1 A2E     -0.032400
     25 C25        17.8310   -4.1180   10.5020 ca        1 A2E     -0.117600
     26 C30        17.1940   -2.8940   11.0600 c3        1 A2E     -0.056100
     27 C26        18.4510   -5.1040   11.3620 ca        1 A2E      0.450600
     28 C33        18.4060   -4.9280   12.8580 c3        1 A2E     -0.141700
     29 C32        18.1710   -3.4940   13.2710 c3        1 A2E     -0.087400
     30 C31        16.9630   -2.9350   12.5570 c3        1 A2E     -0.077400
     31 N27        19.0560   -6.1880   10.8920 nb        1 A2E     -0.607000
     32 C28        19.1030   -6.4140    9.5380 ca        1 A2E      0.413600
     33 C34        19.7620   -7.5940    9.0560 ca        1 A2E     -0.131300
     34 C29        18.5200   -5.5140    8.5890 ca        1 A2E     -0.135300
     35 C37        18.6000   -5.8220    7.2070 ca        1 A2E     -0.174000
     36 C36        19.2410   -6.9610    6.7790 ca        1 A2E     -0.065000
     37 C35        19.8270   -7.8510    7.7100 ca        1 A2E     -0.111000
     38 H8          1.2160    0.3710    2.1560 ha        1 A2E      0.188000
     39 H10         1.2670   -0.5260   -1.9890 hn        1 A2E      0.353500
     40 H61         4.0460   -1.3280   -2.7610 hc        1 A2E      0.090200
     41 H62         3.1460    0.1230   -3.3620 hc        1 A2E      0.090200
     42 H7          3.7100    0.6940    2.0620 ha        1 A2E      0.129000
     43 H3          5.6030    1.2840    0.3810 hx        1 A2E      0.102700
     44 H21         6.2910   -0.9580   -1.6150 hc        1 A2E      0.065700
     45 H22         6.9490    0.7210   -1.4380 hc        1 A2E      0.065700
     46 H11         5.6130    0.4600   -3.5130 hc        1 A2E      0.082200
     47 H12A        4.8400    1.6590   -2.3990 hc        1 A2E      0.082200
     48 H12         5.3350   -0.7660    1.7780 hn        1 A2E      0.446300
     49 H131        7.9490   -0.3800    0.3900 hx        1 A2E      0.103200
     50 H132        7.3290    0.6080    1.8000 hx        1 A2E      0.103200
     51 H141        7.2960   -1.4890    3.2370 hc        1 A2E      0.066700
     52 H142        7.9400   -2.4540    1.8430 hc        1 A2E      0.066700
     53 H151        9.3200    0.0090    3.1270 hc        1 A2E      0.055700
     54 H152        9.9650   -0.9640    1.7460 hc        1 A2E      0.055700
     55 H161        9.3090   -2.0570    4.5730 hc        1 A2E      0.050700
     56 H162        9.9640   -3.0230    3.1930 hc        1 A2E      0.050700
     57 H171       11.3330   -0.5570    4.4800 hc        1 A2E      0.047700
     58 H172       11.9900   -1.5310    3.1070 hc        1 A2E      0.047700
     59 H181       11.3200   -2.6170    5.9330 hc        1 A2E      0.048700
     60 H182       11.9820   -3.5870    4.5600 hc        1 A2E      0.048700
     61 H191       13.3440   -1.1180    5.8480 hc        1 A2E      0.049700
     62 H192       14.0070   -2.0920    4.4780 hc        1 A2E      0.049700
     63 H201       13.9930   -4.1490    5.9320 hc        1 A2E      0.057200
     64 H202       13.3260   -3.1750    7.3030 hc        1 A2E      0.057200
     65 H211       16.0150   -2.6510    5.8480 hc        1 A2E      0.064700
     66 H212       15.3460   -1.6740    7.2210 hc        1 A2E      0.064700
     67 H221       15.9840   -4.7360    7.3040 hx        1 A2E      0.111700
     68 H222       15.3060   -3.7510    8.6890 hx        1 A2E      0.111700
     69 H23        17.9510   -3.3100    7.3660 hn        1 A2E      0.454800
     70 H301       16.2000   -2.7140   10.5650 hc        1 A2E      0.051700
     71 H302       17.8620   -2.0160   10.8260 hc        1 A2E      0.051700
     72 H331       19.3640   -5.2960   13.3190 hc        1 A2E      0.090200
     73 H332       17.5780   -5.5800   13.2530 hc        1 A2E      0.090200
     74 H321       18.0070   -3.4550   14.3810 hc        1 A2E      0.069200
     75 H322       19.0750   -2.8700   13.0450 hc        1 A2E      0.069200
     76 H311       16.7470   -1.8960   12.9210 hc        1 A2E      0.065200
     77 H312       16.0640   -3.5660   12.7850 hc        1 A2E      0.065200
     78 H34        20.2150   -8.2860    9.7880 ha        1 A2E      0.181000
     79 H37        18.1480   -5.1640    6.4510 ha        1 A2E      0.114000
     80 H36        19.3040   -7.1950    5.7040 ha        1 A2E      0.158000
     81 H35        20.3370   -8.7560    7.3390 ha        1 A2E      0.169000
     82 H122        5.9000   -1.6770    0.5160 hn        1 A2E      0.446300
     83 H232       17.3360   -2.4280    8.6360 hn        1 A2E      0.454800
@<TRIPOS>BOND
     1    1    2 2   
     2    2    3 1   
     3    2    4 1   
     4    3    8 2   
     5    3   38 1   
     6    4    5 1   
     7    4   39 1   
     8    5    6 1   
     9    5    7 2   
    10    6   11 1   
    11    6   40 1   
    12    6   41 1   
    13    7    8 1   
    14    7    9 1   
    15    8   42 1   
    16    9   10 1   
    17    9   12 1   
    18    9   43 1   
    19   10   11 1   
    20   10   44 1   
    21   10   45 1   
    22   11   46 1   
    23   11   47 1   
    24   12   13 1   
    25   12   48 1   
    26   12   82 1   
    27   13   14 1   
    28   13   49 1   
    29   13   50 1   
    30   14   15 1   
    31   14   51 1   
    32   14   52 1   
    33   15   16 1   
    34   15   53 1   
    35   15   54 1   
    36   16   17 1   
    37   16   55 1   
    38   16   56 1   
    39   17   18 1   
    40   17   57 1   
    41   17   58 1   
    42   18   19 1   
    43   18   59 1   
    44   18   60 1   
    45   19   20 1   
    46   19   61 1   
    47   19   62 1   
    48   20   21 1   
    49   20   63 1   
    50   20   64 1   
    51   21   22 1   
    52   21   65 1   
    53   21   66 1   
    54   22   23 1   
    55   22   67 1   
    56   22   68 1   
    57   23   24 1   
    58   23   69 1   
    59   23   83 1   
    60   24   25 ar  
    61   24   34 ar  
    62   25   26 1   
    63   25   27 ar  
    64   26   30 1   
    65   26   70 1   
    66   26   71 1   
    67   27   28 1   
    68   27   31 ar  
    69   28   29 1   
    70   28   72 1   
    71   28   73 1   
    72   29   30 1   
    73   29   74 1   
    74   29   75 1   
    75   30   76 1   
    76   30   77 1   
    77   31   32 ar  
    78   32   33 ar  
    79   32   34 ar  
    80   33   37 ar  
    81   33   78 1   
    82   34   35 ar  
    83   35   36 ar  
    84   35   79 1   
    85   36   37 ar  
    86   36   80 1   
    87   37   81 1   
@<TRIPOS>SUBSTRUCTURE
     1 A2E         1 TEMP              0 ****  ****    0 ROOT
