@<TRIPOS>MOLECULE
A2E
   81    79     1     0     0
SMALL
bcc


@<TRIPOS>ATOM
      1 O11       -11.8120    4.8690   -3.0050 o         1 A2E     -0.369000
      2 C9        -10.6510    4.6260   -3.3070 c1        1 A2E      0.323000
      3 C8         -9.6320    4.5890   -2.2820 c1        1 A2E     -0.126000
      4 N10       -10.3120    4.3800   -4.6490 n2        1 A2E     -0.284000
      5 C5         -9.0070    4.1020   -4.9930 c1        1 A2E      0.084000
      6 C6         -8.5500    3.9910   -6.4770 c3        1 A2E     -0.138000
      7 C4         -7.9480    4.0630   -3.9350 c1        1 A2E     -0.223000
      8 C7         -8.2810    4.3030   -2.6300 c1        1 A2E     -0.126000
      9 C3         -6.4240    3.7140   -4.3990 c3        1 A2E      0.045000
     10 C2         -6.2540    3.3360   -5.6950 c3        1 A2E     -0.153000
     11 C1         -7.1120    4.0030   -6.7120 c3        1 A2E     -0.156000
     12 N12        -5.9040    2.5850   -3.5150 n3        1 A2E     -0.309000
     13 C13        -4.5370    2.8930   -3.0750 c3        1 A2E     -0.073000
     14 C14        -3.9670    1.6750   -2.2610 c3        1 A2E     -0.171000
     15 C15        -2.5100    1.8920   -1.9800 c3        1 A2E     -0.157000
     16 C16        -1.9930    0.7700   -1.0050 c3        1 A2E     -0.158000
     17 C17        -0.5910    1.1560   -0.4730 c3        1 A2E     -0.158000
     18 C18        -0.0260   -0.0030    0.3780 c3        1 A2E     -0.158000
     19 C19         1.4380    0.2630    0.6880 c3        1 A2E     -0.157000
     20 C20         1.9850   -0.8710    1.6290 c3        1 A2E     -0.158000
     21 C21         3.4600   -0.6260    1.9150 c3        1 A2E     -0.163000
     22 C22         4.0200   -1.7920    2.8360 c3        1 A2E     -0.071000
     23 N23         5.4440   -1.9630    2.6090 n3        1 A2E     -0.269000
     24 C24         6.1540   -3.0530    3.2660 c2        1 A2E      0.040000
     25 C25         6.6620   -3.2130    4.5340 c2        1 A2E     -0.094000
     26 C30         6.4820   -2.0980    5.6890 c3        1 A2E     -0.110000
     27 C26         7.3640   -4.4590    4.8880 c1        1 A2E      0.022000
     28 C33         8.0700   -4.5340    6.3230 c2        1 A2E     -0.117000
     29 C32         8.0750   -3.3160    7.1060 c3        1 A2E     -0.158000
     30 C31         6.9030   -2.4690    7.0070 c3        1 A2E     -0.159000
     31 N27         7.5080   -5.4400    3.9660 n2        1 A2E     -0.149000
     32 C28         6.9790   -5.2700    2.6460 c1        1 A2E      0.012000
     33 C34         7.2940   -6.2110    1.6480 c1        1 A2E     -0.126000
     34 C29         6.3100   -4.0890    2.3040 c2        1 A2E     -0.104000
     35 C37         5.9580   -3.8510    0.9740 c2        1 A2E     -0.121000
     36 C36         6.2730   -4.7870   -0.0100 c1        1 A2E     -0.127000
     37 C35         6.9430   -5.9690    0.3330 c1        1 A2E     -0.126000
     38 H8         -9.8720    4.7490   -1.3550 ha        1 A2E      0.146750
     39 H10       -10.9860    4.3530   -5.3040 hn        1 A2E      0.243000
     40 H61        -8.9350    4.7560   -6.9610 hc        1 A2E      0.100500
     41 H62        -8.9000    3.1410   -6.8340 hc        1 A2E      0.100500
     42 H7         -7.5850    4.2790   -1.9310 ha        1 A2E      0.146750
     43 H3         -5.8720    4.5070   -4.2390 h1        1 A2E      0.096000
     44 H21        -6.4170    2.3670   -5.7500 hc        1 A2E      0.095000
     45 H22        -5.2990    3.5020   -5.9410 hc        1 A2E      0.095000
     46 H11        -6.8190    4.9560   -6.7790 hc        1 A2E      0.089500
     47 H12A       -6.9470    3.5690   -7.5800 hc        1 A2E      0.089500
     48 H12        -6.4260    2.4990   -2.8090 hn        1 A2E      0.163000
     49 H131       -4.5490    3.6840   -2.5100 h1        1 A2E      0.073500
     50 H132       -3.9670    3.0610   -3.8640 h1        1 A2E      0.073500
     51 H141       -4.4470    1.5930   -1.4230 hc        1 A2E      0.085500
     52 H142       -4.0820    0.8490   -2.7860 hc        1 A2E      0.085500
     53 H151       -2.0180    1.8540   -2.8010 hc        1 A2E      0.081000
     54 H152       -2.3860    2.7540   -1.5710 hc        1 A2E      0.081000
     55 H161       -2.6300    0.6730   -0.2320 hc        1 A2E      0.080500
     56 H162       -1.9340   -0.0930   -1.4970 hc        1 A2E      0.080500
     57 H171        0.0100    1.3290   -1.2330 hc        1 A2E      0.080000
     58 H172       -0.6600    1.9710    0.0840 hc        1 A2E      0.080000
     59 H181       -0.5280   -0.0720    1.2100 hc        1 A2E      0.080000
     60 H182       -0.1050   -0.8280   -0.1110 hc        1 A2E      0.080000
     61 H191        1.5250    1.1200    1.1300 hc        1 A2E      0.080500
     62 H192        1.9540    0.2740   -0.1500 hc        1 A2E      0.080500
     63 H201        1.8760   -1.7550    1.1850 hc        1 A2E      0.081000
     64 H202        1.4880   -0.8660    2.4620 hc        1 A2E      0.081000
     65 H211        3.5640    0.2430    2.3790 hc        1 A2E      0.087000
     66 H212        3.9630   -0.6080    1.0630 hc        1 A2E      0.087000
     67 H221        3.5520   -2.6370    2.6190 h1        1 A2E      0.077000
     68 H222        3.8580   -1.5570    3.8110 h1        1 A2E      0.077000
     69 H23         5.8720   -1.4480    1.9970 hn        1 A2E      0.169000
     70 H301        6.9870   -1.3050    5.4250 hc        1 A2E      0.098500
     71 H302        5.5270   -1.8560    5.7310 hc        1 A2E      0.098500
     72 H331        8.9940   -4.8090    6.1890 ha        1 A2E      0.104000
     73 H332        7.6150   -5.2320    6.8500 ha        1 A2E      0.104000
     74 H321        8.8740   -2.7730    6.8270 hc        1 A2E      0.086000
     75 H322        8.1930   -3.5720    8.0740 hc        1 A2E      0.086000
     76 H311        7.0860   -1.6260    7.5220 hc        1 A2E      0.082000
     77 H312        6.1660   -2.9280    7.4370 hc        1 A2E      0.082000
     78 H34         7.7530   -7.0250    1.8810 ha        1 A2E      0.146750
     79 H37         5.5040   -3.0500    0.7390 ha        1 A2E      0.126000
     80 H36         6.0290   -4.6200   -0.9340 ha        1 A2E      0.133000
     81 H35         7.1620   -6.6190   -0.3540 ha        1 A2E      0.146750
@<TRIPOS>BOND
     1    1    2 1   
     2    2    4 1   
     3    3    8 1   
     4    3   38 1   
     5    4   39 1   
     6    5    6 1   
     7    5    7 1   
     8    6   11 1   
     9    6   40 1   
    10    6   41 1   
    11    7    9 1   
    12    8   42 1   
    13    9   10 1   
    14    9   12 1   
    15    9   43 1   
    16   10   11 1   
    17   10   44 1   
    18   10   45 1   
    19   11   46 1   
    20   11   47 1   
    21   12   13 1   
    22   12   48 1   
    23   13   14 1   
    24   13   49 1   
    25   13   50 1   
    26   14   15 1   
    27   14   51 1   
    28   14   52 1   
    29   15   16 1   
    30   15   53 1   
    31   15   54 1   
    32   16   17 1   
    33   16   55 1   
    34   16   56 1   
    35   17   18 1   
    36   17   57 1   
    37   17   58 1   
    38   18   19 1   
    39   18   59 1   
    40   18   60 1   
    41   19   20 1   
    42   19   61 1   
    43   19   62 1   
    44   20   21 1   
    45   20   63 1   
    46   20   64 1   
    47   21   22 1   
    48   21   65 1   
    49   21   66 1   
    50   22   23 1   
    51   22   67 1   
    52   22   68 1   
    53   23   24 1   
    54   23   69 1   
    55   24   25 1   
    56   24   34 1   
    57   25   26 1   
    58   25   27 1   
    59   26   30 1   
    60   26   70 1   
    61   26   71 1   
    62   27   31 1   
    63   28   29 1   
    64   28   72 1   
    65   28   73 1   
    66   29   30 1   
    67   29   74 1   
    68   29   75 1   
    69   30   76 1   
    70   30   77 1   
    71   31   32 1   
    72   32   34 1   
    73   33   37 1   
    74   33   78 1   
    75   34   35 1   
    76   35   36 1   
    77   35   79 1   
    78   36   80 1   
    79   37   81 1   
@<TRIPOS>SUBSTRUCTURE
     1 A2E         1 TEMP              0 ****  ****    0 ROOT
