@<TRIPOS>MOLECULE
A2E
   82    86     1     0     0
SMALL
bcc


@<TRIPOS>ATOM
      1 O11        -0.1900   -0.2760    0.0180 o         1 A2E     -0.560500
      2 C9          1.0320   -0.0860    0.0660 c         1 A2E      0.684700
      3 C8          1.7970    0.3150    1.2490 cc        1 A2E     -0.215200
      4 N10         1.7780   -0.2590   -1.1330 ns        1 A2E     -0.429100
      5 C5          3.1360   -0.1120   -1.1790 cc        1 A2E      0.163400
      6 C6          3.8310   -0.2400   -2.5060 c3        1 A2E     -0.078200
      7 C4          3.8600    0.1760   -0.0240 cd        1 A2E     -0.330200
      8 C7          3.1430    0.4440    1.1930 cd        1 A2E     -0.066000
      9 C3          5.3430    0.3030   -0.0110 c3        1 A2E      0.231700
     10 C2          6.0170    0.1110   -1.3760 c3        1 A2E     -0.100400
     11 C1          5.1140    0.5620   -2.5010 c3        1 A2E     -0.074400
     12 N12         5.9090   -0.6940    0.9980 ny        1 A2E     -0.775000
     13 C13         7.3170   -0.3920    1.3770 c3        1 A2E      0.097800
     14 C14         7.8890   -1.4030    2.3640 c3        1 A2E     -0.108400
     15 C15         9.3180   -1.0230    2.7010 c3        1 A2E     -0.078400
     16 C16         9.9160   -2.0100    3.6820 c3        1 A2E     -0.079400
     17 C17        11.3420   -1.6340    4.0260 c3        1 A2E     -0.079400
     18 C18        11.9420   -2.6170    5.0090 c3        1 A2E     -0.079400
     19 C19        13.3650   -2.2380    5.3590 c3        1 A2E     -0.079400
     20 C20        13.9630   -3.2180    6.3460 c3        1 A2E     -0.079400
     21 C21        15.3820   -2.8300    6.7050 c3        1 A2E     -0.084400
     22 C22        15.9580   -3.8310    7.7050 c3        1 A2E      0.166800
     23 N23        17.3040   -3.4800    8.1300 nu        1 A2E     -0.712600
     24 C24        17.8770   -4.3960    9.0630 ca        1 A2E      0.114600
     25 C25        17.7660   -4.1530   10.4320 ca        1 A2E     -0.163600
     26 C30        17.0290   -2.9570   10.9240 c3        1 A2E     -0.023100
     27 C26        18.4300   -5.0530   11.3430 ca        1 A2E      0.444600
     28 C33        18.3100   -4.8340   12.8300 c3        1 A2E     -0.133700
     29 C32        17.9940   -3.3980   13.1790 c3        1 A2E     -0.080400
     30 C31        16.7760   -2.9350   12.4150 c3        1 A2E     -0.080400
     31 N27        19.1460   -6.1000   10.9460 nb        1 A2E     -0.670000
     32 C28        19.2590   -6.3570    9.5990 ca        1 A2E      0.406600
     33 C34        20.0330   -7.4870    9.1730 ca        1 A2E     -0.160300
     34 C29        18.6310   -5.5400    8.6130 ca        1 A2E     -0.168300
     35 C37        18.7760   -5.8850    7.2430 ca        1 A2E     -0.125000
     36 C36        19.5200   -6.9760    6.8650 ca        1 A2E     -0.125000
     37 C35        20.1560   -7.7800    7.8390 ca        1 A2E     -0.127000
     38 H8          1.2030    0.5160    2.1540 ha        1 A2E      0.187000
     39 H10         1.2730   -0.4550   -1.9750 hn        1 A2E      0.351500
     40 H61         4.0460   -1.3260   -2.7000 hc        1 A2E      0.088200
     41 H62         3.1730    0.1240   -3.3430 hc        1 A2E      0.088200
     42 H7          3.7020    0.7900    2.0770 ha        1 A2E      0.131000
     43 H3          5.6180    1.3250    0.3960 hx        1 A2E      0.103700
     44 H21         6.9690    0.7050   -1.3990 hc        1 A2E      0.067200
     45 H22         6.2880   -0.9670   -1.5480 hc        1 A2E      0.067200
     46 H11         4.8840    1.6550   -2.3980 hc        1 A2E      0.080700
     47 H12A        5.6460    0.4200   -3.4800 hc        1 A2E      0.080700
     48 H12         5.3190   -0.6810    1.8390 hn        1 A2E      0.446300
     49 H131        7.9340   -0.3830    0.4330 hx        1 A2E      0.102700
     50 H132        7.3430    0.6410    1.8300 hx        1 A2E      0.102700
     51 H141        7.2770   -1.4240    3.3040 hc        1 A2E      0.065700
     52 H142        7.8730   -2.4350    1.9220 hc        1 A2E      0.065700
     53 H151        9.3420    0.0080    3.1440 hc        1 A2E      0.054200
     54 H152        9.9370   -1.0010    1.7650 hc        1 A2E      0.054200
     55 H161        9.8960   -3.0420    3.2400 hc        1 A2E      0.048200
     56 H162        9.2980   -2.0360    4.6180 hc        1 A2E      0.048200
     57 H171       11.9620   -1.6100    3.0920 hc        1 A2E      0.045200
     58 H172       11.3640   -0.6020    4.4660 hc        1 A2E      0.045200
     59 H181       11.9250   -3.6490    4.5680 hc        1 A2E      0.043700
     60 H182       11.3200   -2.6450    5.9420 hc        1 A2E      0.043700
     61 H191       13.9890   -2.2140    4.4270 hc        1 A2E      0.043700
     62 H192       13.3830   -1.2060    5.7970 hc        1 A2E      0.043700
     63 H201       13.9520   -4.2500    5.9060 hc        1 A2E      0.043700
     64 H202       13.3350   -3.2480    7.2750 hc        1 A2E      0.043700
     65 H211       16.0120   -2.8060    5.7770 hc        1 A2E      0.049200
     66 H212       15.3940   -1.7990    7.1440 hc        1 A2E      0.049200
     67 H221       15.9200   -4.8620    7.2430 h1        1 A2E      0.037700
     68 H222       15.3030   -3.8530    8.6220 h1        1 A2E      0.037700
     69 H23        17.9080   -3.3720    7.3350 hn        1 A2E      0.373800
     70 H301       17.6270   -2.0470   10.6350 hc        1 A2E      0.057200
     71 H302       16.0390   -2.8760   10.3970 hc        1 A2E      0.057200
     72 H331       19.2570   -5.1430   13.3480 hc        1 A2E      0.066700
     73 H332       17.4890   -5.5040   13.2080 hc        1 A2E      0.066700
     74 H321       18.8690   -2.7410   12.9340 hc        1 A2E      0.049200
     75 H322       17.8100   -3.3180   14.2820 hc        1 A2E      0.049200
     76 H311       15.9050   -3.5970   12.6640 hc        1 A2E      0.042200
     77 H312       16.5020   -1.8930   12.7250 hc        1 A2E      0.042200
     78 H34        20.5240   -8.1110    9.9360 ha        1 A2E      0.153000
     79 H37        18.2820   -5.2820    6.4670 ha        1 A2E      0.122000
     80 H36        19.6280   -7.2380    5.8020 ha        1 A2E      0.133000
     81 H35        20.7520   -8.6460    7.5110 ha        1 A2E      0.138000
     82 H122        5.8570   -1.6370    0.5990 hn        1 A2E      0.446300
@<TRIPOS>BOND
     1    1    2 2   
     2    2    3 1   
     3    2    4 1   
     4    3    8 2   
     5    3   38 1   
     6    4    5 1   
     7    4   39 1   
     8    5    6 1   
     9    5    7 2   
    10    6   11 1   
    11    6   40 1   
    12    6   41 1   
    13    7    8 1   
    14    7    9 1   
    15    8   42 1   
    16    9   10 1   
    17    9   12 1   
    18    9   43 1   
    19   10   11 1   
    20   10   44 1   
    21   10   45 1   
    22   11   46 1   
    23   11   47 1   
    24   12   13 1   
    25   12   48 1   
    26   12   82 1   
    27   13   14 1   
    28   13   49 1   
    29   13   50 1   
    30   14   15 1   
    31   14   51 1   
    32   14   52 1   
    33   15   16 1   
    34   15   53 1   
    35   15   54 1   
    36   16   17 1   
    37   16   55 1   
    38   16   56 1   
    39   17   18 1   
    40   17   57 1   
    41   17   58 1   
    42   18   19 1   
    43   18   59 1   
    44   18   60 1   
    45   19   20 1   
    46   19   61 1   
    47   19   62 1   
    48   20   21 1   
    49   20   63 1   
    50   20   64 1   
    51   21   22 1   
    52   21   65 1   
    53   21   66 1   
    54   22   23 1   
    55   22   67 1   
    56   22   68 1   
    57   23   24 1   
    58   23   69 1   
    59   24   25 ar  
    60   24   34 ar  
    61   25   26 1   
    62   25   27 ar  
    63   26   30 1   
    64   26   70 1   
    65   26   71 1   
    66   27   28 1   
    67   27   31 ar  
    68   28   29 1   
    69   28   72 1   
    70   28   73 1   
    71   29   30 1   
    72   29   74 1   
    73   29   75 1   
    74   30   76 1   
    75   30   77 1   
    76   31   32 ar  
    77   32   33 ar  
    78   32   34 ar  
    79   33   37 ar  
    80   33   78 1   
    81   34   35 ar  
    82   35   36 ar  
    83   35   79 1   
    84   36   37 ar  
    85   36   80 1   
    86   37   81 1   
@<TRIPOS>SUBSTRUCTURE
     1 A2E         1 TEMP              0 ****  ****    0 ROOT
