@<TRIPOS>MOLECULE
A2E
   81    85     1     0     0
SMALL
bcc


@<TRIPOS>ATOM
      1 O11        10.1170   -4.0720    0.7320 o         1 A2E     -0.644500
      2 C9          9.6970   -2.9330    0.4460 c         1 A2E      0.684700
      3 C8          8.2960   -2.5590    0.2790 cc        1 A2E     -0.257200
      4 N10        10.6410   -1.9060    0.2620 n         1 A2E     -0.440100
      5 C5         10.2760   -0.6090   -0.0530 cc        1 A2E      0.082400
      6 C6         11.3940    0.3860   -0.2020 c3        1 A2E     -0.055200
      7 C4          8.9430   -0.2630   -0.1980 cd        1 A2E     -0.227200
      8 C7          7.9500   -1.2840   -0.0300 cd        1 A2E     -0.041000
      9 C3          8.5120    1.1340   -0.5790 c3        1 A2E      0.246700
     10 C2          9.6400    2.1440   -0.2930 c3        1 A2E     -0.074400
     11 C1         10.9360    1.6520   -0.8910 c3        1 A2E     -0.077400
     12 N12         7.2790    1.5990    0.0450 n3        1 A2E     -0.830200
     13 C13         6.0800    1.4150   -0.7480 c3        1 A2E      0.163800
     14 C14         4.8120    1.2220    0.0820 c3        1 A2E     -0.092400
     15 C15         3.6030    1.1320   -0.8230 c3        1 A2E     -0.078400
     16 C16         2.3340    0.9350   -0.0210 c3        1 A2E     -0.079400
     17 C17         1.1230    0.8450   -0.9250 c3        1 A2E     -0.079400
     18 C18        -0.1460    0.6490   -0.1230 c3        1 A2E     -0.079400
     19 C19        -1.3570    0.5600   -1.0270 c3        1 A2E     -0.078400
     20 C20        -2.6260    0.3630   -0.2250 c3        1 A2E     -0.079400
     21 C21        -3.8340    0.2740   -1.1310 c3        1 A2E     -0.084400
     22 C22        -5.0990    0.0790   -0.2960 c3        1 A2E      0.165800
     23 N23        -6.2930   -0.0530   -1.1160 nh        1 A2E     -0.713600
     24 C24        -7.5020   -0.1950   -0.3730 ca        1 A2E      0.121600
     25 C25        -7.9880   -1.4690   -0.0720 ca        1 A2E     -0.166600
     26 C30        -7.2320   -2.6780   -0.5000 c3        1 A2E     -0.024100
     27 C26        -9.2570   -1.5770    0.6020 ca        1 A2E      0.444600
     28 C33        -9.7980   -2.9370    0.9640 c3        1 A2E     -0.132700
     29 C32        -9.2420   -4.0320    0.0830 c3        1 A2E     -0.079400
     30 C31        -7.7330   -3.9810    0.0840 c3        1 A2E     -0.080400
     31 N27        -9.9940   -0.5260    0.9480 nb        1 A2E     -0.675000
     32 C28        -9.5260    0.7370    0.6670 ca        1 A2E      0.405600
     33 C34       -10.3210    1.8700    1.0440 ca        1 A2E     -0.163300
     34 C29        -8.2750    0.9580    0.0190 ca        1 A2E     -0.169300
     35 C37        -7.8470    2.2930   -0.2100 ca        1 A2E     -0.121000
     36 C36        -8.6270    3.3580    0.1670 ca        1 A2E     -0.127000
     37 C35        -9.8770    3.1430    0.7940 ca        1 A2E     -0.127000
     38 H8          7.5650   -3.3670    0.4150 ha        1 A2E      0.163000
     39 H10        11.6070   -2.1270    0.3630 hn        1 A2E      0.329500
     40 H61        11.7800    0.6340    0.8250 hc        1 A2E      0.061200
     41 H62        12.2450   -0.0640   -0.7810 hc        1 A2E      0.061200
     42 H7          6.8870   -1.0230   -0.1600 ha        1 A2E      0.139000
     43 H3          8.3590    1.1240   -1.7050 h1        1 A2E      0.056700
     44 H21         9.3670    3.1360   -0.7380 hc        1 A2E      0.055700
     45 H22         9.7600    2.2890    0.8120 hc        1 A2E      0.055700
     46 H11        10.8040    1.4620   -1.9880 hc        1 A2E      0.050200
     47 H12A       11.7290    2.4370   -0.7790 hc        1 A2E      0.050200
     48 H12         7.1790    1.2110    0.9630 hn        1 A2E      0.367800
     49 H131        5.9660    2.3460   -1.3760 h1        1 A2E      0.034200
     50 H132        6.1660    0.5470   -1.4660 h1        1 A2E      0.034200
     51 H141        4.8960    0.2840    0.6940 hc        1 A2E      0.046200
     52 H142        4.6860    2.0780    0.7960 hc        1 A2E      0.046200
     53 H151        3.5200    2.0690   -1.4340 hc        1 A2E      0.041700
     54 H152        3.7300    0.2790   -1.5410 hc        1 A2E      0.041700
     55 H161        2.4170   -0.0020    0.5910 hc        1 A2E      0.041200
     56 H162        2.2070    1.7880    0.6960 hc        1 A2E      0.041200
     57 H171        1.0400    1.7820   -1.5360 hc        1 A2E      0.040700
     58 H172        1.2510   -0.0070   -1.6420 hc        1 A2E      0.040700
     59 H181       -0.0630   -0.2880    0.4880 hc        1 A2E      0.040700
     60 H182       -0.2730    1.5010    0.5950 hc        1 A2E      0.040700
     61 H191       -1.4390    1.4970   -1.6380 hc        1 A2E      0.041200
     62 H192       -1.2300   -0.2930   -1.7440 hc        1 A2E      0.041200
     63 H201       -2.5420   -0.5740    0.3870 hc        1 A2E      0.041700
     64 H202       -2.7520    1.2170    0.4930 hc        1 A2E      0.041700
     65 H211       -3.9160    1.2100   -1.7430 hc        1 A2E      0.047700
     66 H212       -3.7100   -0.5830   -1.8450 hc        1 A2E      0.047700
     67 H221       -4.9960   -0.8620    0.3150 h1        1 A2E      0.037700
     68 H222       -5.1840    0.9410    0.4300 h1        1 A2E      0.037700
     69 H23        -6.3680    0.7180   -1.7560 hn        1 A2E      0.373800
     70 H301       -7.2820   -2.7310   -1.6230 hc        1 A2E      0.059200
     71 H302       -6.1460   -2.5660   -0.2280 hc        1 A2E      0.059200
     72 H331      -10.9190   -2.9420    0.9010 hc        1 A2E      0.064700
     73 H332       -9.5230   -3.1380    2.0360 hc        1 A2E      0.064700
     74 H321       -9.6270   -3.9150   -0.9640 hc        1 A2E      0.046700
     75 H322       -9.5940   -5.0260    0.4630 hc        1 A2E      0.046700
     76 H311       -7.3200   -4.8340   -0.5150 hc        1 A2E      0.042700
     77 H312       -7.3560   -4.0980    1.1340 hc        1 A2E      0.042700
     78 H34       -11.2910    1.6980    1.5360 ha        1 A2E      0.150000
     79 H37        -6.8730    2.4860   -0.6850 ha        1 A2E      0.126000
     80 H36        -8.2900    4.3890   -0.0130 ha        1 A2E      0.133000
     81 H35       -10.4860    4.0130    1.0820 ha        1 A2E      0.135000
@<TRIPOS>BOND
     1    1    2 2   
     2    2    3 1   
     3    2    4 1   
     4    3    8 2   
     5    3   38 1   
     6    4    5 1   
     7    4   39 1   
     8    5    6 1   
     9    5    7 2   
    10    6   11 1   
    11    6   40 1   
    12    6   41 1   
    13    7    8 1   
    14    7    9 1   
    15    8   42 1   
    16    9   10 1   
    17    9   12 1   
    18    9   43 1   
    19   10   11 1   
    20   10   44 1   
    21   10   45 1   
    22   11   46 1   
    23   11   47 1   
    24   12   13 1   
    25   12   48 1   
    26   13   14 1   
    27   13   49 1   
    28   13   50 1   
    29   14   15 1   
    30   14   51 1   
    31   14   52 1   
    32   15   16 1   
    33   15   53 1   
    34   15   54 1   
    35   16   17 1   
    36   16   55 1   
    37   16   56 1   
    38   17   18 1   
    39   17   57 1   
    40   17   58 1   
    41   18   19 1   
    42   18   59 1   
    43   18   60 1   
    44   19   20 1   
    45   19   61 1   
    46   19   62 1   
    47   20   21 1   
    48   20   63 1   
    49   20   64 1   
    50   21   22 1   
    51   21   65 1   
    52   21   66 1   
    53   22   23 1   
    54   22   67 1   
    55   22   68 1   
    56   23   24 1   
    57   23   69 1   
    58   24   25 ar  
    59   24   34 ar  
    60   25   26 1   
    61   25   27 ar  
    62   26   30 1   
    63   26   70 1   
    64   26   71 1   
    65   27   28 1   
    66   27   31 ar  
    67   28   29 1   
    68   28   72 1   
    69   28   73 1   
    70   29   30 1   
    71   29   74 1   
    72   29   75 1   
    73   30   76 1   
    74   30   77 1   
    75   31   32 ar  
    76   32   33 ar  
    77   32   34 ar  
    78   33   37 ar  
    79   33   78 1   
    80   34   35 ar  
    81   35   36 ar  
    82   35   79 1   
    83   36   37 ar  
    84   36   80 1   
    85   37   81 1   
@<TRIPOS>SUBSTRUCTURE
     1 A2E         1 TEMP              0 ****  ****    0 ROOT
