@<TRIPOS>MOLECULE
A2F
   15    16     1     0     0
SMALL
bcc


@<TRIPOS>ATOM
      1 F           0.0160   -0.2310   -0.0390 f         1 A2F     -0.193200
      2 C2          1.3720   -0.1470   -0.0020 ca        1 A2F      0.862200
      3 N3          1.9300   -0.0680    1.2450 nb        1 A2F     -0.668000
      4 N1          1.9820   -0.1400   -1.2460 nb        1 A2F     -0.767000
      5 C6          3.3410   -0.0740   -1.2700 ca        1 A2F      0.699200
      6 N6          4.0470   -0.1570   -2.4750 nh        1 A2F     -0.920500
      7 C5          4.0480    0.0020   -0.0330 ca        1 A2F     -0.379800
      8 C4          3.2910    0.0070    1.2200 ca        1 A2F      0.594300
      9 N7          5.3950    0.1010    0.3180 na        1 A2F     -0.258300
     10 C8          5.4240    0.1230    1.7210 cc        1 A2F      0.442700
     11 N9          4.2090    0.0930    2.2990 nd        1 A2F     -0.623700
     12 HN6         3.4900   -0.1520   -3.3040 hn        1 A2F      0.410300
     13 HN6A        4.8340    0.4510   -2.5210 hn        1 A2F      0.410300
     14 H8          6.3700    0.1880    2.2770 h5        1 A2F      0.077800
     15 HN7         6.1570   -0.0570   -0.2860 hn        1 A2F      0.311700
@<TRIPOS>BOND
     1    1    2 1   
     2    2    3 ar  
     3    2    4 ar  
     4    3    8 ar  
     5    4    5 ar  
     6    5    6 1   
     7    5    7 ar  
     8    6   12 1   
     9    6   13 1   
    10    7    8 ar  
    11    7    9 1   
    12    8   11 1   
    13    9   10 1   
    14    9   15 1   
    15   10   11 2   
    16   10   14 1   
@<TRIPOS>SUBSTRUCTURE
     1 A2F         1 TEMP              0 ****  ****    0 ROOT
