@<TRIPOS>MOLECULE
A2F
   15    16     1     0     0
SMALL
bcc


@<TRIPOS>ATOM
      1 F          -2.9980    0.8120    0.0070 f         1 A2F     -0.193200
      2 C2         -1.6940    0.4320    0.0050 ca        1 A2F      0.862200
      3 N3         -0.7780    1.4480    0.0360 nb        1 A2F     -0.668000
      4 N1         -1.4940   -0.9390   -0.0150 nb        1 A2F     -0.767000
      5 C6         -0.2060   -1.3780   -0.0340 ca        1 A2F      0.699200
      6 N6          0.0910   -2.7410   -0.1500 nh        1 A2F     -0.920500
      7 C5          0.8480   -0.4170   -0.0160 ca        1 A2F     -0.379800
      8 C4          0.5120    1.0070    0.0250 ca        1 A2F      0.594300
      9 N7          2.2420   -0.4960   -0.0050 na        1 A2F     -0.258300
     10 C8          2.7000    0.8320    0.0020 cc        1 A2F      0.442700
     11 N9          1.7200    1.7530    0.0430 nd        1 A2F     -0.623700
     12 HN6        -0.6920   -3.3590   -0.1010 hn        1 A2F      0.410300
     13 HN6A        0.8640   -3.0300    0.4080 hn        1 A2F      0.410300
     14 H8          3.7720    1.0710    0.0010 h5        1 A2F      0.077800
     15 HN7         2.7720   -1.3020   -0.2050 hn        1 A2F      0.311700
@<TRIPOS>BOND
     1    1    2 1   
     2    2    3 ar  
     3    2    4 ar  
     4    3    8 ar  
     5    4    5 ar  
     6    5    6 1   
     7    5    7 ar  
     8    6   12 1   
     9    6   13 1   
    10    7    8 ar  
    11    7    9 1   
    12    8   11 1   
    13    9   10 1   
    14    9   15 1   
    15   10   11 2   
    16   10   14 1   
@<TRIPOS>SUBSTRUCTURE
     1 A2F         1 TEMP              0 ****  ****    0 ROOT
