@<TRIPOS>MOLECULE
A2F
   16    17     1     0     0
SMALL
bcc


@<TRIPOS>ATOM
      1 F          -0.0120   -0.0020    0.0180 f         1 A2F     -0.138200
      2 C2          1.3390   -0.0020    0.0320 ca        1 A2F      0.890200
      3 N3          1.9470    0.0030    1.2780 nb        1 A2F     -0.575000
      4 N1          1.9450   -0.0080   -1.2020 nb        1 A2F     -0.701000
      5 C6          3.3050   -0.0080   -1.2190 ca        1 A2F      0.497200
      6 N6          3.9460   -0.0140   -2.5490 n4        1 A2F     -0.821300
      7 C5          4.0610   -0.0040   -0.0450 ca        1 A2F     -0.295800
      8 C4          3.2870    0.0020    1.2430 ca        1 A2F      0.628300
      9 N7          5.4010   -0.0030    0.3140 na        1 A2F     -0.292300
     10 C8          5.4320    0.0030    1.7310 cc        1 A2F      0.511700
     11 N9          4.2270    0.0060    2.3110 nd        1 A2F     -0.575700
     12 HN6         4.5260   -0.8560   -2.6410 hn        1 A2F      0.477133
     13 HN6A        4.5260    0.8260   -2.6480 hn        1 A2F      0.477133
     14 H8          6.3910    0.0050    2.2810 h5        1 A2F      0.116800
     15 HN7         6.1850   -0.0060   -0.2840 hn        1 A2F      0.325700
     16 H63         3.2310   -0.0170   -3.2960 hn        1 A2F      0.477133
@<TRIPOS>BOND
     1    1    2 1   
     2    2    3 ar  
     3    2    4 ar  
     4    3    8 ar  
     5    4    5 ar  
     6    5    6 1   
     7    5    7 ar  
     8    6   12 1   
     9    6   13 1   
    10    6   16 1   
    11    7    8 ar  
    12    7    9 1   
    13    8   11 1   
    14    9   10 1   
    15    9   15 1   
    16   10   11 2   
    17   10   14 1   
@<TRIPOS>SUBSTRUCTURE
     1 A2F         1 TEMP              0 ****  ****    0 ROOT
