@<TRIPOS>MOLECULE
A2F
   15    10     1     0     0
SMALL
bcc


@<TRIPOS>ATOM
      1 F          -3.6780   -0.0030    0.0030 f         1 A2F     -0.053000
      2 C2         -2.3390   -0.0030    0.0030 c2        1 A2F      0.196000
      3 N3         -1.7430   -0.0030    1.2300 n2        1 A2F     -0.142000
      4 N1         -1.5750   -0.0030   -1.1280 n1        1 A2F     -0.241000
      5 C6         -0.2360   -0.0030   -1.0350 c1        1 A2F      0.178000
      6 N6          0.1750    0.0030   -2.3930 n3        1 A2F     -0.318000
      7 C5          0.3720   -0.0030    0.2100 c1        1 A2F     -0.204000
      8 C4         -0.3830   -0.0030    1.3280 c1        1 A2F      0.047000
      9 N7          1.6790   -0.0030    0.5880 n1        1 A2F     -0.166000
     10 C8          1.7240   -0.0030    1.9390 c1        1 A2F     -0.013000
     11 N9          0.4530   -0.0030    2.4000 n1        1 A2F     -0.166000
     12 HN6         0.3790    0.7910   -2.8040 hn        1 A2F      0.205500
     13 HN6A        0.2420   -0.7820   -2.8530 hn        1 A2F      0.205500
     14 H8          2.5320    0.0240    2.4850 DU        1 A2F      0.234500
     15 HN7         2.3980   -0.0030    0.0270 DU        1 A2F      0.234500
@<TRIPOS>BOND
     1    1    2 1   
     2    2    3 1   
     3    2    4 1   
     4    3    8 1   
     5    5    6 1   
     6    5    7 1   
     7    6   12 1   
     8    6   13 1   
     9    9   10 1   
    10   10   11 1   
@<TRIPOS>SUBSTRUCTURE
     1 A2F         1 TEMP              0 ****  ****    0 ROOT
