@<TRIPOS>MOLECULE
A2F
   15    16     1     0     0
SMALL
bcc


@<TRIPOS>ATOM
      1 F           0.0170   -0.2390   -0.0320 f         1 A2F     -0.193200
      2 C2          1.3730   -0.1530    0.0030 ca        1 A2F      0.862200
      3 N3          1.9330   -0.0810    1.2490 nb        1 A2F     -0.668000
      4 N1          1.9790   -0.1360   -1.2420 nb        1 A2F     -0.767000
      5 C6          3.3380   -0.0670   -1.2700 ca        1 A2F      0.699200
      6 N6          4.0420   -0.1400   -2.4770 nv        1 A2F     -0.920500
      7 C5          4.0480    0.0020   -0.0340 ca        1 A2F     -0.379800
      8 C4          3.2940   -0.0040    1.2210 ca        1 A2F      0.594300
      9 N7          5.3960    0.1010    0.3150 na        1 A2F     -0.258300
     10 C8          5.4280    0.1140    1.7180 cc        1 A2F      0.442700
     11 N9          4.2150    0.0770    2.2980 nd        1 A2F     -0.623700
     12 HN6         3.4820   -0.1300   -3.3040 hn        1 A2F      0.410300
     13 HN6A        4.8270    0.4710   -2.5200 hn        1 A2F      0.410300
     14 H8          6.3760    0.1760    2.2710 h5        1 A2F      0.077800
     15 HN7         6.1570   -0.0510   -0.2930 hn        1 A2F      0.311700
@<TRIPOS>BOND
     1    1    2 1   
     2    2    3 ar  
     3    2    4 ar  
     4    3    8 ar  
     5    4    5 ar  
     6    5    6 1   
     7    5    7 ar  
     8    6   12 1   
     9    6   13 1   
    10    7    8 ar  
    11    7    9 1   
    12    8   11 1   
    13    9   10 1   
    14    9   15 1   
    15   10   11 2   
    16   10   14 1   
@<TRIPOS>SUBSTRUCTURE
     1 A2F         1 TEMP              0 ****  ****    0 ROOT
