@<TRIPOS>MOLECULE
A2G
   30    30     1     0     0
SMALL
bcc


@<TRIPOS>ATOM
      1 O          -1.4430    0.3890   -1.3240 os        1 A2G     -0.442600
      2 C1          0.0230    0.3890   -1.3240 c3        1 A2G      0.316900
      3 O1          0.4720   -0.7390   -1.9950 oh        1 A2G     -0.640800
      4 C2          0.6070    0.3890    0.0830 c3        1 A2G      0.045700
      5 N2          2.0570    0.2060   -0.0060 n         1 A2G     -0.567900
      6 C3          0.0430   -0.6790    0.9220 c3        1 A2G      0.104100
      7 O3          0.5120   -0.4980    2.2990 oh        1 A2G     -0.607800
      8 C4         -1.4360   -0.6730    0.9160 c3        1 A2G      0.128100
      9 O4         -1.8980    0.5000    1.6100 oh        1 A2G     -0.593800
     10 C5         -2.0100   -0.6670   -0.4950 c3        1 A2G      0.105100
     11 C6         -3.4970   -0.4760   -0.4130 c3        1 A2G      0.141400
     12 O6         -4.0730   -0.7010   -1.6890 oh        1 A2G     -0.599800
     13 C7          2.9400    1.3190    0.2270 c         1 A2G      0.650100
     14 O7          2.4820    2.4120    0.4990 o         1 A2G     -0.591100
     15 C8          4.4550    1.1270    0.1330 c3        1 A2G     -0.175100
     16 H1          0.3390    1.1840   -1.7960 h2        1 A2G      0.082700
     17 HO1         0.5370   -0.5610   -2.8620 ho        1 A2G      0.425000
     18 H2          0.4230    1.2510    0.5020 h1        1 A2G      0.124700
     19 HN2         2.4010   -0.6170   -0.1990 hn        1 A2G      0.314500
     20 H3          0.3570   -1.5420    0.5910 h1        1 A2G      0.059700
     21 HO3         0.7150   -1.2880    2.6490 ho        1 A2G      0.422000
     22 H4         -1.7580   -1.4660    1.3850 h1        1 A2G      0.057700
     23 HO4        -2.2370    0.2640    2.3960 ho        1 A2G      0.426000
     24 H5         -1.8250   -1.5290   -0.9140 h1        1 A2G      0.062700
     25 H6         -3.8710   -1.1080    0.2290 h1        1 A2G      0.067200
     26 H8          4.6710    0.6390   -0.6840 hc        1 A2G      0.068700
     27 H8A         4.7670    0.6190    0.9070 hc        1 A2G      0.068700
     28 H8B         4.8930    1.9990    0.1180 hc        1 A2G      0.068700
     29 H14        -3.6920    0.4360   -0.1240 h1        1 A2G      0.067200
     30 H15        -4.9510   -0.5810   -1.6420 ho        1 A2G      0.411000
@<TRIPOS>BOND
     1    1    2 1   
     2    1   10 1   
     3    2    3 1   
     4    2    4 1   
     5    2   16 1   
     6    3   17 1   
     7    4    5 1   
     8    4    6 1   
     9    4   18 1   
    10    5   13 1   
    11    5   19 1   
    12    6    7 1   
    13    6    8 1   
    14    6   20 1   
    15    7   21 1   
    16    8    9 1   
    17    8   10 1   
    18    8   22 1   
    19    9   23 1   
    20   10   11 1   
    21   10   24 1   
    22   11   12 1   
    23   11   25 1   
    24   11   29 1   
    25   12   30 1   
    26   13   14 2   
    27   13   15 1   
    28   15   26 1   
    29   15   27 1   
    30   15   28 1   
@<TRIPOS>SUBSTRUCTURE
     1 A2G         1 TEMP              0 ****  ****    0 ROOT
