@<TRIPOS>MOLECULE
A2G
   30    30     1     0     0
SMALL
bcc


@<TRIPOS>ATOM
      1 O          -1.5380   -1.0390   -0.2350 os        1 A2G     -0.465600
      2 C1         -0.2020   -1.2890    0.1650 c3        1 A2G      0.320900
      3 O1         -0.2530   -1.6360    1.5260 oh        1 A2G     -0.622800
      4 C2          0.7110   -0.0440   -0.0130 c3        1 A2G      0.054700
      5 N2          2.0560   -0.3120    0.4120 n         1 A2G     -0.556900
      6 C3          0.0580    1.1600    0.7180 c3        1 A2G      0.096100
      7 O3          0.8050    2.3400    0.5260 oh        1 A2G     -0.584800
      8 C4         -1.3890    1.3450    0.2240 c3        1 A2G      0.084100
      9 O4         -1.3990    1.7660   -1.1270 oh        1 A2G     -0.592800
     10 C5         -2.1710    0.0490    0.4480 c3        1 A2G      0.066100
     11 C6         -3.5880    0.1310   -0.1260 c3        1 A2G      0.140400
     12 O6         -4.3100   -1.0530    0.1270 oh        1 A2G     -0.593800
     13 C7          3.1460   -0.1120   -0.4200 c         1 A2G      0.664100
     14 O7          2.9930    0.1440   -1.6310 o         1 A2G     -0.610100
     15 C8          4.5150   -0.2590    0.1950 c3        1 A2G     -0.173100
     16 H1          0.1310   -2.1460   -0.4870 h2        1 A2G      0.086700
     17 HO1        -0.8070   -2.4230    1.6050 ho        1 A2G      0.422000
     18 H2          0.7300    0.1850   -1.1240 h1        1 A2G      0.100700
     19 HN2         2.1980   -0.4060    1.3890 hn        1 A2G      0.319500
     20 H3          0.0600    0.9870    1.8300 h1        1 A2G      0.094700
     21 HO3         0.6950    2.6030   -0.3990 ho        1 A2G      0.420000
     22 H4         -1.8690    2.1970    0.7840 h1        1 A2G      0.099700
     23 HO4        -1.2240    0.9890   -1.6750 ho        1 A2G      0.412000
     24 H5         -2.2050   -0.1850    1.5480 h1        1 A2G      0.077700
     25 H6         -4.1580    0.9450    0.3970 h1        1 A2G      0.061200
     26 H8          4.6300   -1.2620    0.6740 hc        1 A2G      0.069033
     27 H8A         5.2830   -0.1500   -0.6100 hc        1 A2G      0.069033
     28 H8B         4.6790    0.5340    0.9640 hc        1 A2G      0.069033
     29 H14        -3.5400    0.3410   -1.2270 h1        1 A2G      0.061200
     30 H15        -3.8370   -1.7720   -0.3090 ho        1 A2G      0.411000
@<TRIPOS>BOND
     1    1    2 1   
     2    1   10 1   
     3    2    3 1   
     4    2    4 1   
     5    2   16 1   
     6    3   17 1   
     7    4    5 1   
     8    4    6 1   
     9    4   18 1   
    10    5   13 1   
    11    5   19 1   
    12    6    7 1   
    13    6    8 1   
    14    6   20 1   
    15    7   21 1   
    16    8    9 1   
    17    8   10 1   
    18    8   22 1   
    19    9   23 1   
    20   10   11 1   
    21   10   24 1   
    22   11   12 1   
    23   11   25 1   
    24   11   29 1   
    25   12   30 1   
    26   13   14 2   
    27   13   15 1   
    28   15   26 1   
    29   15   27 1   
    30   15   28 1   
@<TRIPOS>SUBSTRUCTURE
     1 A2G         1 TEMP              0 ****  ****    0 ROOT
