@<TRIPOS>MOLECULE
A2K
   75    81     1     0     0
SMALL
bcc


@<TRIPOS>ATOM
      1 O33         0.0740    0.8120   -0.1530 o         1 A2K     -0.535100
      2 C1          1.3050    0.6930   -0.1200 c         1 A2K      0.568300
      3 C4          2.0200    0.2630    1.0880 ce        1 A2K     -0.255200
      4 C20         3.3640    0.2410    1.1720 cf        1 A2K     -0.000200
      5 C6          4.0450   -0.2280    2.4110 c3        1 A2K     -0.055200
      6 C19         4.2260    0.6700    0.0660 cf        1 A2K     -0.100200
      7 C5          3.5230    1.4950   -0.9630 c3        1 A2K     -0.038200
      8 C3          2.1610    0.9440   -1.3290 c3        1 A2K     -0.179400
      9 C8          5.5510    0.3800    0.0310 c2        1 A2K     -0.068400
     10 C11         6.4050    0.8150   -1.1310 c3        1 A2K      0.019800
     11 C10         7.6690   -0.0130   -1.4120 c3        1 A2K     -0.060400
     12 C12         8.3370   -0.5680   -0.1690 c3        1 A2K     -0.036000
     13 C16         9.0210    0.5370    0.6160 c3        1 A2K     -0.094100
     14 C13         7.2470   -1.3100    0.6300 c3        1 A2K     -0.061700
     15 C14         8.0190   -2.1780    1.6130 c3        1 A2K     -0.067400
     16 C9          6.2110   -0.3490    1.1710 c3        1 A2K     -0.018500
     17 C7          5.2240   -1.1030    2.0510 c3        1 A2K     -0.073400
     18 C15         9.3480   -1.7130   -0.4240 c3        1 A2K     -0.151700
     19 C22        10.7340   -1.2240   -0.7640 c         1 A2K      0.610100
     20 O24        11.6350   -1.1230    0.0750 o         1 A2K     -0.536100
     21 C23        10.9470   -0.8940   -2.1970 cx        1 A2K     -0.254700
     22 C31        12.1590   -1.4590   -2.9020 cx        1 A2K     -0.102900
     23 C30        12.1000    0.0010   -2.5870 cx        1 A2K     -0.102900
     24 C2          9.3110   -2.5650    0.8690 c3        1 A2K     -0.033500
     25 C39         9.3350   -4.0180    0.5520 c2        1 A2K     -0.170200
     26 C40        10.3120   -4.8410    0.9240 c2        1 A2K     -0.210000
     27 C21         6.7350    2.2800   -1.0770 ca        1 A2K     -0.068300
     28 C29         6.6280    3.0370    0.0930 ca        1 A2K     -0.128500
     29 C28         6.9340    4.3960    0.0920 ca        1 A2K     -0.115000
     30 C27         7.3580    5.0300   -1.0840 cp        1 A2K     -0.036000
     31 C26         7.4640    4.2720   -2.2600 ca        1 A2K     -0.115000
     32 C25         7.1540    2.9170   -2.2550 ca        1 A2K     -0.128500
     33 C32         7.6810    6.4500   -1.0870 cp        1 A2K     -0.152300
     34 C38         6.9120    7.3700   -0.3330 ca        1 A2K      0.404200
     35 N37         7.1580    8.6910   -0.2910 nb        1 A2K     -0.662000
     36 C36         8.1990    9.1530   -1.0120 ca        1 A2K      0.395200
     37 C35         9.0240    8.3260   -1.7950 ca        1 A2K     -0.245300
     38 C34         8.7570    6.9580   -1.8300 ca        1 A2K     -0.084000
     39 H4          1.3850   -0.0490    1.9340 ha        1 A2K      0.150000
     40 H31C        2.2730   -0.0320   -1.8740 hc        1 A2K      0.073200
     41 H32C        1.6390    1.6580   -2.0200 hc        1 A2K      0.073200
     42 H61C        3.3340   -0.7970    3.0650 hc        1 A2K      0.058700
     43 H62C        4.3950    0.6680    2.9940 hc        1 A2K      0.058700
     44 H71C        4.8640   -2.0210    1.5180 hc        1 A2K      0.051700
     45 H72C        5.7500   -1.4390    2.9830 hc        1 A2K      0.051700
     46 H51C        3.4040    2.5330   -0.5430 hc        1 A2K      0.059200
     47 H52C        4.1240    1.5980   -1.9040 hc        1 A2K      0.059200
     48 H11         5.7760    0.6670   -2.0650 hc        1 A2K      0.061700
     49 H9          6.7180    0.4300    1.8140 hc        1 A2K      0.066700
     50 H101        7.3800   -0.8710   -2.0780 hc        1 A2K      0.047200
     51 H102        8.3980    0.6220   -1.9820 hc        1 A2K      0.047200
     52 H161        9.8670    0.9610    0.0200 hc        1 A2K      0.046033
     53 H162        9.4320    0.1360    1.5730 hc        1 A2K      0.046033
     54 H163        8.3100    1.3680    0.8400 hc        1 A2K      0.046033
     55 H13         6.7160   -2.0080   -0.0830 hc        1 A2K      0.052700
     56 H15         8.9800   -2.3350   -1.2860 hc        1 A2K      0.069700
     57 H141        8.2640   -1.6090    2.5440 hc        1 A2K      0.049700
     58 H142        7.4260   -3.0790    1.9070 hc        1 A2K      0.049700
     59 H2         10.1980   -2.2930    1.5070 hc        1 A2K      0.082700
     60 H23        10.0010   -0.8080   -2.7680 hc        1 A2K      0.090700
     61 H311       12.0450   -1.7960   -3.9480 hc        1 A2K      0.080950
     62 H312       12.8490   -2.1010   -2.3250 hc        1 A2K      0.080950
     63 H301       12.7450    0.3970   -1.7800 hc        1 A2K      0.080950
     64 H302       11.9480    0.7290   -3.4020 hc        1 A2K      0.080950
     65 H39         8.4650   -4.3830   -0.0200 ha        1 A2K      0.117000
     66 H401       11.1890   -4.5060    1.4940 ha        1 A2K      0.115500
     67 H402       10.2980   -5.9120    0.6800 ha        1 A2K      0.115500
     68 H29         6.2920    2.5610    1.0280 ha        1 A2K      0.136000
     69 H25         7.2350    2.3370   -3.1880 ha        1 A2K      0.136000
     70 H28         6.8500    4.9740    1.0250 ha        1 A2K      0.136500
     71 H26         7.7850    4.7570   -3.1940 ha        1 A2K      0.136500
     72 H38         6.0480    7.0220    0.2620 h4        1 A2K      0.025100
     73 H34         9.3870    6.2800   -2.4260 ha        1 A2K      0.141000
     74 H36         8.3760   10.2420   -0.9560 h4        1 A2K      0.024100
     75 H35         9.8610    8.7530   -2.3630 ha        1 A2K      0.144000
@<TRIPOS>BOND
     1    1    2 2   
     2    2    3 1   
     3    2    8 1   
     4    3    4 2   
     5    3   39 1   
     6    4    5 1   
     7    4    6 1   
     8    5   17 1   
     9    5   42 1   
    10    5   43 1   
    11    6    7 1   
    12    6    9 2   
    13    7    8 1   
    14    7   46 1   
    15    7   47 1   
    16    8   40 1   
    17    8   41 1   
    18    9   10 1   
    19    9   16 1   
    20   10   11 1   
    21   10   27 1   
    22   10   48 1   
    23   11   12 1   
    24   11   50 1   
    25   11   51 1   
    26   12   13 1   
    27   12   14 1   
    28   12   18 1   
    29   13   52 1   
    30   13   53 1   
    31   13   54 1   
    32   14   15 1   
    33   14   16 1   
    34   14   55 1   
    35   15   24 1   
    36   15   57 1   
    37   15   58 1   
    38   16   17 1   
    39   16   49 1   
    40   17   44 1   
    41   17   45 1   
    42   18   19 1   
    43   18   24 1   
    44   18   56 1   
    45   19   20 2   
    46   19   21 1   
    47   21   22 1   
    48   21   23 1   
    49   21   60 1   
    50   22   23 1   
    51   22   61 1   
    52   22   62 1   
    53   23   63 1   
    54   23   64 1   
    55   24   25 1   
    56   24   59 1   
    57   25   26 2   
    58   25   65 1   
    59   26   66 1   
    60   26   67 1   
    61   27   28 ar  
    62   27   32 ar  
    63   28   29 ar  
    64   28   68 1   
    65   29   30 ar  
    66   29   70 1   
    67   30   31 ar  
    68   30   33 1   
    69   31   32 ar  
    70   31   71 1   
    71   32   69 1   
    72   33   34 ar  
    73   33   38 ar  
    74   34   35 ar  
    75   34   72 1   
    76   35   36 ar  
    77   36   37 ar  
    78   36   74 1   
    79   37   38 ar  
    80   37   75 1   
    81   38   73 1   
@<TRIPOS>SUBSTRUCTURE
     1 A2K         1 TEMP              0 ****  ****    0 ROOT
