@<TRIPOS>MOLECULE
A2K
   75    81     1     0     0
SMALL
bcc


@<TRIPOS>ATOM
      1 O33        -4.9860    4.9670   -0.9830 o         1 A2K     -0.535100
      2 C1         -4.2770    3.9750   -0.7720 c         1 A2K      0.568300
      3 C4         -4.3610    3.2020    0.4720 ce        1 A2K     -0.255200
      4 C20        -3.5160    2.1930    0.7620 cf        1 A2K     -0.000200
      5 C6         -3.6560    1.4190    2.0280 c3        1 A2K     -0.055200
      6 C19        -2.4260    1.8000   -0.1360 cf        1 A2K     -0.100200
      7 C5         -2.0800    2.8360   -1.1560 c3        1 A2K     -0.038200
      8 C3         -3.3010    3.4640   -1.7940 c3        1 A2K     -0.179400
      9 C8         -1.7680    0.6220    0.0030 c2        1 A2K     -0.068400
     10 C11        -0.6680    0.2360   -0.9500 c3        1 A2K      0.019800
     11 C10        -0.3970   -1.2660   -1.1270 c3        1 A2K     -0.060400
     12 C12        -0.6080   -2.0880    0.1290 c3        1 A2K     -0.036000
     13 C16         0.4960   -1.8270    1.1380 c3        1 A2K     -0.094100
     14 C13        -2.0170   -1.7470    0.6540 c3        1 A2K     -0.061700
     15 C14        -2.3410   -2.8640    1.6350 c3        1 A2K     -0.067400
     16 C9         -2.0930   -0.3140    1.1370 c3        1 A2K     -0.018500
     17 C7         -3.4590   -0.0540    1.7550 c3        1 A2K     -0.073400
     18 C15        -0.7390   -3.6140   -0.0990 c3        1 A2K     -0.151700
     19 C22         0.5880   -4.3270   -0.1570 c         1 A2K      0.610100
     20 O24         1.0870   -4.8980    0.8190 o         1 A2K     -0.536100
     21 C23         1.2470   -4.3170   -1.4890 cx        1 A2K     -0.254700
     22 C31         1.7600   -5.6200   -2.0580 cx        1 A2K     -0.102900
     23 C30         2.7300   -4.5870   -1.5830 cx        1 A2K     -0.102900
     24 C2         -1.6390   -4.1090    1.0610 c3        1 A2K     -0.033500
     25 C39        -2.6280   -5.1110    0.5800 c2        1 A2K     -0.170200
     26 C40        -2.6670   -6.3730    0.9980 c2        1 A2K     -0.210000
     27 C21         0.6120    0.9740   -0.6700 ca        1 A2K     -0.068300
     28 C29         0.8700    1.6030    0.5510 ca        1 A2K     -0.128500
     29 C28         2.0670    2.2850    0.7600 ca        1 A2K     -0.115000
     30 C27         3.0350    2.3520   -0.2500 cp        1 A2K     -0.036000
     31 C26         2.7760    1.7230   -1.4770 ca        1 A2K     -0.115000
     32 C25         1.5790    1.0460   -1.6840 ca        1 A2K     -0.128500
     33 C32         4.2880    3.0630   -0.0320 cp        1 A2K     -0.152300
     34 C38         4.3150    4.2760    0.6960 ca        1 A2K      0.404200
     35 N37         5.4360    4.9790    0.9340 nb        1 A2K     -0.662000
     36 C36         6.5930    4.4900    0.4460 ca        1 A2K      0.395200
     37 C35         6.6760    3.2960   -0.2920 ca        1 A2K     -0.245300
     38 C34         5.5050    2.5760   -0.5320 ca        1 A2K     -0.084000
     39 H4         -5.1670    3.4950    1.1650 ha        1 A2K      0.150000
     40 H31C       -3.8380    2.7080   -2.4270 hc        1 A2K      0.073200
     41 H32C       -2.9840    4.3040   -2.4670 hc        1 A2K      0.073200
     42 H61C       -2.8840    1.7810    2.7610 hc        1 A2K      0.058700
     43 H62C       -4.6640    1.5900    2.4900 hc        1 A2K      0.058700
     44 H71C       -3.5430   -0.6350    2.7110 hc        1 A2K      0.051700
     45 H72C       -4.2640   -0.4220    1.0660 hc        1 A2K      0.051700
     46 H51C       -1.4780    3.6340   -0.6380 hc        1 A2K      0.059200
     47 H52C       -1.4310    2.4250   -1.9720 hc        1 A2K      0.059200
     48 H11        -1.0050    0.5700   -1.9830 hc        1 A2K      0.061700
     49 H9         -1.3150   -0.1460    1.9400 hc        1 A2K      0.066700
     50 H101       -1.0850   -1.6510   -1.9280 hc        1 A2K      0.047200
     51 H102        0.6540   -1.4030   -1.4960 hc        1 A2K      0.047200
     52 H161        0.5980   -0.7350    1.3460 hc        1 A2K      0.046033
     53 H162        0.2840   -2.3650    2.0940 hc        1 A2K      0.046033
     54 H163        1.4740   -2.1930    0.7370 hc        1 A2K      0.046033
     55 H13        -2.7370   -1.8450   -0.2120 hc        1 A2K      0.052700
     56 H15        -1.2690   -3.7890   -1.0770 hc        1 A2K      0.069700
     57 H141       -1.9440   -2.6310    2.6540 hc        1 A2K      0.049700
     58 H142       -3.4450   -3.0160    1.7220 hc        1 A2K      0.049700
     59 H2         -0.9850   -4.5630    1.8570 hc        1 A2K      0.082700
     60 H23         0.8040   -3.5790   -2.1870 hc        1 A2K      0.090700
     61 H311        1.6280   -6.5410   -1.4610 hc        1 A2K      0.080950
     62 H312        1.6410   -5.8000   -3.1410 hc        1 A2K      0.080950
     63 H301        3.3230   -4.0170   -2.3190 hc        1 A2K      0.080950
     64 H302        3.2850   -4.7710   -0.6440 hc        1 A2K      0.080950
     65 H39        -3.3510   -4.7300   -0.1610 ha        1 A2K      0.117000
     66 H401       -3.4130   -7.0880    0.6280 ha        1 A2K      0.115500
     67 H402       -1.9590   -6.7790    1.7340 ha        1 A2K      0.115500
     68 H29         0.1210    1.5680    1.3580 ha        1 A2K      0.136000
     69 H25         1.3880    0.5640   -2.6550 ha        1 A2K      0.136000
     70 H28         2.2550    2.7690    1.7310 ha        1 A2K      0.136500
     71 H26         3.5220    1.7750   -2.2850 ha        1 A2K      0.136500
     72 H38         3.3810    4.7060    1.1030 h4        1 A2K      0.025100
     73 H34         5.5340    1.6340   -1.0990 ha        1 A2K      0.141000
     74 H36         7.4950    5.0900    0.6590 h4        1 A2K      0.024100
     75 H35         7.6440    2.9400   -0.6660 ha        1 A2K      0.144000
@<TRIPOS>BOND
     1    1    2 2   
     2    2    3 1   
     3    2    8 1   
     4    3    4 2   
     5    3   39 1   
     6    4    5 1   
     7    4    6 1   
     8    5   17 1   
     9    5   42 1   
    10    5   43 1   
    11    6    7 1   
    12    6    9 2   
    13    7    8 1   
    14    7   46 1   
    15    7   47 1   
    16    8   40 1   
    17    8   41 1   
    18    9   10 1   
    19    9   16 1   
    20   10   11 1   
    21   10   27 1   
    22   10   48 1   
    23   11   12 1   
    24   11   50 1   
    25   11   51 1   
    26   12   13 1   
    27   12   14 1   
    28   12   18 1   
    29   13   52 1   
    30   13   53 1   
    31   13   54 1   
    32   14   15 1   
    33   14   16 1   
    34   14   55 1   
    35   15   24 1   
    36   15   57 1   
    37   15   58 1   
    38   16   17 1   
    39   16   49 1   
    40   17   44 1   
    41   17   45 1   
    42   18   19 1   
    43   18   24 1   
    44   18   56 1   
    45   19   20 2   
    46   19   21 1   
    47   21   22 1   
    48   21   23 1   
    49   21   60 1   
    50   22   23 1   
    51   22   61 1   
    52   22   62 1   
    53   23   63 1   
    54   23   64 1   
    55   24   25 1   
    56   24   59 1   
    57   25   26 2   
    58   25   65 1   
    59   26   66 1   
    60   26   67 1   
    61   27   28 ar  
    62   27   32 ar  
    63   28   29 ar  
    64   28   68 1   
    65   29   30 ar  
    66   29   70 1   
    67   30   31 ar  
    68   30   33 1   
    69   31   32 ar  
    70   31   71 1   
    71   32   69 1   
    72   33   34 ar  
    73   33   38 ar  
    74   34   35 ar  
    75   34   72 1   
    76   35   36 ar  
    77   36   37 ar  
    78   36   74 1   
    79   37   38 ar  
    80   37   75 1   
    81   38   73 1   
@<TRIPOS>SUBSTRUCTURE
     1 A2K         1 TEMP              0 ****  ****    0 ROOT
