@<TRIPOS>MOLECULE
A2K
   75    81     1     0     0
SMALL
bcc


@<TRIPOS>ATOM
      1 O33         0.0760    0.8020   -0.1360 o         1 A2K     -0.535100
      2 C1          1.3070    0.6850   -0.1040 c         1 A2K      0.568300
      3 C4          2.0240    0.2640    1.1060 ce        1 A2K     -0.255200
      4 C20         3.3690    0.2440    1.1870 cf        1 A2K     -0.000200
      5 C6          4.0520   -0.2150    2.4290 c3        1 A2K     -0.055200
      6 C19         4.2280    0.6670    0.0770 cf        1 A2K     -0.100200
      7 C5          3.5230    1.4840   -0.9560 c3        1 A2K     -0.038200
      8 C3          2.1600    0.9290   -1.3160 c3        1 A2K     -0.179400
      9 C8          5.5530    0.3780    0.0420 c2        1 A2K     -0.068400
     10 C11         6.4050    0.8060   -1.1240 c3        1 A2K      0.019800
     11 C10         7.6690   -0.0220   -1.4010 c3        1 A2K     -0.060400
     12 C12         8.3400   -0.5680   -0.1560 c3        1 A2K     -0.036000
     13 C16         9.0240    0.5440    0.6200 c3        1 A2K     -0.094100
     14 C13         7.2530   -1.3060    0.6500 c3        1 A2K     -0.061700
     15 C14         8.0270   -2.1660    1.6380 c3        1 A2K     -0.067400
     16 C9          6.2160   -0.3420    1.1860 c3        1 A2K     -0.018500
     17 C7          5.2320   -1.0910    2.0730 c3        1 A2K     -0.073400
     18 C15         9.3530   -1.7140   -0.4050 c3        1 A2K     -0.151700
     19 C22        10.7370   -1.2250   -0.7510 c         1 A2K      0.610100
     20 O24        11.6390   -1.1170    0.0870 o         1 A2K     -0.536100
     21 C23        10.9480   -0.9040   -2.1860 cx        1 A2K     -0.254700
     22 C31        12.1590   -1.4720   -2.8890 cx        1 A2K     -0.102900
     23 C30        12.0990   -0.0100   -2.5830 cx        1 A2K     -0.102900
     24 C2          9.3180   -2.5570    0.8940 c3        1 A2K     -0.033500
     25 C39         9.3430   -4.0120    0.5870 c2        1 A2K     -0.170200
     26 C40        10.3210   -4.8320    0.9630 c2        1 A2K     -0.210000
     27 C21         6.7340    2.2720   -1.0810 ca        1 A2K     -0.068300
     28 C29         6.6270    3.0370    0.0850 ca        1 A2K     -0.128500
     29 C28         6.9320    4.3960    0.0740 ca        1 A2K     -0.115000
     30 C27         7.3530    5.0220   -1.1070 cp        1 A2K     -0.036000
     31 C26         7.4580    4.2570   -2.2780 ca        1 A2K     -0.115000
     32 C25         7.1500    2.9010   -2.2640 ca        1 A2K     -0.128500
     33 C32         7.6750    6.4440   -1.1200 cp        1 A2K     -0.152300
     34 C38         6.9060    7.3670   -0.3710 ca        1 A2K      0.404200
     35 N37         7.1510    8.6880   -0.3390 nb        1 A2K     -0.662000
     36 C36         8.1900    9.1470   -1.0640 ca        1 A2K      0.395200
     37 C35         9.0140    8.3150   -1.8430 ca        1 A2K     -0.245300
     38 C34         8.7490    6.9470   -1.8690 ca        1 A2K     -0.084000
     39 H4          1.3910   -0.0430    1.9540 ha        1 A2K      0.150000
     40 H31C        1.6370    1.6380   -2.0110 hc        1 A2K      0.073200
     41 H32C        2.2730   -0.0510   -1.8550 hc        1 A2K      0.073200
     42 H61C        4.4020    0.6850    3.0050 hc        1 A2K      0.058700
     43 H62C        3.3420   -0.7810    3.0880 hc        1 A2K      0.058700
     44 H71C        5.7590   -1.4200    3.0060 hc        1 A2K      0.051700
     45 H72C        4.8720   -2.0140    1.5470 hc        1 A2K      0.051700
     46 H51C        3.4030    2.5240   -0.5430 hc        1 A2K      0.059200
     47 H52C        4.1220    1.5820   -1.8990 hc        1 A2K      0.059200
     48 H11         5.7740    0.6510   -2.0570 hc        1 A2K      0.061700
     49 H9          6.7240    0.4420    1.8230 hc        1 A2K      0.066700
     50 H101        7.3810   -0.8850   -2.0610 hc        1 A2K      0.047200
     51 H102        8.3960    0.6100   -1.9770 hc        1 A2K      0.047200
     52 H161        8.3130    1.3750    0.8400 hc        1 A2K      0.046033
     53 H162        9.8690    0.9640    0.0200 hc        1 A2K      0.046033
     54 H163        9.4370    0.1490    1.5800 hc        1 A2K      0.046033
     55 H13         6.7210   -2.0090   -0.0570 hc        1 A2K      0.052700
     56 H15         8.9830   -2.3420   -1.2620 hc        1 A2K      0.069700
     57 H141        7.4360   -3.0650    1.9390 hc        1 A2K      0.049700
     58 H142        8.2730   -1.5910    2.5640 hc        1 A2K      0.049700
     59 H2         10.2060   -2.2800    1.5280 hc        1 A2K      0.082700
     60 H23        10.0010   -0.8230   -2.7560 hc        1 A2K      0.090700
     61 H311       12.8520   -2.1090   -2.3090 hc        1 A2K      0.080950
     62 H312       12.0450   -1.8160   -3.9320 hc        1 A2K      0.080950
     63 H301       12.7440    0.3930   -1.7800 hc        1 A2K      0.080950
     64 H302       11.9440    0.7130   -3.4030 hc        1 A2K      0.080950
     65 H39         8.4730   -4.3810    0.0190 ha        1 A2K      0.117000
     66 H401       11.1990   -4.4920    1.5280 ha        1 A2K      0.115500
     67 H402       10.3080   -5.9040    0.7250 ha        1 A2K      0.115500
     68 H29         6.2940    2.5660    1.0230 ha        1 A2K      0.136000
     69 H25         7.2300    2.3160   -3.1920 ha        1 A2K      0.136000
     70 H28         6.8490    4.9810    1.0030 ha        1 A2K      0.136500
     71 H26         7.7770    4.7360   -3.2160 ha        1 A2K      0.136500
     72 H38         6.0440    7.0220    0.2280 h4        1 A2K      0.025100
     73 H34         9.3780    6.2660   -2.4610 ha        1 A2K      0.141000
     74 H36         8.3650   10.2360   -1.0160 h4        1 A2K      0.024100
     75 H35         9.8500    8.7400   -2.4150 ha        1 A2K      0.144000
@<TRIPOS>BOND
     1    1    2 2   
     2    2    3 1   
     3    2    8 1   
     4    3    4 2   
     5    3   39 1   
     6    4    5 1   
     7    4    6 1   
     8    5   17 1   
     9    5   42 1   
    10    5   43 1   
    11    6    7 1   
    12    6    9 2   
    13    7    8 1   
    14    7   46 1   
    15    7   47 1   
    16    8   40 1   
    17    8   41 1   
    18    9   10 1   
    19    9   16 1   
    20   10   11 1   
    21   10   27 1   
    22   10   48 1   
    23   11   12 1   
    24   11   50 1   
    25   11   51 1   
    26   12   13 1   
    27   12   14 1   
    28   12   18 1   
    29   13   52 1   
    30   13   53 1   
    31   13   54 1   
    32   14   15 1   
    33   14   16 1   
    34   14   55 1   
    35   15   24 1   
    36   15   57 1   
    37   15   58 1   
    38   16   17 1   
    39   16   49 1   
    40   17   44 1   
    41   17   45 1   
    42   18   19 1   
    43   18   24 1   
    44   18   56 1   
    45   19   20 2   
    46   19   21 1   
    47   21   22 1   
    48   21   23 1   
    49   21   60 1   
    50   22   23 1   
    51   22   61 1   
    52   22   62 1   
    53   23   63 1   
    54   23   64 1   
    55   24   25 1   
    56   24   59 1   
    57   25   26 2   
    58   25   65 1   
    59   26   66 1   
    60   26   67 1   
    61   27   28 ar  
    62   27   32 ar  
    63   28   29 ar  
    64   28   68 1   
    65   29   30 ar  
    66   29   70 1   
    67   30   31 ar  
    68   30   33 1   
    69   31   32 ar  
    70   31   71 1   
    71   32   69 1   
    72   33   34 ar  
    73   33   38 ar  
    74   34   35 ar  
    75   34   72 1   
    76   35   36 ar  
    77   36   37 ar  
    78   36   74 1   
    79   37   38 ar  
    80   37   75 1   
    81   38   73 1   
@<TRIPOS>SUBSTRUCTURE
     1 A2K         1 TEMP              0 ****  ****    0 ROOT
