@<TRIPOS>MOLECULE
A2K
   75    73     1     0     0
SMALL
bcc


@<TRIPOS>ATOM
      1 O33        -6.2680   -0.3560    1.6680 o         1 A2K     -0.296000
      2 C1         -5.0550   -0.2980    1.5280 c1        1 A2K      0.260000
      3 C4         -4.3220   -0.1970    2.5200 c1        1 A2K     -0.235000
      4 C20        -3.5780    0.0570    2.4180 c1        1 A2K      0.003000
      5 C6         -2.5720    0.3220    3.7770 c2        1 A2K     -0.137000
      6 C19        -3.2410    0.5280    1.2670 c2        1 A2K     -0.096000
      7 C5         -4.3920    1.2730    0.3310 c3        1 A2K     -0.121000
      8 C3         -4.3760   -0.6620    0.0720 c3        1 A2K     -0.207000
      9 C8         -2.2060    0.2490    0.8110 c1        1 A2K     -0.059000
     10 C11        -1.8950    0.5600   -0.8220 c2        1 A2K     -0.033000
     11 C10        -1.3460   -0.7850   -1.3670 c3        1 A2K     -0.140000
     12 C12        -0.2880   -1.3140   -0.3900 c3        1 A2K     -0.034000
     13 C16         0.6990   -0.1890   -0.0390 c3        1 A2K     -0.213000
     14 C13        -0.9070   -1.7490    0.7420 c3        1 A2K     -0.104000
     15 C14         0.0610   -2.6130    1.5080 c3        1 A2K     -0.147000
     16 C9         -1.3130   -0.5550    1.5670 c3        1 A2K     -0.061000
     17 C7         -2.0480   -1.0380    2.8780 c3        1 A2K     -0.152000
     18 C15         0.4660   -2.4810   -1.0070 c3        1 A2K     -0.143000
     19 C22         1.5040   -2.0050   -1.8570 c2        1 A2K      0.270000
     20 O24         1.3460   -1.9970   -3.0690 o         1 A2K     -0.302000
     21 C23         2.7940   -1.6210   -1.2880 cx        1 A2K     -0.238000
     22 C31         3.4430   -0.9610   -2.4880 cx        1 A2K     -0.184000
     23 C30         3.7390   -2.3530   -2.2190 cx        1 A2K     -0.184000
     24 C2          0.9900   -3.2780    0.3450 c3        1 A2K     -0.073000
     25 C39         0.9030   -4.6750    0.2630 c2        1 A2K     -0.163000
     26 C40         1.9190   -5.4540    0.7500 c1        1 A2K     -0.214000
     27 C21        -0.8970    1.3430   -0.8210 c2        1 A2K     -0.061000
     28 C29        -0.3210    1.7380   -2.0330 c2        1 A2K     -0.132000
     29 C28         0.6990    2.6930   -2.0430 c1        1 A2K     -0.114000
     30 C27         1.1440    3.2520   -0.8460 c1        1 A2K     -0.037000
     31 C26         0.5680    2.8560    0.3650 c1        1 A2K     -0.116000
     32 C25        -0.4520    1.9020    0.3760 c1        1 A2K     -0.126000
     33 C32         2.3870    4.1630   -0.8420 c2        1 A2K     -0.086000
     34 C38         2.2440    5.5350   -1.0190 c2        1 A2K     -0.061000
     35 N37         3.3510    6.3370   -1.0720 n1        1 A2K     -0.137000
     36 C36         4.6000    5.7910   -0.9500 c1        1 A2K     -0.125500
     37 C35         4.7450    4.4200   -0.7730 c1        1 A2K     -0.125500
     38 C34         3.6380    3.6150   -0.7200 c1        1 A2K     -0.085000
     39 H4         -4.7100   -0.2390    3.4280 ha        1 A2K      0.150000
     40 H31C       -3.5740   -1.2180    0.0460 hc        1 A2K      0.113000
     41 H32C       -4.9710   -0.9860   -0.6470 hc        1 A2K      0.113000
     42 H61C       -2.0170    1.1320    3.8110 ha        1 A2K      0.097500
     43 H62C       -2.9440    0.1720    4.6810 ha        1 A2K      0.097500
     44 H71C       -1.4250   -1.5730    3.4250 hc        1 A2K      0.090000
     45 H72C       -2.8240   -1.5890    2.6340 hc        1 A2K      0.090000
     46 H51C       -5.0960    1.8150    0.7440 hc        1 A2K      0.098500
     47 H52C       -4.0760    1.7720   -0.4540 hc        1 A2K      0.098500
     48 H11        -2.5740    1.0450   -1.3520 ha        1 A2K      0.103000
     49 H9         -0.5180   -0.0320    1.8060 hc        1 A2K      0.104000
     50 H101       -2.0810   -1.4370   -1.4420 hc        1 A2K      0.095500
     51 H102       -0.9370   -0.6430   -2.2530 hc        1 A2K      0.095500
     52 H161        0.2720    0.4400    0.5700 hc        1 A2K      0.083000
     53 H162        1.4950   -0.5740    0.3930 hc        1 A2K      0.083000
     54 H163        0.9670    0.2810   -0.8610 hc        1 A2K      0.083000
     55 H13        -1.7030   -2.2740    0.5030 hc        1 A2K      0.096000
     56 H15        -0.0280   -3.0790   -1.6140 hc        1 A2K      0.120000
     57 H141        0.6080   -2.0650    2.1170 hc        1 A2K      0.088500
     58 H142       -0.4200   -3.3120    2.0070 hc        1 A2K      0.088500
     59 H2          1.9490   -3.1440    0.5100 hc        1 A2K      0.100000
     60 H23         2.5650   -1.4880   -0.3490 hc        1 A2K      0.136000
     61 H311        2.8510   -0.7930   -3.2510 hc        1 A2K      0.120000
     62 H312        4.1650   -0.3260   -2.2860 hc        1 A2K      0.120000
     63 H301        4.6360   -2.5350   -1.8580 hc        1 A2K      0.120000
     64 H302        3.3210   -2.9990   -2.8240 hc        1 A2K      0.120000
     65 H39         0.1150   -5.0950   -0.1430 ha        1 A2K      0.123000
     66 H401        2.7060   -5.0360    1.1560 DU        1 A2K      0.111000
     67 H402        1.8570   -6.4330    0.6930 ha        1 A2K      0.115000
     68 H29        -0.6340    1.3440   -2.8770 ha        1 A2K      0.136000
     69 H25        -0.8540    1.6260    1.2230 ha        1 A2K      0.139000
     70 H28         1.1030    2.9700   -2.8950 ha        1 A2K      0.136000
     71 H26         0.8810    3.2490    1.2090 ha        1 A2K      0.137000
     72 H38         1.3510    5.9270   -1.1050 h4        1 A2K      0.162000
     73 H34         3.7400    2.6480   -0.5950 ha        1 A2K      0.142000
     74 H36         5.3940    6.3680   -0.9890 ha        1 A2K      0.152000
     75 H35         5.6430    4.0280   -0.6860 ha        1 A2K      0.152000
@<TRIPOS>BOND
     1    1    2 1   
     2    2    8 1   
     3    3    4 1   
     4    3   39 1   
     5    4    6 1   
     6    5   17 1   
     7    5   42 1   
     8    5   43 1   
     9    6    7 1   
    10    6    9 1   
    11    7    8 1   
    12    7   46 1   
    13    7   47 1   
    14    8   40 1   
    15    8   41 1   
    16    9   16 1   
    17   10   11 1   
    18   10   27 1   
    19   10   48 1   
    20   11   12 1   
    21   11   50 1   
    22   11   51 1   
    23   12   13 1   
    24   12   14 1   
    25   12   18 1   
    26   13   52 1   
    27   13   53 1   
    28   13   54 1   
    29   14   15 1   
    30   14   16 1   
    31   14   55 1   
    32   15   24 1   
    33   15   57 1   
    34   15   58 1   
    35   16   17 1   
    36   16   49 1   
    37   17   44 1   
    38   17   45 1   
    39   18   19 1   
    40   18   24 1   
    41   18   56 1   
    42   19   20 1   
    43   19   21 1   
    44   21   22 1   
    45   21   23 1   
    46   21   60 1   
    47   22   23 1   
    48   22   61 1   
    49   22   62 1   
    50   23   63 1   
    51   23   64 1   
    52   24   25 1   
    53   24   59 1   
    54   25   26 1   
    55   25   65 1   
    56   26   67 1   
    57   27   28 1   
    58   27   32 1   
    59   28   29 1   
    60   28   68 1   
    61   29   70 1   
    62   30   31 1   
    63   30   33 1   
    64   31   71 1   
    65   32   69 1   
    66   33   34 1   
    67   33   38 1   
    68   34   35 1   
    69   34   72 1   
    70   36   37 1   
    71   36   74 1   
    72   37   75 1   
    73   38   73 1   
@<TRIPOS>SUBSTRUCTURE
     1 A2K         1 TEMP              0 ****  ****    0 ROOT
